# generated using pymatgen
data_GdAl17N18
_symmetry_space_group_name_H-M   'P 1'
_cell_length_a   9.49441612
_cell_length_b   9.51283163
_cell_length_c   10.13969272
_cell_angle_alpha   90.08800708
_cell_angle_beta   90.00000043
_cell_angle_gamma   60.06401857
_symmetry_Int_Tables_number   1
_chemical_formula_structural   GdAl17N18
_chemical_formula_sum   'Gd2 Al34 N36'
_cell_volume   793.62002067
_cell_formula_units_Z   2
loop_
 _symmetry_equiv_pos_site_id
 _symmetry_equiv_pos_as_xyz
  1  'x, y, z'
loop_
 _atom_site_type_symbol
 _atom_site_label
 _atom_site_symmetry_multiplicity
 _atom_site_fract_x
 _atom_site_fract_y
 _atom_site_fract_z
 _atom_site_occupancy
  Al  Al0  1  0.11118419  0.09429829  0.38395370  1
  Al  Al1  1  0.22188021  0.20113302  0.13327291  1
  Al  Al2  1  0.77734849  0.09389412  0.88523934  1
  Al  Al3  1  0.89063528  0.20244491  0.63532210  1
  Al  Al4  1  0.44448054  0.09387188  0.38407625  1
  Al  Al5  1  0.55933819  0.19799028  0.13428099  1
  Al  Al6  1  0.11096842  0.09472984  0.88572339  1
  Al  Al7  1  0.22358647  0.20244492  0.63532210  1
  Al  Al8  1  0.77831423  0.09387188  0.38407625  1
  Al  Al9  1  0.89365344  0.20113302  0.13327291  1
  Al  Al10  1  0.44542405  0.09389413  0.88523934  1
  Al  Al11  1  0.55824083  0.20018500  0.63575087  1
  Al  Al12  1  0.11057592  0.42460533  0.39414768  1
  Al  Al13  1  0.78357410  0.42411957  0.87907850  1
  Al  Al14  1  0.88826548  0.54013574  0.63650996  1
  Al  Al15  1  0.44625654  0.42415359  0.40281280  1
  Al  Al16  1  0.10897302  0.42411959  0.87907850  1
  Al  Al17  1  0.21965061  0.54000851  0.63597196  1
  Al  Al18  1  0.78148544  0.42460531  0.39414768  1
  Al  Al19  1  0.89206112  0.53254444  0.13278172  1
  Al  Al20  1  0.44744529  0.42177610  0.87286861  1
  Al  Al21  1  0.55700758  0.54000850  0.63597196  1
  Al  Al22  1  0.11001840  0.76355174  0.39399244  1
  Al  Al23  1  0.21602814  0.88461041  0.13261165  1
  Al  Al24  1  0.77785224  0.76096217  0.88442757  1
  Al  Al25  1  0.88612938  0.87363327  0.63523381  1
  Al  Al26  1  0.44309654  0.76355173  0.39399244  1
  Al  Al27  1  0.55346189  0.87807125  0.13371553  1
  Al  Al28  1  0.10658712  0.76959353  0.87873423  1
  Al  Al29  1  0.22043173  0.87580324  0.63580868  1
  Al  Al30  1  0.77849692  0.75967281  0.38345001  1
  Al  Al31  1  0.88513355  0.87807126  0.13371554  1
  Al  Al32  1  0.44048603  0.76959353  0.87873423  1
  Al  Al33  1  0.55690402  0.87363327  0.63523380  1
  Gd  Gd34  1  0.21674004  0.54158789  0.13468216  1
  Gd  Gd35  1  0.55833877  0.54158790  0.13468216  1
  N  N36  1  0.22226215  0.20597351  0.32531053  1
  N  N37  1  0.10972628  0.09721411  0.07529820  1
  N  N38  1  0.89021411  0.20188846  0.82381570  1
  N  N39  1  0.77840734  0.09360135  0.57343157  1
  N  N40  1  0.55477914  0.20710838  0.32685025  1
  N  N41  1  0.44469052  0.09492325  0.07632470  1
  N  N42  1  0.22456411  0.20188847  0.82381570  1
  N  N43  1  0.11102788  0.09461089  0.57317373  1
  N  N44  1  0.88843102  0.20597349  0.32531053  1
  N  N45  1  0.77705290  0.09492324  0.07632470  1
  N  N46  1  0.55894700  0.19877268  0.82186408  1
  N  N47  1  0.44465796  0.09360135  0.57343157  1
  N  N48  1  0.22337726  0.53759584  0.35715185  1
  N  N49  1  0.10090922  0.41085380  0.06454323  1
  N  N50  1  0.88754728  0.54157213  0.82317288  1
  N  N51  1  0.78173500  0.42496233  0.58212556  1
  N  N52  1  0.55569359  0.53759582  0.35715185  1
  N  N53  1  0.45908845  0.39848979  0.05552392  1
  N  N54  1  0.21849483  0.54175024  0.82877053  1
  N  N55  1  0.10996936  0.42496234  0.58212556  1
  N  N56  1  0.89022503  0.53621664  0.32577200  1
  N  N57  1  0.80490367  0.41085380  0.06454323  1
  N  N58  1  0.55642163  0.54175025  0.82877053  1
  N  N59  1  0.44621214  0.42424242  0.59024529  1
  N  N60  1  0.22321477  0.87023714  0.32599466  1
  N  N61  1  0.09495814  0.79451392  0.06419644  1
  N  N62  1  0.88489950  0.87393277  0.82367244  1
  N  N63  1  0.77817058  0.76032549  0.57349068  1
  N  N64  1  0.55549560  0.87051737  0.32514966  1
  N  N65  1  0.42719462  0.79451392  0.06419644  1
  N  N66  1  0.22003790  0.87659089  0.82166944  1
  N  N67  1  0.10890679  0.76470678  0.58186665  1
  N  N68  1  0.89065372  0.87051736  0.32514967  1
  N  N69  1  0.77911633  0.75843401  0.07678781  1
  N  N70  1  0.55783440  0.87393277  0.82367244  1
  N  N71  1  0.44305310  0.76470677  0.58186665  1
