# generated using pymatgen
data_ScAl17N18
_symmetry_space_group_name_H-M   'P 1'
_cell_length_a   9.49701775
_cell_length_b   9.49702152
_cell_length_c   9.99185063
_cell_angle_alpha   89.98579408
_cell_angle_beta   89.98578090
_cell_angle_gamma   60.02347051
_symmetry_Int_Tables_number   1
_chemical_formula_structural   ScAl17N18
_chemical_formula_sum   'Sc2 Al34 N36'
_cell_volume   780.64553994
_cell_formula_units_Z   2
loop_
 _symmetry_equiv_pos_site_id
 _symmetry_equiv_pos_as_xyz
  1  'x, y, z'
loop_
 _atom_site_type_symbol
 _atom_site_label
 _atom_site_symmetry_multiplicity
 _atom_site_fract_x
 _atom_site_fract_y
 _atom_site_fract_z
 _atom_site_occupancy
  Sc  Sc0  1  0.10988142  0.09321480  0.39590453  1
  Sc  Sc1  1  0.22469657  0.20803022  0.13332827  1
  Al  Al2  1  0.77663881  0.09414666  0.89854341  1
  Al  Al3  1  0.88616693  0.20709614  0.65255991  1
  Al  Al4  1  0.44744548  0.09495514  0.40174994  1
  Al  Al5  1  0.55992400  0.20396532  0.14913029  1
  Al  Al6  1  0.10780500  0.09113845  0.89625610  1
  Al  Al7  1  0.22316295  0.20649655  0.65528309  1
  Al  Al8  1  0.77400848  0.09519901  0.39849199  1
  Al  Al9  1  0.88110910  0.20723457  0.14538527  1
  Al  Al10  1  0.45271322  0.09034263  0.89530038  1
  Al  Al11  1  0.55622541  0.20658433  0.64787057  1
  Al  Al12  1  0.11162164  0.43077896  0.40175000  1
  Al  Al13  1  0.22063190  0.54325730  0.14913029  1
  Al  Al14  1  0.77662836  0.42941582  0.89819230  1
  Al  Al15  1  0.88746355  0.53986839  0.64766828  1
  Al  Al16  1  0.44438223  0.42771562  0.39736069  1
  Al  Al17  1  0.55564227  0.53897548  0.14834376  1
  Al  Al18  1  0.10700921  0.43604662  0.89530046  1
  Al  Al19  1  0.22325088  0.53955876  0.64787064  1
  Al  Al20  1  0.77362938  0.43049627  0.39826884  1
  Al  Al21  1  0.88584163  0.54309748  0.14881168  1
  Al  Al22  1  0.44446529  0.42779864  0.89830996  1
  Al  Al23  1  0.55532916  0.53866235  0.64839753  1
  Al  Al24  1  0.11186565  0.75734172  0.39849201  1
  Al  Al25  1  0.22390106  0.86444243  0.14538521  1
  Al  Al26  1  0.77761811  0.76095126  0.89868798  1
  Al  Al27  1  0.88889641  0.87222972  0.64830506  1
  Al  Al28  1  0.44716294  0.75696257  0.39826882  1
  Al  Al29  1  0.55976432  0.86917488  0.14881160  1
  Al  Al30  1  0.11081327  0.75997206  0.89854339  1
  Al  Al31  1  0.22376268  0.86950028  0.65255990  1
  Al  Al32  1  0.77804620  0.76137940  0.39826292  1
  Al  Al33  1  0.88892510  0.87225844  0.14735066  1
  Al  Al34  1  0.44608253  0.75996156  0.89819226  1
  Al  Al35  1  0.55653512  0.87079687  0.64766819  1
  N  N36  1  0.23142701  0.21476066  0.34537952  1
  N  N37  1  0.10037155  0.08370496  0.09012610  1
  N  N38  1  0.88512658  0.20749574  0.84310884  1
  N  N39  1  0.77838685  0.09423387  0.59093085  1
  N  N40  1  0.55516041  0.20539101  0.34158014  1
  N  N41  1  0.46900467  0.08200441  0.08391597  1
  N  N42  1  0.22302632  0.20636005  0.85258421  1
  N  N43  1  0.11118790  0.09452133  0.60938841  1
  N  N44  1  0.86792309  0.21599758  0.33540022  1
  N  N45  1  0.77711098  0.09328266  0.08926104  1
  N  N46  1  0.55633259  0.20712402  0.83864576  1
  N  N47  1  0.44507547  0.09422306  0.59481898  1
  N  N48  1  0.22205751  0.53849375  0.34158009  1
  N  N49  1  0.09867095  0.45233808  0.08391594  1
  N  N50  1  0.88647959  0.54033932  0.83858149  1
  N  N51  1  0.77740506  0.42773519  0.59084246  1
  N  N52  1  0.55534794  0.53868107  0.34021855  1
  N  N53  1  0.44395443  0.42728780  0.09166565  1
  N  N54  1  0.22379053  0.53966590  0.83864574  1
  N  N55  1  0.11088961  0.42840890  0.59481894  1
  N  N56  1  0.88915222  0.53835845  0.34219471  1
  N  N57  1  0.77740087  0.42963878  0.08984152  1
  N  N58  1  0.55530143  0.53863460  0.84057943  1
  N  N59  1  0.44467172  0.42800515  0.58965008  1
  N  N60  1  0.23266409  0.85125641  0.33540027  1
  N  N61  1  0.10994928  0.76044406  0.08926092  1
  N  N62  1  0.88869764  0.87203094  0.84063176  1
  N  N63  1  0.77809891  0.76143201  0.58990610  1
  N  N64  1  0.55502515  0.87248557  0.34219473  1
  N  N65  1  0.44630555  0.76073399  0.08984146  1
  N  N66  1  0.22416221  0.86845998  0.84310885  1
  N  N67  1  0.11090058  0.76171999  0.59093092  1
  N  N68  1  0.88925813  0.87259143  0.34072892  1
  N  N69  1  0.77785975  0.76119260  0.09104407  1
  N  N70  1  0.55700613  0.86981287  0.83858135  1
  N  N71  1  0.44440199  0.76073821  0.59084245  1
