# generated using pymatgen
data_ScAl17N18
_symmetry_space_group_name_H-M   'P 1'
_cell_length_a   9.49787263
_cell_length_b   9.49787485
_cell_length_c   9.98960782
_cell_angle_alpha   89.98688915
_cell_angle_beta   89.98687454
_cell_angle_gamma   60.02348057
_symmetry_Int_Tables_number   1
_chemical_formula_structural   ScAl17N18
_chemical_formula_sum   'Sc2 Al34 N36'
_cell_volume   780.61078483
_cell_formula_units_Z   2
loop_
 _symmetry_equiv_pos_site_id
 _symmetry_equiv_pos_as_xyz
  1  'x, y, z'
loop_
 _atom_site_type_symbol
 _atom_site_label
 _atom_site_symmetry_multiplicity
 _atom_site_fract_x
 _atom_site_fract_y
 _atom_site_fract_z
 _atom_site_occupancy
  Sc  Sc0  1  0.10989112  0.09322549  0.40681497  1
  Sc  Sc1  1  0.22470508  0.20803899  0.14422907  1
  Al  Al2  1  0.77663220  0.09414278  0.90952704  1
  Al  Al3  1  0.88617045  0.20708452  0.66353847  1
  Al  Al4  1  0.44743163  0.09496009  0.41273206  1
  Al  Al5  1  0.55992722  0.20395712  0.16012661  1
  Al  Al6  1  0.10779043  0.09112369  0.90726717  1
  Al  Al7  1  0.22315166  0.20648512  0.66628403  1
  Al  Al8  1  0.77400683  0.09519018  0.40949068  1
  Al  Al9  1  0.88109053  0.20723836  0.15638605  1
  Al  Al10  1  0.45273381  0.09032303  0.90628645  1
  Al  Al11  1  0.55621578  0.20658213  0.65885320  1
  Al  Al12  1  0.11162652  0.43076525  0.41273205  1
  Al  Al13  1  0.22062371  0.54326044  0.16012659  1
  Al  Al14  1  0.77662436  0.42941019  0.90917565  1
  Al  Al15  1  0.88745560  0.53986312  0.65864858  1
  Al  Al16  1  0.44437939  0.42771288  0.40834632  1
  Al  Al17  1  0.55563848  0.53897153  0.15932645  1
  Al  Al18  1  0.10698974  0.43606718  0.90628654  1
  Al  Al19  1  0.22324870  0.53954922  0.65885301  1
  Al  Al20  1  0.77361919  0.43049433  0.40926478  1
  Al  Al21  1  0.88583547  0.54309465  0.15980706  1
  Al  Al22  1  0.44445804  0.42779147  0.90930184  1
  Al  Al23  1  0.55532092  0.53865429  0.65939188  1
  Al  Al24  1  0.11185686  0.75733990  0.40949072  1
  Al  Al25  1  0.22390477  0.86442393  0.15638600  1
  Al  Al26  1  0.77761050  0.76094379  0.90967953  1
  Al  Al27  1  0.88888837  0.87222153  0.65929902  1
  Al  Al28  1  0.44716102  0.75695230  0.40926493  1
  Al  Al29  1  0.55976159  0.86916869  0.15980692  1
  Al  Al30  1  0.11080948  0.75996546  0.90952689  1
  Al  Al31  1  0.22375114  0.86950370  0.66353844  1
  Al  Al32  1  0.77804321  0.76137617  0.40924792  1
  Al  Al33  1  0.88892180  0.87225513  0.15833587  1
  Al  Al34  1  0.44607685  0.75995764  0.90917553  1
  Al  Al35  1  0.55652978  0.87078885  0.65864858  1
  N  N36  1  0.23143865  0.21477192  0.35633939  1
  N  N37  1  0.10036338  0.08369667  0.10119315  1
  N  N38  1  0.88512875  0.20748492  0.85412942  1
  N  N39  1  0.77838017  0.09422299  0.60196342  1
  N  N40  1  0.55516132  0.20538438  0.35261296  1
  N  N41  1  0.46903167  0.08198390  0.09493823  1
  N  N42  1  0.22301809  0.20635157  0.86364792  1
  N  N43  1  0.11118492  0.09451826  0.62036635  1
  N  N44  1  0.86790312  0.21599985  0.34643941  1
  N  N45  1  0.77710794  0.09328033  0.10028199  1
  N  N46  1  0.55632767  0.20712129  0.84966261  1
  N  N47  1  0.44505760  0.09422127  0.60584541  1
  N  N48  1  0.22205100  0.53849465  0.35261314  1
  N  N49  1  0.09865070  0.45236478  0.09493817  1
  N  N50  1  0.88646814  0.54033782  0.84959671  1
  N  N51  1  0.77739391  0.42773054  0.60187281  1
  N  N52  1  0.55534426  0.53867749  0.35123926  1
  N  N53  1  0.44394719  0.42728057  0.10269382  1
  N  N54  1  0.22378788  0.53966102  0.84966274  1
  N  N55  1  0.11088794  0.42839086  0.60584541  1
  N  N56  1  0.88914779  0.53835026  0.35322643  1
  N  N57  1  0.77739737  0.42963428  0.10086221  1
  N  N58  1  0.55529343  0.53862669  0.85160779  1
  N  N59  1  0.44466660  0.42799991  0.60067021  1
  N  N60  1  0.23266653  0.85123635  0.34643939  1
  N  N61  1  0.10994707  0.76044121  0.10028207  1
  N  N62  1  0.88868962  0.87202299  0.85166029  1
  N  N63  1  0.77809341  0.76142666  0.60092566  1
  N  N64  1  0.55501692  0.87248117  0.35322650  1
  N  N65  1  0.44630094  0.76073064  0.10086215  1
  N  N66  1  0.22415145  0.86846217  0.85412947  1
  N  N67  1  0.11088969  0.76171344  0.60196347  1
  N  N68  1  0.88925423  0.87258758  0.35175103  1
  N  N69  1  0.77785303  0.76118639  0.10207271  1
  N  N70  1  0.55700450  0.86980148  0.84959680  1
  N  N71  1  0.44439729  0.76072713  0.60187264  1
