# generated using pymatgen
data_ScAl17N18
_symmetry_space_group_name_H-M   'P 1'
_cell_length_a   9.97310466
_cell_length_b   9.97310523
_cell_length_c   8.56251931
_cell_angle_alpha   90.02538595
_cell_angle_beta   90.02538658
_cell_angle_gamma   60.01470843
_symmetry_Int_Tables_number   1
_chemical_formula_structural   ScAl17N18
_chemical_formula_sum   'Sc2 Al34 N36'
_cell_volume   737.66175172
_cell_formula_units_Z   2
loop_
 _symmetry_equiv_pos_site_id
 _symmetry_equiv_pos_as_xyz
  1  'x, y, z'
loop_
 _atom_site_type_symbol
 _atom_site_label
 _atom_site_symmetry_multiplicity
 _atom_site_fract_x
 _atom_site_fract_y
 _atom_site_fract_z
 _atom_site_occupancy
  Sc  Sc0  1  0.10854505  0.09187782  0.35771096  1
  Sc  Sc1  1  0.22508944  0.20842333  0.10062088  1
  Al  Al2  1  0.77677047  0.09395541  0.85979936  1
  Al  Al3  1  0.88377981  0.20808918  0.61385163  1
  Al  Al4  1  0.44991937  0.09334844  0.36597505  1
  Al  Al5  1  0.55965115  0.20437274  0.11157821  1
  Al  Al6  1  0.10900923  0.09234252  0.85356174  1
  Al  Al7  1  0.22393437  0.20726774  0.60992136  1
  Al  Al8  1  0.77433412  0.09425040  0.36327054  1
  Al  Al9  1  0.88195564  0.20736970  0.10619724  1
  Al  Al10  1  0.45116649  0.09105427  0.85438176  1
  Al  Al11  1  0.55595748  0.20738895  0.61135097  1
  Al  Al12  1  0.11001502  0.43325274  0.36597515  1
  Al  Al13  1  0.22103935  0.54298452  0.11157823  1
  Al  Al14  1  0.77695879  0.42962012  0.86003567  1
  Al  Al15  1  0.88650043  0.54078645  0.61061495  1
  Al  Al16  1  0.44476751  0.42810086  0.36009254  1
  Al  Al17  1  0.55584384  0.53917710  0.10962800  1
  Al  Al18  1  0.10772081  0.43449994  0.85438168  1
  Al  Al19  1  0.22405561  0.53929081  0.61135097  1
  Al  Al20  1  0.77330727  0.43103744  0.36261466  1
  Al  Al21  1  0.88596590  0.54225329  0.11198004  1
  Al  Al22  1  0.44436977  0.42770314  0.86256872  1
  Al  Al23  1  0.55499309  0.53832634  0.61354644  1
  Al  Al24  1  0.11091705  0.75766740  0.36327056  1
  Al  Al25  1  0.22403646  0.86528881  0.10619709  1
  Al  Al26  1  0.77758876  0.76092220  0.86203429  1
  Al  Al27  1  0.88844124  0.87177463  0.61280730  1
  Al  Al28  1  0.44770422  0.75664046  0.36261466  1
  Al  Al29  1  0.55891984  0.86929935  0.11198002  1
  Al  Al30  1  0.11062199  0.76010380  0.85979937  1
  Al  Al31  1  0.22475595  0.86711300  0.61385180  1
  Al  Al32  1  0.77822551  0.76155892  0.36091570  1
  Al  Al33  1  0.88904554  0.87237891  0.10980163  1
  Al  Al34  1  0.44628687  0.76029206  0.86003568  1
  Al  Al35  1  0.55745303  0.86983386  0.61061495  1
  N  N36  1  0.23085132  0.21418471  0.35909837  1
  N  N37  1  0.10247741  0.08581064  0.09486130  1
  N  N38  1  0.88566538  0.20740003  0.84820889  1
  N  N39  1  0.77767896  0.09300027  0.59991302  1
  N  N40  1  0.55580743  0.20554996  0.34954089  1
  N  N41  1  0.46501321  0.08409588  0.09320754  1
  N  N42  1  0.22316829  0.20650174  0.84382604  1
  N  N43  1  0.11006017  0.09339330  0.61124432  1
  N  N44  1  0.86843700  0.21554291  0.34821868  1
  N  N45  1  0.77735132  0.09347673  0.09504944  1
  N  N46  1  0.55595425  0.20786840  0.84507269  1
  N  N47  1  0.44758260  0.09280626  0.60211914  1
  N  N48  1  0.22221657  0.53914074  0.34954089  1
  N  N49  1  0.10076239  0.44834672  0.09320748  1
  N  N50  1  0.88616586  0.54123258  0.84464093  1
  N  N51  1  0.77585153  0.42933658  0.59963729  1
  N  N52  1  0.55562191  0.53895513  0.34565854  1
  N  N53  1  0.44394567  0.42727908  0.09948816  1
  N  N54  1  0.22453502  0.53928759  0.84507268  1
  N  N55  1  0.10947283  0.43091599  0.60211917  1
  N  N56  1  0.88838283  0.53836001  0.35027846  1
  N  N57  1  0.77778319  0.42934605  0.09543367  1
  N  N58  1  0.55493448  0.53826775  0.84910212  1
  N  N59  1  0.44500173  0.42833509  0.59534759  1
  N  N60  1  0.23220977  0.85176998  0.34821853  1
  N  N61  1  0.11014333  0.76068462  0.09504938  1
  N  N62  1  0.88821347  0.87154688  0.84827912  1
  N  N63  1  0.77831934  0.76165276  0.59527717  1
  N  N64  1  0.55502658  0.87171621  0.35027848  1
  N  N65  1  0.44601283  0.76111641  0.09543364  1
  N  N66  1  0.22406675  0.86899862  0.84820898  1
  N  N67  1  0.10966691  0.76101229  0.59991303  1
  N  N68  1  0.88944842  0.87278174  0.34690895  1
  N  N69  1  0.77772182  0.76105522  0.09967350  1
  N  N70  1  0.55789913  0.86949932  0.84464092  1
  N  N71  1  0.44600330  0.75918479  0.59963729  1
