# generated using pymatgen
data_ScAl17N18
_symmetry_space_group_name_H-M   'P 1'
_cell_length_a   9.49699091
_cell_length_b   9.49698772
_cell_length_c   9.99193101
_cell_angle_alpha   89.98566291
_cell_angle_beta   89.98566882
_cell_angle_gamma   60.02345368
_symmetry_Int_Tables_number   1
_chemical_formula_structural   ScAl17N18
_chemical_formula_sum   'Sc2 Al34 N36'
_cell_volume   780.64670203
_cell_formula_units_Z   2
loop_
 _symmetry_equiv_pos_site_id
 _symmetry_equiv_pos_as_xyz
  1  'x, y, z'
loop_
 _atom_site_type_symbol
 _atom_site_label
 _atom_site_symmetry_multiplicity
 _atom_site_fract_x
 _atom_site_fract_y
 _atom_site_fract_z
 _atom_site_occupancy
  Sc  Sc0  1  0.10861536  0.09194874  0.31769716  1
  Sc  Sc1  1  0.22343110  0.20676447  0.05512402  1
  Al  Al2  1  0.77708604  0.09339362  0.80315930  1
  Al  Al3  1  0.88059937  0.20963488  0.55573070  1
  Al  Al4  1  0.45220189  0.09274409  0.30564731  1
  Al  Al5  1  0.55930295  0.20477915  0.05253743  1
  Al  Al6  1  0.11014832  0.09348172  0.79574802  1
  Al  Al7  1  0.22550586  0.20883916  0.55477682  1
  Al  Al8  1  0.77338800  0.09601325  0.30189822  1
  Al  Al9  1  0.88586579  0.20502358  0.04927841  1
  Al  Al10  1  0.44714488  0.09288198  0.79846967  1
  Al  Al11  1  0.55667335  0.20583126  0.55248603  1
  Al  Al12  1  0.10941074  0.43553526  0.30564732  1
  Al  Al13  1  0.22144584  0.54263626  0.05253747  1
  Al  Al14  1  0.77677619  0.42918143  0.80336174  1
  Al  Al15  1  0.88722869  0.54001647  0.55283715  1
  Al  Al16  1  0.44438647  0.42771981  0.30367900  1
  Al  Al17  1  0.55526533  0.53859859  0.05276600  1
  Al  Al18  1  0.10954862  0.43047826  0.79846966  1
  Al  Al19  1  0.22249798  0.54000662  0.55248598  1
  Al  Al20  1  0.77354777  0.43080274  0.30221691  1
  Al  Al21  1  0.88614935  0.54301526  0.05276065  1
  Al  Al22  1  0.44441505  0.42774837  0.80272348  1
  Al  Al23  1  0.55569366  0.53902694  0.55234038  1
  Al  Al24  1  0.11267985  0.75672138  0.30189815  1
  Al  Al25  1  0.22169026  0.86919910  0.04927836  1
  Al  Al26  1  0.77798245  0.76131578  0.80263120  1
  Al  Al27  1  0.88884626  0.87217958  0.55271835  1
  Al  Al28  1  0.44746933  0.75688115  0.30221690  1
  Al  Al29  1  0.55968195  0.86948265  0.05276064  1
  Al  Al30  1  0.11006026  0.76041938  0.80315930  1
  Al  Al31  1  0.22630151  0.86393269  0.55573067  1
  Al  Al32  1  0.77766926  0.76100262  0.30268487  1
  Al  Al33  1  0.88892927  0.87226261  0.05366917  1
  Al  Al34  1  0.44584806  0.76010954  0.80336177  1
  Al  Al35  1  0.55668317  0.87056196  0.55283723  1
  N  N36  1  0.23293965  0.21627293  0.36090863  1
  N  N37  1  0.10188496  0.08521828  0.10564764  1
  N  N38  1  0.88823536  0.20575532  0.85621164  1
  N  N39  1  0.77697932  0.09285370  0.61238515  1
  N  N40  1  0.55620131  0.20669569  0.36176953  1
  N  N41  1  0.46538812  0.08398102  0.11563255  1
  N  N42  1  0.22212386  0.20545716  0.84164201  1
  N  N43  1  0.11028470  0.09361809  0.59845001  1
  N  N44  1  0.86430845  0.21797297  0.36711548  1
  N  N45  1  0.77815136  0.09458751  0.10944984  1
  N  N46  1  0.55492451  0.20574425  0.86009963  1
  N  N47  1  0.44818544  0.09248214  0.60792222  1
  N  N48  1  0.22336239  0.53953461  0.36176951  1
  N  N49  1  0.10064764  0.44872151  0.11563255  1
  N  N50  1  0.88890967  0.53923977  0.86018795  1
  N  N51  1  0.77630519  0.43016522  0.61244947  1
  N  N52  1  0.55545210  0.53878540  0.35998516  1
  N  N53  1  0.44405342  0.42738674  0.11030120  1
  N  N54  1  0.22241099  0.53825779  0.86009970  1
  N  N55  1  0.10914876  0.43151880  0.60792211  1
  N  N56  1  0.88700559  0.53924420  0.36118886  1
  N  N57  1  0.77828648  0.42749255  0.10883516  1
  N  N58  1  0.55521250  0.53854574  0.86112401  1
  N  N59  1  0.44461397  0.42794729  0.61039773  1
  N  N60  1  0.23463959  0.84764184  0.36711552  1
  N  N61  1  0.11125414  0.76148473  0.10944984  1
  N  N62  1  0.88863948  0.87197279  0.86138059  1
  N  N63  1  0.77801017  0.76134349  0.61045036  1
  N  N64  1  0.55591089  0.87033887  0.36118893  1
  N  N65  1  0.44415919  0.76161981  0.10883506  1
  N  N66  1  0.22242199  0.87156868  0.85621163  1
  N  N67  1  0.10952037  0.76031262  0.61238516  1
  N  N68  1  0.88935707  0.87269038  0.35936347  1
  N  N69  1  0.77796364  0.76129701  0.11081122  1
  N  N70  1  0.55590649  0.87224294  0.86018795  1
  N  N71  1  0.44683183  0.75963852  0.61244951  1
