# generated using pymatgen
data_LiAlS2
_symmetry_space_group_name_H-M   'P 1'
_cell_length_a   6.62033372
_cell_length_b   8.03224213
_cell_length_c   6.24667808
_cell_angle_alpha   90.34236282
_cell_angle_beta   88.88013653
_cell_angle_gamma   90.22725776
_symmetry_Int_Tables_number   1
_chemical_formula_structural   LiAlS2
_chemical_formula_sum   'Li4 Al4 S8'
_cell_volume   332.10228729
_cell_formula_units_Z   4
loop_
 _symmetry_equiv_pos_site_id
 _symmetry_equiv_pos_as_xyz
  1  'x, y, z'
loop_
 _atom_site_type_symbol
 _atom_site_label
 _atom_site_symmetry_multiplicity
 _atom_site_fract_x
 _atom_site_fract_y
 _atom_site_fract_z
 _atom_site_occupancy
  S  S0  1  -0.06884504  0.86970158  -0.88083896  1
  S  S1  1  -0.59688023  0.12625790  -0.94212117  1
  S  S2  1  -0.10043808  0.34824405  -0.93942310  1
  S  S3  1  -0.94155765  0.10783666  -0.45259987  1
  S  S4  1  -0.56566382  0.59992683  -0.88478543  1
  S  S5  1  -0.40725821  0.84259665  -0.39365525  1
  S  S6  1  -0.90843050  0.63395969  -0.39521546  1
  S  S7  1  -0.44689239  0.37202984  -0.44880370  1
  Al  Al8  1  -0.92540953  0.12269820  -0.83058707  1
  Al  Al9  1  -0.08208232  0.85712013  -0.51580383  1
  Al  Al10  1  -0.42485147  0.34926643  -0.81112047  1
  Al  Al11  1  -0.58565838  0.62325735  -0.52328522  1
  Li  Li12  1  -0.41116761  0.85817935  -0.00099995  1
  Li  Li13  1  -0.90880603  0.61484640  -0.00195572  1
  Li  Li14  1  -0.59451792  0.10618542  -0.34500694  1
  Li  Li15  1  -0.09840904  0.36771741  -0.34396122  1
