# generated using pymatgen
data_LiAlS2
_symmetry_space_group_name_H-M   'P 1'
_cell_length_a   6.59831333
_cell_length_b   8.03966415
_cell_length_c   6.24566182
_cell_angle_alpha   91.38714177
_cell_angle_beta   90.43118475
_cell_angle_gamma   89.90158662
_symmetry_Int_Tables_number   1
_chemical_formula_structural   LiAlS2
_chemical_formula_sum   'Li4 Al4 S8'
_cell_volume   331.21439779
_cell_formula_units_Z   4
loop_
 _symmetry_equiv_pos_site_id
 _symmetry_equiv_pos_as_xyz
  1  'x, y, z'
loop_
 _atom_site_type_symbol
 _atom_site_label
 _atom_site_symmetry_multiplicity
 _atom_site_fract_x
 _atom_site_fract_y
 _atom_site_fract_z
 _atom_site_occupancy
  S  S0  1  -0.06772160  0.87498129  -0.85676329  1
  S  S1  1  -0.59789322  0.11756446  -0.91817705  1
  S  S2  1  -0.09645581  0.35044547  -0.88064232  1
  S  S3  1  -0.95347450  0.10304529  -0.35082691  1
  S  S4  1  -0.57451799  0.59839121  -0.87631429  1
  S  S5  1  -0.40466520  0.84586762  -0.38346922  1
  S  S6  1  -0.90435325  0.63601692  -0.38414186  1
  S  S7  1  -0.43816403  0.37762356  -0.43599675  1
  Al  Al8  1  -0.93792024  0.11318976  -0.98492993  1
  Al  Al9  1  -0.07791026  0.86351535  -0.49352346  1
  Al  Al10  1  -0.43427374  0.34845913  -0.80181705  1
  Al  Al11  1  -0.58318904  0.62483865  -0.51324020  1
  Li  Li12  1  -0.41364828  0.85450507  -0.98825901  1
  Li  Li13  1  -0.92680742  0.60891438  -0.99274951  1
  Li  Li14  1  -0.58732233  0.11045620  -0.36298527  1
  Li  Li15  1  -0.06855130  0.37200952  -0.48632723  1
