# generated using pymatgen
data_LiAlS2
_symmetry_space_group_name_H-M   'P 1'
_cell_length_a   6.24553802
_cell_length_b   6.59474894
_cell_length_c   8.04200299
_cell_angle_alpha   89.92881168
_cell_angle_beta   91.35423916
_cell_angle_gamma   90.23620176
_symmetry_Int_Tables_number   1
_chemical_formula_structural   LiAlS2
_chemical_formula_sum   'Li4 Al4 S8'
_cell_volume   331.13650160
_cell_formula_units_Z   4
loop_
 _symmetry_equiv_pos_site_id
 _symmetry_equiv_pos_as_xyz
  1  'x, y, z'
loop_
 _atom_site_type_symbol
 _atom_site_label
 _atom_site_symmetry_multiplicity
 _atom_site_fract_x
 _atom_site_fract_y
 _atom_site_fract_z
 _atom_site_occupancy
  S  S0  1  0.90683807  0.06999997  0.87888072  1
  S  S1  1  0.95568020  0.60349286  0.13619429  1
  S  S2  1  0.95760052  0.10295042  0.34660000  1
  S  S3  1  0.46347352  0.93518711  0.09881062  1
  S  S4  1  0.99130602  0.55713549  0.60268715  1
  S  S5  1  0.46038153  0.41327334  0.85056878  1
  S  S6  1  0.44570558  0.90848874  0.61486459  1
  S  S7  1  0.48386745  0.44051025  0.37522353  1
  Al  Al8  1  0.82670674  0.92534223  0.12514704  1
  Al  Al9  1  0.53950213  0.07560661  0.84969100  1
  Al  Al10  1  0.84718447  0.43033951  0.36387362  1
  Al  Al11  1  0.35719643  0.57313442  0.61321986  1
  Li  Li12  1  0.85730330  0.43852886  0.87172903  1
  Li  Li13  1  0.91903602  0.91561135  0.60590450  1
  Li  Li14  1  0.34717756  0.58269816  0.10941655  1
  Li  Li15  1  0.35120381  0.09456889  0.35701261  1
