# generated using pymatgen
data_LiAlS2
_symmetry_space_group_name_H-M   'P 1'
_cell_length_a   6.57464614
_cell_length_b   7.97491463
_cell_length_c   6.24548562
_cell_angle_alpha   90.62555573
_cell_angle_beta   89.97341049
_cell_angle_gamma   89.86783193
_symmetry_Int_Tables_number   1
_chemical_formula_structural   LiAlS2
_chemical_formula_sum   'Li4 Al4 S8'
_cell_volume   327.44438371
_cell_formula_units_Z   4
loop_
 _symmetry_equiv_pos_site_id
 _symmetry_equiv_pos_as_xyz
  1  'x, y, z'
loop_
 _atom_site_type_symbol
 _atom_site_label
 _atom_site_symmetry_multiplicity
 _atom_site_fract_x
 _atom_site_fract_y
 _atom_site_fract_z
 _atom_site_occupancy
  S  S0  1  -0.06768974  0.87531997  -0.84966869  1
  S  S1  1  -0.60117428  0.11760107  -0.87163241  1
  S  S2  1  -0.09280838  0.35004116  -0.86788559  1
  S  S3  1  -0.94388798  0.10207930  -0.34734439  1
  S  S4  1  -0.57232466  0.60267858  -0.85163981  1
  S  S5  1  -0.40893484  0.84930677  -0.37849669  1
  S  S6  1  -0.90703698  0.63163901  -0.37705782  1
  S  S7  1  -0.44062159  0.37494713  -0.35297685  1
  Al  Al8  1  -0.93255439  0.11212698  -0.98431148  1
  Al  Al9  1  -0.07885295  0.86291508  -0.48466370  1
  Al  Al10  1  -0.43018824  0.35617748  -0.93840051  1
  Al  Al11  1  -0.57562807  0.61209856  -0.48530705  1
  Li  Li12  1  -0.41254740  0.86039533  -0.98856295  1
  Li  Li13  1  -0.92278062  0.61216118  -0.98836635  1
  Li  Li14  1  -0.59227911  0.11052136  -0.47351075  1
  Li  Li15  1  -0.08755898  0.36981494  -0.47033831  1
