# generated using pymatgen
data_LiAlS2
_symmetry_space_group_name_H-M   'P 1'
_cell_length_a   6.57448024
_cell_length_b   7.97395206
_cell_length_c   6.24548526
_cell_angle_alpha   89.39697840
_cell_angle_beta   89.98194809
_cell_angle_gamma   90.13572001
_symmetry_Int_Tables_number   1
_chemical_formula_structural   LiAlS2
_chemical_formula_sum   'Li4 Al4 S8'
_cell_volume   327.39793405
_cell_formula_units_Z   4
loop_
 _symmetry_equiv_pos_site_id
 _symmetry_equiv_pos_as_xyz
  1  'x, y, z'
loop_
 _atom_site_type_symbol
 _atom_site_label
 _atom_site_symmetry_multiplicity
 _atom_site_fract_x
 _atom_site_fract_y
 _atom_site_fract_z
 _atom_site_occupancy
  S  S0  1  -0.06781984  0.87488033  -0.98701347  1
  S  S1  1  -0.60139709  0.13148981  -0.96177190  1
  S  S2  1  -0.09954843  0.34913728  -0.96044614  1
  S  S3  1  -0.93613820  0.10261382  -0.48738664  1
  S  S4  1  -0.56454327  0.60198783  -0.99144925  1
  S  S5  1  -0.41520498  0.85002398  -0.47079348  1
  S  S6  1  -0.90714894  0.61797120  -0.46735894  1
  S  S7  1  -0.44058945  0.37534088  -0.48911247  1
  Al  Al8  1  -0.93277783  0.11201943  -0.85360146  1
  Al  Al9  1  -0.07804636  0.85639026  -0.39754261  1
  Al  Al10  1  -0.42958332  0.36285311  -0.85406132  1
  Al  Al11  1  -0.57582637  0.61223328  -0.35455846  1
  Li  Li12  1  -0.42088379  0.86966458  -0.86827389  1
  Li  Li13  1  -0.91623279  0.61041168  -0.86566703  1
  Li  Li14  1  -0.58557099  0.11217173  -0.35060865  1
  Li  Li15  1  -0.09555654  0.36063469  -0.35051765  1
