# generated using pymatgen
data_LiAlS2
_symmetry_space_group_name_H-M   'P 1'
_cell_length_a   6.58308913
_cell_length_b   7.98802878
_cell_length_c   6.24548845
_cell_angle_alpha   90.70917327
_cell_angle_beta   89.93929326
_cell_angle_gamma   89.86368362
_symmetry_Int_Tables_number   1
_chemical_formula_structural   LiAlS2
_chemical_formula_sum   'Li4 Al4 S8'
_cell_volume   328.39838389
_cell_formula_units_Z   4
loop_
 _symmetry_equiv_pos_site_id
 _symmetry_equiv_pos_as_xyz
  1  'x, y, z'
loop_
 _atom_site_type_symbol
 _atom_site_label
 _atom_site_symmetry_multiplicity
 _atom_site_fract_x
 _atom_site_fract_y
 _atom_site_fract_z
 _atom_site_occupancy
  S  S0  1  -0.06776056  0.87554940  -0.84988210  1
  S  S1  1  -0.60218218  0.11473583  -0.87422159  1
  S  S2  1  -0.08973433  0.35082019  -0.87007856  1
  S  S3  1  -0.94425347  0.10188927  -0.34774376  1
  S  S4  1  -0.57411285  0.60499723  -0.85834149  1
  S  S5  1  -0.40909701  0.84957800  -0.37943563  1
  S  S6  1  -0.90686055  0.63239532  -0.37807813  1
  S  S7  1  -0.44008845  0.37473823  -0.38375282  1
  Al  Al8  1  -0.93370372  0.11144222  -0.98545870  1
  Al  Al9  1  -0.07922950  0.86275633  -0.48438047  1
  Al  Al10  1  -0.42969582  0.35445299  -0.88507864  1
  Al  Al11  1  -0.57636703  0.61361257  -0.48995345  1
  Li  Li12  1  -0.41133588  0.86026501  -0.98998634  1
  Li  Li13  1  -0.92341495  0.61269988  -0.98979223  1
  Li  Li14  1  -0.59338634  0.10942621  -0.47348705  1
  Li  Li15  1  -0.08564557  0.37046520  -0.47049239  1
