# generated using pymatgen
data_LiAlS2
_symmetry_space_group_name_H-M   'P 1'
_cell_length_a   6.58305661
_cell_length_b   7.98718455
_cell_length_c   6.24548742
_cell_angle_alpha   89.31524290
_cell_angle_beta   89.94902463
_cell_angle_gamma   90.14089302
_symmetry_Int_Tables_number   1
_chemical_formula_structural   LiAlS2
_chemical_formula_sum   'Li4 Al4 S8'
_cell_volume   328.36369448
_cell_formula_units_Z   4
loop_
 _symmetry_equiv_pos_site_id
 _symmetry_equiv_pos_as_xyz
  1  'x, y, z'
loop_
 _atom_site_type_symbol
 _atom_site_label
 _atom_site_symmetry_multiplicity
 _atom_site_fract_x
 _atom_site_fract_y
 _atom_site_fract_z
 _atom_site_occupancy
  S  S0  1  -0.06834456  0.87471736  -0.95765599  1
  S  S1  1  -0.60156941  0.13227604  -0.96072805  1
  S  S2  1  -0.09937327  0.34942998  -0.95947884  1
  S  S3  1  -0.93429517  0.10499828  -0.48094474  1
  S  S4  1  -0.56417838  0.60178860  -0.99107494  1
  S  S5  1  -0.41833802  0.85081565  -0.46881528  1
  S  S6  1  -0.90608898  0.61504211  -0.46498900  1
  S  S7  1  -0.44050966  0.37557595  -0.48890160  1
  Al  Al8  1  -0.93213551  0.11338122  -0.84919832  1
  Al  Al9  1  -0.07853760  0.85467236  -0.44862816  1
  Al  Al10  1  -0.42917764  0.36268992  -0.85438377  1
  Al  Al11  1  -0.57463495  0.61152088  -0.35337610  1
  Li  Li12  1  -0.42281142  0.87032568  -0.86822755  1
  Li  Li13  1  -0.91515741  0.60935780  -0.86573602  1
  Li  Li14  1  -0.58492851  0.11272407  -0.34905734  1
  Li  Li15  1  -0.09678772  0.36050800  -0.34896766  1
