# generated using pymatgen
data_LiAlS2
_symmetry_space_group_name_H-M   'P 1'
_cell_length_a   6.24581433
_cell_length_b   6.60651634
_cell_length_c   8.07168282
_cell_angle_alpha   90.11101494
_cell_angle_beta   91.13258964
_cell_angle_gamma   89.41156932
_symmetry_Int_Tables_number   1
_chemical_formula_structural   LiAlS2
_chemical_formula_sum   'Li4 Al4 S8'
_cell_volume   332.97931616
_cell_formula_units_Z   4
loop_
 _symmetry_equiv_pos_site_id
 _symmetry_equiv_pos_as_xyz
  1  'x, y, z'
loop_
 _atom_site_type_symbol
 _atom_site_label
 _atom_site_symmetry_multiplicity
 _atom_site_fract_x
 _atom_site_fract_y
 _atom_site_fract_z
 _atom_site_occupancy
  S  S0  1  0.89110433  0.05878069  0.87287563  1
  S  S1  1  0.95025410  0.60201872  0.13644807  1
  S  S2  1  0.95011972  0.10188625  0.34200689  1
  S  S3  1  0.45577131  0.93979904  0.09916967  1
  S  S4  1  0.98118946  0.55902604  0.59860457  1
  S  S5  1  0.43571561  0.41330449  0.85323993  1
  S  S6  1  0.40521349  0.91342164  0.62059022  1
  S  S7  1  0.47809921  0.44243245  0.37652898  1
  Al  Al8  1  0.81833270  0.92340623  0.12306053  1
  Al  Al9  1  0.52603407  0.07888328  0.84874161  1
  Al  Al10  1  0.84101968  0.42967308  0.36227745  1
  Al  Al11  1  0.34753704  0.57226524  0.61411955  1
  Li  Li12  1  0.94053674  0.41783189  0.87384394  1
  Li  Li13  1  0.99783769  0.92526004  0.60786100  1
  Li  Li14  1  0.34532478  0.59007821  0.11448009  1
  Li  Li15  1  0.34607343  0.09880091  0.35597576  1
