# generated using pymatgen
data_LiAlS2
_symmetry_space_group_name_H-M   'P 1'
_cell_length_a   6.62830869
_cell_length_b   8.05559311
_cell_length_c   6.24636748
_cell_angle_alpha   89.62302880
_cell_angle_beta   89.03684923
_cell_angle_gamma   89.79328824
_symmetry_Int_Tables_number   1
_chemical_formula_structural   LiAlS2
_chemical_formula_sum   'Li4 Al4 S8'
_cell_volume   333.46814736
_cell_formula_units_Z   4
loop_
 _symmetry_equiv_pos_site_id
 _symmetry_equiv_pos_as_xyz
  1  'x, y, z'
loop_
 _atom_site_type_symbol
 _atom_site_label
 _atom_site_symmetry_multiplicity
 _atom_site_fract_x
 _atom_site_fract_y
 _atom_site_fract_z
 _atom_site_occupancy
  S  S0  1  -0.06150772  0.87251597  -0.89071725  1
  S  S1  1  -0.59907383  0.13170948  -0.94302399  1
  S  S2  1  -0.10108973  0.34230874  -0.94504760  1
  S  S3  1  -0.94176371  0.10096524  -0.45507672  1
  S  S4  1  -0.56294625  0.59937046  -0.95836051  1
  S  S5  1  -0.40699815  0.85547613  -0.40880502  1
  S  S6  1  -0.91714155  0.62432100  -0.40213121  1
  S  S7  1  -0.43960438  0.37170249  -0.47050447  1
  Al  Al8  1  -0.92232295  0.12325931  -0.81874915  1
  Al  Al9  1  -0.08045206  0.85162087  -0.52927754  1
  Al  Al10  1  -0.43084755  0.36281699  -0.83716885  1
  Al  Al11  1  -0.57847990  0.61726065  -0.39469087  1
  Li  Li12  1  -0.41000924  0.86700330  -0.99179916  1
  Li  Li13  1  -0.91725440  0.60585948  -0.99117392  1
  Li  Li14  1  -0.59903313  0.11638459  -0.33637467  1
  Li  Li15  1  -0.09834365  0.35724919  -0.33726242  1
