# generated using pymatgen
data_LiAlS2
_symmetry_space_group_name_H-M   'P 1'
_cell_length_a   6.24651676
_cell_length_b   6.62225907
_cell_length_c   8.04734615
_cell_angle_alpha   90.15728718
_cell_angle_beta   90.27140037
_cell_angle_gamma   88.95858126
_symmetry_Int_Tables_number   1
_chemical_formula_structural   LiAlS2
_chemical_formula_sum   'Li4 Al4 S8'
_cell_volume   332.82704326
_cell_formula_units_Z   4
loop_
 _symmetry_equiv_pos_site_id
 _symmetry_equiv_pos_as_xyz
  1  'x, y, z'
loop_
 _atom_site_type_symbol
 _atom_site_label
 _atom_site_symmetry_multiplicity
 _atom_site_fract_x
 _atom_site_fract_y
 _atom_site_fract_z
 _atom_site_occupancy
  S  S0  1  0.88981865  0.06192475  0.87203561  1
  S  S1  1  0.94313620  0.59922175  0.13243855  1
  S  S2  1  0.94479767  0.10113797  0.34276103  1
  S  S3  1  0.45487423  0.94196515  0.10094146  1
  S  S4  1  0.89281849  0.56680207  0.60603636  1
  S  S5  1  0.40052186  0.40715328  0.85015593  1
  S  S6  1  0.39701010  0.91320838  0.62633989  1
  S  S7  1  0.45963522  0.43925127  0.36941920  1
  Al  Al8  1  0.81790833  0.92271990  0.12325252  1
  Al  Al9  1  0.52769866  0.08210572  0.85077966  1
  Al  Al10  1  0.82623625  0.42774395  0.35832095  1
  Al  Al11  1  0.49480383  0.58221195  0.62182682  1
  Li  Li12  1  0.99393756  0.41046801  0.86597568  1
  Li  Li13  1  0.99276479  0.91443081  0.60644518  1
  Li  Li14  1  0.33659641  0.59902853  0.11505639  1
  Li  Li15  1  0.33760511  0.09749472  0.35803867  1
