# generated using pymatgen
data_LiAlS2
_symmetry_space_group_name_H-M   'P 1'
_cell_length_a   6.60967108
_cell_length_b   8.06809325
_cell_length_c   6.24589929
_cell_angle_alpha   90.99727474
_cell_angle_beta   89.34003395
_cell_angle_gamma   90.12270633
_symmetry_Int_Tables_number   1
_chemical_formula_structural   LiAlS2
_chemical_formula_sum   'Li4 Al4 S8'
_cell_volume   333.00466232
_cell_formula_units_Z   4
loop_
 _symmetry_equiv_pos_site_id
 _symmetry_equiv_pos_as_xyz
  1  'x, y, z'
loop_
 _atom_site_type_symbol
 _atom_site_label
 _atom_site_symmetry_multiplicity
 _atom_site_fract_x
 _atom_site_fract_y
 _atom_site_fract_z
 _atom_site_occupancy
  S  S0  1  -0.06580193  0.87623270  -0.86043707  1
  S  S1  1  -0.59498912  0.12105283  -0.93360458  1
  S  S2  1  -0.09526580  0.35326710  -0.90371730  1
  S  S3  1  -0.94939094  0.09820774  -0.35727514  1
  S  S4  1  -0.56833251  0.59967642  -0.88292425  1
  S  S5  1  -0.40671951  0.84206437  -0.38871976  1
  S  S6  1  -0.90648768  0.63596687  -0.38862171  1
  S  S7  1  -0.44948570  0.37285840  -0.44759439  1
  Al  Al8  1  -0.93596828  0.11415698  -0.99075729  1
  Al  Al9  1  -0.07879928  0.86207715  -0.49749926  1
  Al  Al10  1  -0.42949042  0.34902858  -0.81261915  1
  Al  Al11  1  -0.58501551  0.62317248  -0.52040038  1
  Li  Li12  1  -0.40916768  0.85662679  -0.99278612  1
  Li  Li13  1  -0.91756371  0.61443911  -0.99371248  1
  Li  Li14  1  -0.58375397  0.10772722  -0.34170012  1
  Li  Li15  1  -0.09063615  0.37326918  -0.39779436  1
