# generated using pymatgen
data_LiAlS2
_symmetry_space_group_name_H-M   'P 1'
_cell_length_a   6.58763725
_cell_length_b   7.99558521
_cell_length_c   6.24549087
_cell_angle_alpha   90.76485744
_cell_angle_beta   89.92110381
_cell_angle_gamma   89.86255909
_symmetry_Int_Tables_number   1
_chemical_formula_structural   LiAlS2
_chemical_formula_sum   'Li4 Al4 S8'
_cell_volume   328.93200475
_cell_formula_units_Z   4
loop_
 _symmetry_equiv_pos_site_id
 _symmetry_equiv_pos_as_xyz
  1  'x, y, z'
loop_
 _atom_site_type_symbol
 _atom_site_label
 _atom_site_symmetry_multiplicity
 _atom_site_fract_x
 _atom_site_fract_y
 _atom_site_fract_z
 _atom_site_occupancy
  S  S0  1  -0.06803357  0.87553772  -0.85010894  1
  S  S1  1  -0.60176441  0.11446060  -0.87807669  1
  S  S2  1  -0.08984336  0.35122262  -0.87350440  1
  S  S3  1  -0.94466093  0.10154994  -0.34757982  1
  S  S4  1  -0.57433060  0.60555271  -0.86391891  1
  S  S5  1  -0.40861311  0.84905696  -0.37908663  1
  S  S6  1  -0.90664018  0.63256016  -0.37805026  1
  S  S7  1  -0.43926733  0.37337008  -0.41618652  1
  Al  Al8  1  -0.93364992  0.11191327  -0.98422333  1
  Al  Al9  1  -0.07897666  0.86286691  -0.48519690  1
  Al  Al10  1  -0.43000675  0.35411226  -0.83296531  1
  Al  Al11  1  -0.57893526  0.61782969  -0.49631204  1
  Li  Li12  1  -0.41146456  0.86056213  -0.98952342  1
  Li  Li13  1  -0.92355995  0.61252571  -0.98924663  1
  Li  Li14  1  -0.59557806  0.10634779  -0.47431694  1
  Li  Li15  1  -0.08154357  0.37035536  -0.47186663  1
