# generated using pymatgen
data_LiAlS2
_symmetry_space_group_name_H-M   'P 1'
_cell_length_a   6.57873301
_cell_length_b   8.04008211
_cell_length_c   6.24548838
_cell_angle_alpha   91.87634790
_cell_angle_beta   90.06005621
_cell_angle_gamma   89.98280010
_symmetry_Int_Tables_number   1
_chemical_formula_structural   LiAlS2
_chemical_formula_sum   'Li4 Al4 S8'
_cell_volume   330.16875508
_cell_formula_units_Z   4
loop_
 _symmetry_equiv_pos_site_id
 _symmetry_equiv_pos_as_xyz
  1  'x, y, z'
loop_
 _atom_site_type_symbol
 _atom_site_label
 _atom_site_symmetry_multiplicity
 _atom_site_fract_x
 _atom_site_fract_y
 _atom_site_fract_z
 _atom_site_occupancy
  S  S0  1  -0.06762248  0.87524685  -0.85277798  1
  S  S1  1  -0.59903039  0.11298667  -0.87950958  1
  S  S2  1  -0.09164627  0.35026193  -0.87302643  1
  S  S3  1  -0.94686569  0.10273249  -0.34426987  1
  S  S4  1  -0.57101676  0.59791752  -0.87372609  1
  S  S5  1  -0.40865982  0.85088805  -0.38056971  1
  S  S6  1  -0.90664740  0.63766284  -0.38108837  1
  S  S7  1  -0.44134499  0.37950052  -0.42777035  1
  Al  Al8  1  -0.93268172  0.11212916  -0.97879641  1
  Al  Al9  1  -0.07945930  0.86502344  -0.48892668  1
  Al  Al10  1  -0.42976026  0.35077016  -0.79490253  1
  Al  Al11  1  -0.58331648  0.62600696  -0.50984758  1
  Li  Li12  1  -0.41374654  0.85704518  -0.98847056  1
  Li  Li13  1  -0.92435571  0.60889414  -0.98928861  1
  Li  Li14  1  -0.60009029  0.10165833  -0.47313039  1
  Li  Li15  1  -0.07062409  0.37109964  -0.47406222  1
