# generated using pymatgen
data_LiAlS2
_symmetry_space_group_name_H-M   'P 1'
_cell_length_a   6.61152366
_cell_length_b   8.06256848
_cell_length_c   6.24602861
_cell_angle_alpha   89.16038116
_cell_angle_beta   89.24402870
_cell_angle_gamma   89.85576048
_symmetry_Int_Tables_number   1
_chemical_formula_structural   LiAlS2
_chemical_formula_sum   'Li4 Al4 S8'
_cell_volume   332.88431551
_cell_formula_units_Z   4
loop_
 _symmetry_equiv_pos_site_id
 _symmetry_equiv_pos_as_xyz
  1  'x, y, z'
loop_
 _atom_site_type_symbol
 _atom_site_label
 _atom_site_symmetry_multiplicity
 _atom_site_fract_x
 _atom_site_fract_y
 _atom_site_fract_z
 _atom_site_occupancy
  S  S0  1  -0.06176738  0.87169730  -0.88696422  1
  S  S1  1  -0.60129162  0.13365127  -0.94701270  1
  S  S2  1  -0.10198971  0.34108333  -0.94863965  1
  S  S3  1  -0.94063356  0.10038522  -0.45459779  1
  S  S4  1  -0.56077235  0.59761008  -0.97731561  1
  S  S5  1  -0.41047948  0.85473282  -0.41452997  1
  S  S6  1  -0.91393869  0.62170344  -0.40302551  1
  S  S7  1  -0.44181031  0.37691250  -0.47686574  1
  Al  Al8  1  -0.92351205  0.12208398  -0.81745338  1
  Al  Al9  1  -0.08034047  0.84972436  -0.52292903  1
  Al  Al10  1  -0.43037389  0.36121285  -0.84028036  1
  Al  Al11  1  -0.57395400  0.61343335  -0.34477510  1
  Li  Li12  1  -0.40805239  0.87358482  -0.99435861  1
  Li  Li13  1  -0.92509657  0.60708011  -0.99398865  1
  Li  Li14  1  -0.59360919  0.11772849  -0.34357844  1
  Li  Li15  1  -0.09924654  0.35719998  -0.34384860  1
