# generated using pymatgen
data_LiAlS2
_symmetry_space_group_name_H-M   'P 1'
_cell_length_a   6.63063634
_cell_length_b   8.05223538
_cell_length_c   6.24644523
_cell_angle_alpha   90.31507418
_cell_angle_beta   88.99532297
_cell_angle_gamma   90.21040013
_symmetry_Int_Tables_number   1
_chemical_formula_structural   LiAlS2
_chemical_formula_sum   'Li4 Al4 S8'
_cell_volume   333.44828848
_cell_formula_units_Z   4
loop_
 _symmetry_equiv_pos_site_id
 _symmetry_equiv_pos_as_xyz
  1  'x, y, z'
loop_
 _atom_site_type_symbol
 _atom_site_label
 _atom_site_symmetry_multiplicity
 _atom_site_fract_x
 _atom_site_fract_y
 _atom_site_fract_z
 _atom_site_occupancy
  S  S0  1  -0.06902466  0.87079690  -0.86996033  1
  S  S1  1  -0.59122322  0.12469285  -0.93710395  1
  S  S2  1  -0.10181096  0.35511390  -0.93126983  1
  S  S3  1  -0.94496753  0.09989537  -0.38845130  1
  S  S4  1  -0.56638107  0.60114407  -0.88372468  1
  S  S5  1  -0.40738102  0.84251822  -0.39410728  1
  S  S6  1  -0.90942291  0.63146991  -0.39594807  1
  S  S7  1  -0.44675023  0.37259146  -0.44789607  1
  Al  Al8  1  -0.92919790  0.11790720  -0.93166889  1
  Al  Al9  1  -0.07763883  0.86266483  -0.50263041  1
  Al  Al10  1  -0.42789066  0.35183271  -0.80897665  1
  Al  Al11  1  -0.58614776  0.62347392  -0.51989455  1
  Li  Li12  1  -0.40999947  0.85754594  -0.00196667  1
  Li  Li13  1  -0.90871769  0.61593503  -0.00260066  1
  Li  Li14  1  -0.59207931  0.10595218  -0.34710147  1
  Li  Li15  1  -0.09823499  0.36628942  -0.34686255  1
