# generated using pymatgen
data_LiAlS2
_symmetry_space_group_name_H-M   'P 1'
_cell_length_a   6.59596060
_cell_length_b   8.04058929
_cell_length_c   6.24554583
_cell_angle_alpha   91.32228830
_cell_angle_beta   90.25297231
_cell_angle_gamma   89.93144509
_symmetry_Int_Tables_number   1
_chemical_formula_structural   LiAlS2
_chemical_formula_sum   'Li4 Al4 S8'
_cell_volume   331.14345287
_cell_formula_units_Z   4
loop_
 _symmetry_equiv_pos_site_id
 _symmetry_equiv_pos_as_xyz
  1  'x, y, z'
loop_
 _atom_site_type_symbol
 _atom_site_label
 _atom_site_symmetry_multiplicity
 _atom_site_fract_x
 _atom_site_fract_y
 _atom_site_fract_z
 _atom_site_occupancy
  S  S0  1  -0.06816520  0.87524240  -0.85504503  1
  S  S1  1  -0.60005470  0.11479281  -0.89319134  1
  S  S2  1  -0.09530750  0.35053231  -0.87853736  1
  S  S3  1  -0.95108914  0.10272128  -0.34761752  1
  S  S4  1  -0.57337631  0.59876304  -0.87535907  1
  S  S5  1  -0.40517829  0.84653895  -0.38138876  1
  S  S6  1  -0.90461195  0.63624256  -0.38298943  1
  S  S7  1  -0.43809718  0.37885716  -0.43199754  1
  Al  Al8  1  -0.93536953  0.11324290  -0.98170522  1
  Al  Al9  1  -0.07785531  0.86389180  -0.49172608  1
  Al  Al10  1  -0.43288529  0.34958313  -0.79930080  1
  Al  Al11  1  -0.58291390  0.62512992  -0.51215345  1
  Li  Li12  1  -0.41406592  0.85694624  -0.98804642  1
  Li  Li13  1  -0.92590555  0.60948557  -0.99123824  1
  Li  Li14  1  -0.59241660  0.10600578  -0.41837006  1
  Li  Li15  1  -0.06957585  0.37184804  -0.48149706  1
