# generated using pymatgen
data_LiAlS2
_symmetry_space_group_name_H-M   'P 1'
_cell_length_a   6.24548495
_cell_length_b   6.54848711
_cell_length_c   7.92298339
_cell_angle_alpha   89.99999996
_cell_angle_beta   89.99999716
_cell_angle_gamma   89.99999546
_symmetry_Int_Tables_number   1
_chemical_formula_structural   LiAlS2
_chemical_formula_sum   'Li4 Al4 S8'
_cell_volume   324.03795961
_cell_formula_units_Z   4
loop_
 _symmetry_equiv_pos_site_id
 _symmetry_equiv_pos_as_xyz
  1  'x, y, z'
loop_
 _atom_site_type_symbol
 _atom_site_label
 _atom_site_symmetry_multiplicity
 _atom_site_fract_x
 _atom_site_fract_y
 _atom_site_fract_z
 _atom_site_occupancy
  S  S0  1  0.84066198  0.06765364  0.87390749  1
  S  S1  1  0.86574486  0.59994502  0.12647048  1
  S  S2  1  0.86574484  0.09994502  0.34848552  1
  S  S3  1  0.34066197  0.94073004  0.10104858  1
  S  S4  1  0.84066200  0.56765367  0.60104851  1
  S  S5  1  0.36574488  0.40843849  0.84848552  1
  S  S6  1  0.36574491  0.90843849  0.62647047  1
  S  S7  1  0.34066195  0.44073006  0.37390741  1
  Al  Al8  1  0.97637792  0.93087186  0.11352144  1
  Al  Al9  1  0.47637791  0.07751164  0.86143456  1
  Al  Al10  1  0.97637789  0.43087185  0.36143457  1
  Al  Al11  1  0.47637794  0.57751164  0.61352144  1
  Li  Li12  1  0.97229710  0.41879438  0.86506593  1
  Li  Li13  1  0.97229714  0.91879441  0.60988999  1
  Li  Li14  1  0.47229710  0.58958974  0.10988996  1
  Li  Li15  1  0.47229706  0.08958978  0.36506595  1
