# generated using pymatgen
data_LiAlS2
_symmetry_space_group_name_H-M   'P 1'
_cell_length_a   6.54848711
_cell_length_b   7.92298339
_cell_length_c   6.24548495
_cell_angle_alpha   90.00000284
_cell_angle_beta   89.99999546
_cell_angle_gamma   90.00000004
_symmetry_Int_Tables_number   1
_chemical_formula_structural   LiAlS2
_chemical_formula_sum   'Li4 Al4 S8'
_cell_volume   324.03795961
_cell_formula_units_Z   4
loop_
 _symmetry_equiv_pos_site_id
 _symmetry_equiv_pos_as_xyz
  1  'x, y, z'
loop_
 _atom_site_type_symbol
 _atom_site_label
 _atom_site_symmetry_multiplicity
 _atom_site_fract_x
 _atom_site_fract_y
 _atom_site_fract_z
 _atom_site_occupancy
  S  S0  1  -0.06762845  0.87392950  -0.99810849  1
  S  S1  1  -0.59991983  0.12649249  -0.97302561  1
  S  S2  1  -0.09991983  0.34850753  -0.97302559  1
  S  S3  1  -0.94070484  0.10107059  -0.49810848  1
  S  S4  1  -0.56762847  0.60107052  -0.99810851  1
  S  S5  1  -0.40841330  0.84850753  -0.47302564  1
  S  S6  1  -0.90841330  0.62649248  -0.47302566  1
  S  S7  1  -0.44070487  0.37392942  -0.49810846  1
  Al  Al8  1  -0.93084666  0.11354345  -0.86239255  1
  Al  Al9  1  -0.07748645  0.86145657  -0.36239253  1
  Al  Al10  1  -0.43084666  0.36145658  -0.86239251  1
  Al  Al11  1  -0.57748645  0.61354345  -0.36239257  1
  Li  Li12  1  -0.41876919  0.86508795  -0.86647337  1
  Li  Li13  1  -0.91876922  0.60991200  -0.86647341  1
  Li  Li14  1  -0.58956454  0.10991197  -0.36647337  1
  Li  Li15  1  -0.08956459  0.36508796  -0.36647333  1
