# generated using pymatgen
data_LiAlS2
_symmetry_space_group_name_H-M   'P 1'
_cell_length_a   6.59474894
_cell_length_b   8.04200299
_cell_length_c   6.24553802
_cell_angle_alpha   88.64576084
_cell_angle_beta   90.23620176
_cell_angle_gamma   90.07118832
_symmetry_Int_Tables_number   1
_chemical_formula_structural   LiAlS2
_chemical_formula_sum   'Li4 Al4 S8'
_cell_volume   331.13650160
_cell_formula_units_Z   4
loop_
 _symmetry_equiv_pos_site_id
 _symmetry_equiv_pos_as_xyz
  1  'x, y, z'
loop_
 _atom_site_type_symbol
 _atom_site_label
 _atom_site_symmetry_multiplicity
 _atom_site_fract_x
 _atom_site_fract_y
 _atom_site_fract_z
 _atom_site_occupancy
  S  S0  1  -0.06999997  0.87888072  -0.90683807  1
  S  S1  1  -0.60349286  0.13619429  -0.95568020  1
  S  S2  1  -0.10295042  0.34660000  -0.95760052  1
  S  S3  1  -0.93518711  0.09881062  -0.46347352  1
  S  S4  1  -0.55713549  0.60268715  -0.99130602  1
  S  S5  1  -0.41327334  0.85056878  -0.46038153  1
  S  S6  1  -0.90848874  0.61486459  -0.44570558  1
  S  S7  1  -0.44051025  0.37522353  -0.48386745  1
  Al  Al8  1  -0.92534223  0.12514704  -0.82670674  1
  Al  Al9  1  -0.07560661  0.84969100  -0.53950213  1
  Al  Al10  1  -0.43033951  0.36387362  -0.84718447  1
  Al  Al11  1  -0.57313442  0.61321986  -0.35719643  1
  Li  Li12  1  -0.43852886  0.87172903  -0.85730330  1
  Li  Li13  1  -0.91561135  0.60590450  -0.91903602  1
  Li  Li14  1  -0.58269816  0.10941655  -0.34717756  1
  Li  Li15  1  -0.09456889  0.35701261  -0.35120381  1
