# generated using pymatgen
data_Al31B5N36
_symmetry_space_group_name_H-M   'P 1'
_cell_length_a   9.38702624
_cell_length_b   9.12803688
_cell_length_c   10.10465771
_cell_angle_alpha   89.94354705
_cell_angle_beta   90.39023102
_cell_angle_gamma   60.78912208
_symmetry_Int_Tables_number   1
_chemical_formula_structural   Al31B5N36
_chemical_formula_sum   'Al31 B5 N36'
_cell_volume   755.68542223
_cell_formula_units_Z   1
loop_
 _symmetry_equiv_pos_site_id
 _symmetry_equiv_pos_as_xyz
  1  'x, y, z'
loop_
 _atom_site_type_symbol
 _atom_site_label
 _atom_site_symmetry_multiplicity
 _atom_site_fract_x
 _atom_site_fract_y
 _atom_site_fract_z
 _atom_site_occupancy
  Al  Al0  1  0.12092256  0.09095792  0.32612542  1
  Al  Al1  1  0.21286186  0.21218271  0.06819798  1
  Al  Al2  1  0.77624452  0.09400227  0.86916441  1
  Al  Al3  1  0.44758309  0.10142918  0.39890037  1
  Al  Al4  1  0.11460692  0.09576942  0.79965043  1
  Al  Al5  1  0.88213778  0.20090185  0.13916987  1
  Al  Al6  1  0.44586757  0.09684350  0.88374678  1
  Al  Al7  1  0.11341776  0.42804883  0.32512659  1
  Al  Al8  1  0.21110810  0.54162072  0.06882383  1
  Al  Al9  1  0.77731336  0.42207950  0.88431602  1
  Al  Al10  1  0.88132326  0.53114412  0.63546982  1
  Al  Al11  1  0.44589875  0.41968904  0.38538928  1
  Al  Al12  1  0.55464396  0.52944554  0.13777009  1
  Al  Al13  1  0.11426375  0.41905311  0.81495704  1
  Al  Al14  1  0.21712693  0.53067566  0.56993373  1
  Al  Al15  1  0.77792648  0.41685155  0.39057403  1
  Al  Al16  1  0.87803448  0.54391475  0.14098797  1
  Al  Al17  1  0.44683595  0.41904050  0.88715716  1
  Al  Al18  1  0.55353809  0.52733395  0.64114227  1
  Al  Al19  1  0.11535644  0.76426354  0.32152552  1
  Al  Al20  1  0.21337390  0.87978620  0.06950812  1
  Al  Al21  1  0.77779790  0.76104133  0.88533256  1
  Al  Al22  1  0.89267374  0.87590569  0.62674794  1
  Al  Al23  1  0.45861318  0.75383281  0.38634036  1
  Al  Al24  1  0.55327706  0.88421805  0.13984442  1
  Al  Al25  1  0.11442000  0.75952813  0.81611959  1
  Al  Al26  1  0.23004592  0.87388888  0.56760290  1
  Al  Al27  1  0.77687250  0.77325576  0.39137133  1
  Al  Al28  1  0.88009480  0.88863545  0.12806162  1
  Al  Al29  1  0.44655505  0.76009313  0.88873361  1
  Al  Al30  1  0.56323692  0.87599017  0.63967786  1
  B  B31  1  0.84223099  0.22741385  0.63684397  1
  B  B32  1  0.48041671  0.24181728  0.15006718  1
  B  B33  1  0.16898622  0.22822283  0.55693175  1
  B  B34  1  0.85753909  0.06841471  0.41278752  1
  B  B35  1  0.50534168  0.22660263  0.64919199  1
  N  N36  1  0.20650203  0.21573910  0.40864483  1
  N  N37  1  0.11843064  0.09563622  0.13964911  1
  N  N38  1  0.87483193  0.21096291  0.78713674  1
  N  N39  1  0.84285493  0.08988724  0.55795681  1
  N  N40  1  0.49681952  0.23159602  0.29090993  1
  N  N41  1  0.44926688  0.11309422  0.07576006  1
  N  N42  1  0.21287606  0.20585626  0.88338055  1
  N  N43  1  0.16244247  0.09240744  0.62222654  1
  N  N44  1  0.88450744  0.19077196  0.33208987  1
  N  N45  1  0.79872850  0.09069582  0.04873632  1
  N  N46  1  0.54494115  0.21041861  0.80018801  1
  N  N47  1  0.49930084  0.09380066  0.57925303  1
  N  N48  1  0.21262001  0.54763991  0.38500573  1
  N  N49  1  0.10972860  0.42746637  0.13595065  1
  N  N50  1  0.88328360  0.53779912  0.82552459  1
  N  N51  1  0.77936353  0.40281475  0.58016339  1
  N  N52  1  0.55855747  0.53037462  0.32725450  1
  N  N53  1  0.44729235  0.40593488  0.07845564  1
  N  N54  1  0.21424932  0.53893813  0.87852388  1
  N  N55  1  0.11643235  0.40050917  0.62203771  1
  N  N56  1  0.87862810  0.54417529  0.33264009  1
  N  N57  1  0.77669727  0.42422731  0.07520456  1
  N  N58  1  0.55276273  0.53591325  0.82947331  1
  N  N59  1  0.45381372  0.39768351  0.58293620  1
  N  N60  1  0.22832353  0.87026494  0.37953208  1
  N  N61  1  0.11284373  0.75946432  0.13279780  1
  N  N62  1  0.88298165  0.87190871  0.81525720  1
  N  N63  1  0.78478208  0.75416465  0.57684380  1
  N  N64  1  0.55556168  0.87975962  0.32860228  1
  N  N65  1  0.44826666  0.75929805  0.08016784  1
  N  N66  1  0.21299403  0.88024474  0.87859591  1
  N  N67  1  0.12827134  0.75153788  0.62930765  1
  N  N68  1  0.88322011  0.90445702  0.34748337  1
  N  N69  1  0.77518283  0.76628371  0.07731547  1
  N  N70  1  0.55475786  0.87314498  0.82841249  1
  N  N71  1  0.46399770  0.74832785  0.57731829  1
