# generated using pymatgen
data_Al31B5N36
_symmetry_space_group_name_H-M   'P 1'
_cell_length_a   9.42631996
_cell_length_b   9.14804297
_cell_length_c   9.98353478
_cell_angle_alpha   90.12477818
_cell_angle_beta   90.55284520
_cell_angle_gamma   60.99996480
_symmetry_Int_Tables_number   1
_chemical_formula_structural   Al31B5N36
_chemical_formula_sum   'Al31 B5 N36'
_cell_volume   752.92518963
_cell_formula_units_Z   1
loop_
 _symmetry_equiv_pos_site_id
 _symmetry_equiv_pos_as_xyz
  1  'x, y, z'
loop_
 _atom_site_type_symbol
 _atom_site_label
 _atom_site_symmetry_multiplicity
 _atom_site_fract_x
 _atom_site_fract_y
 _atom_site_fract_z
 _atom_site_occupancy
  Al  Al0  1  0.12186170  0.08639711  0.33454119  1
  Al  Al1  1  0.21769150  0.20704097  0.08335812  1
  Al  Al2  1  0.77476887  0.09578271  0.88660426  1
  Al  Al3  1  0.45236304  0.09789921  0.41078964  1
  Al  Al4  1  0.11352664  0.10364948  0.81182313  1
  Al  Al5  1  0.88043023  0.20255930  0.15077905  1
  Al  Al6  1  0.44498503  0.09905535  0.89599377  1
  Al  Al7  1  0.10127185  0.43521994  0.40188366  1
  Al  Al8  1  0.21769225  0.54005088  0.15836625  1
  Al  Al9  1  0.77434899  0.42393720  0.89901221  1
  Al  Al10  1  0.88742306  0.52802874  0.65478525  1
  Al  Al11  1  0.44390363  0.41809039  0.40149634  1
  Al  Al12  1  0.55372066  0.53060865  0.15158616  1
  Al  Al13  1  0.10008637  0.43935075  0.90446318  1
  Al  Al14  1  0.22567871  0.51816731  0.64917637  1
  Al  Al15  1  0.77715867  0.41547704  0.40412328  1
  Al  Al16  1  0.88206893  0.54342578  0.15348747  1
  Al  Al17  1  0.44024593  0.42292814  0.90305500  1
  Al  Al18  1  0.55510969  0.52594326  0.65539885  1
  Al  Al19  1  0.10989259  0.76488606  0.37933616  1
  Al  Al20  1  0.21283903  0.87839753  0.08116452  1
  Al  Al21  1  0.77601487  0.76578246  0.90460285  1
  Al  Al22  1  0.89096597  0.87578899  0.63918840  1
  Al  Al23  1  0.45843863  0.75242624  0.40083084  1
  Al  Al24  1  0.55340934  0.88298665  0.15340885  1
  Al  Al25  1  0.10861979  0.76547536  0.84429952  1
  Al  Al26  1  0.23299722  0.87459710  0.58488753  1
  Al  Al27  1  0.77445549  0.77133300  0.40370501  1
  Al  Al28  1  0.88206192  0.88990912  0.15174535  1
  Al  Al29  1  0.44732466  0.76084389  0.90035256  1
  Al  Al30  1  0.56654533  0.87361911  0.65412652  1
  B  B31  1  0.84093464  0.22747623  0.65163952  1
  B  B32  1  0.48713396  0.23755149  0.16528844  1
  B  B33  1  0.17016951  0.22227710  0.56070043  1
  B  B34  1  0.85358068  0.07156831  0.42508144  1
  B  B35  1  0.50785530  0.22398344  0.66491184  1
  N  N36  1  0.21738648  0.20179160  0.41205631  1
  N  N37  1  0.11537479  0.09656848  0.14771907  1
  N  N38  1  0.87475476  0.21139991  0.80348690  1
  N  N39  1  0.83893928  0.09133227  0.57150918  1
  N  N40  1  0.51061718  0.22485682  0.30744349  1
  N  N41  1  0.44963356  0.11226318  0.09199193  1
  N  N42  1  0.21625773  0.20771870  0.89357617  1
  N  N43  1  0.15762478  0.09575044  0.63238506  1
  N  N44  1  0.88625852  0.19001948  0.34527478  1
  N  N45  1  0.79049176  0.09276999  0.06836473  1
  N  N46  1  0.54771741  0.21087244  0.81661164  1
  N  N47  1  0.50034982  0.09205089  0.59454576  1
  N  N48  1  0.21927109  0.53807070  0.35212617  1
  N  N49  1  0.09871586  0.43906282  0.09868936  1
  N  N50  1  0.88315795  0.54030235  0.84447724  1
  N  N51  1  0.77926186  0.40285390  0.59620773  1
  N  N52  1  0.55844060  0.52920298  0.34378451  1
  N  N53  1  0.43967646  0.40970766  0.09533278  1
  N  N54  1  0.22288620  0.53342052  0.84047895  1
  N  N55  1  0.10538199  0.40813261  0.59580277  1
  N  N56  1  0.88266687  0.54028289  0.34521526  1
  N  N57  1  0.77435597  0.42628512  0.09096590  1
  N  N58  1  0.55218266  0.53557676  0.84542177  1
  N  N59  1  0.45044083  0.39798367  0.59759320  1
  N  N60  1  0.23150567  0.86962813  0.39280629  1
  N  N61  1  0.10608141  0.76486945  0.12748744  1
  N  N62  1  0.88338737  0.87335767  0.82915367  1
  N  N63  1  0.78521064  0.75124529  0.59121279  1
  N  N64  1  0.55655673  0.87621876  0.34372570  1
  N  N65  1  0.44631641  0.76015543  0.09375762  1
  N  N66  1  0.21616444  0.88290470  0.88322608  1
  N  N67  1  0.12066845  0.75127949  0.61417689  1
  N  N68  1  0.88040182  0.90518907  0.35923367  1
  N  N69  1  0.77355712  0.76916298  0.09728634  1
  N  N70  1  0.55678460  0.87408305  0.84440596  1
  N  N71  1  0.46377030  0.74792825  0.59473794  1
