# generated using pymatgen
data_Al31B5N36
_symmetry_space_group_name_H-M   'P 1'
_cell_length_a   9.27101952
_cell_length_b   9.15426147
_cell_length_c   9.84366084
_cell_angle_alpha   89.97381109
_cell_angle_beta   89.38772728
_cell_angle_gamma   60.09197371
_symmetry_Int_Tables_number   1
_chemical_formula_structural   Al31B5N36
_chemical_formula_sum   'Al31 B5 N36'
_cell_volume   724.11605970
_cell_formula_units_Z   1
loop_
 _symmetry_equiv_pos_site_id
 _symmetry_equiv_pos_as_xyz
  1  'x, y, z'
loop_
 _atom_site_type_symbol
 _atom_site_label
 _atom_site_symmetry_multiplicity
 _atom_site_fract_x
 _atom_site_fract_y
 _atom_site_fract_z
 _atom_site_occupancy
  Al  Al0  1  0.09765296  0.09870097  0.32366796  1
  Al  Al1  1  0.22908509  0.20447591  0.06297467  1
  Al  Al2  1  0.77491456  0.10065074  0.80894154  1
  Al  Al3  1  0.44554868  0.10114750  0.32641786  1
  Al  Al4  1  0.11882658  0.09687278  0.80254156  1
  Al  Al5  1  0.88378838  0.20399508  0.06414996  1
  Al  Al6  1  0.45543999  0.09770754  0.80779050  1
  Al  Al7  1  0.10809198  0.42932720  0.31029592  1
  Al  Al8  1  0.22688458  0.53218568  0.05784625  1
  Al  Al9  1  0.78206310  0.41684799  0.80317844  1
  Al  Al10  1  0.89057046  0.52789923  0.55488205  1
  Al  Al11  1  0.45047344  0.41850032  0.31165377  1
  Al  Al12  1  0.55696617  0.53250755  0.05811895  1
  Al  Al13  1  0.11671893  0.41732461  0.80487374  1
  Al  Al14  1  0.22787308  0.52490035  0.55837411  1
  Al  Al15  1  0.77078313  0.42879090  0.30966395  1
  Al  Al16  1  0.88916888  0.53687681  0.05627441  1
  Al  Al17  1  0.45079264  0.41637484  0.81179714  1
  Al  Al18  1  0.55245080  0.53336373  0.55745116  1
  Al  Al19  1  0.10507940  0.76716682  0.30865021  1
  Al  Al20  1  0.22008103  0.87601841  0.05927600  1
  Al  Al21  1  0.78073786  0.76016122  0.80706605  1
  Al  Al22  1  0.88339200  0.88555096  0.55343233  1
  Al  Al23  1  0.44015817  0.76543890  0.30825401  1
  Al  Al24  1  0.55567692  0.88050207  0.06018756  1
  Al  Al25  1  0.11123707  0.76207408  0.80753208  1
  Al  Al26  1  0.22776556  0.87659498  0.55946848  1
  Al  Al27  1  0.77225108  0.76914560  0.30782242  1
  Al  Al28  1  0.88095800  0.88133487  0.06329045  1
  Al  Al29  1  0.44754736  0.76045432  0.81044877  1
  Al  Al30  1  0.56046965  0.87879420  0.56216914  1
  B  B31  1  0.82392494  0.23115879  0.53661199  1
  B  B32  1  0.55466389  0.20715796  0.07565083  1
  B  B33  1  0.17634906  0.22460539  0.54590902  1
  B  B34  1  0.76168822  0.09880328  0.31393454  1
  B  B35  1  0.56325541  0.20303526  0.56268827  1
  N  N36  1  0.21232556  0.21064069  0.39025625  1
  N  N37  1  0.10659391  0.09948631  0.12905642  1
  N  N38  1  0.89720340  0.19857497  0.87097726  1
  N  N39  1  0.76615685  0.12299471  0.60940402  1
  N  N40  1  0.57779625  0.19534464  0.38258101  1
  N  N41  1  0.45434851  0.11063817  0.12702427  1
  N  N42  1  0.23296252  0.19996289  0.87271263  1
  N  N43  1  0.14376632  0.10177723  0.61243040  1
  N  N44  1  0.86159354  0.20205789  0.38275749  1
  N  N45  1  0.75096079  0.10980910  0.14103027  1
  N  N46  1  0.56361227  0.20228655  0.89681626  1
  N  N47  1  0.49202643  0.09837529  0.61949124  1
  N  N48  1  0.22202288  0.53842443  0.36695037  1
  N  N49  1  0.10915111  0.42820310  0.11958576  1
  N  N50  1  0.89165751  0.53254346  0.86132605  1
  N  N51  1  0.78385302  0.39866753  0.60356618  1
  N  N52  1  0.54956660  0.54231131  0.36682614  1
  N  N53  1  0.45524121  0.40385384  0.11754886  1
  N  N54  1  0.22403619  0.53525943  0.86320391  1
  N  N55  1  0.11791690  0.40022172  0.60930160  1
  N  N56  1  0.88482228  0.54088153  0.36530348  1
  N  N57  1  0.77610608  0.42795597  0.11939948  1
  N  N58  1  0.55951639  0.53381436  0.86493694  1
  N  N59  1  0.45688768  0.40057945  0.61406266  1
  N  N60  1  0.21925990  0.87335069  0.36933460  1
  N  N61  1  0.10928389  0.76147915  0.11616729  1
  N  N62  1  0.88836540  0.87584794  0.86786753  1
  N  N63  1  0.78815085  0.75308563  0.61443724  1
  N  N64  1  0.55212453  0.87413618  0.37020992  1
  N  N65  1  0.44316797  0.76288686  0.11575569  1
  N  N66  1  0.22345563  0.87316756  0.86618133  1
  N  N67  1  0.11089543  0.76167953  0.61419906  1
  N  N68  1  0.87206588  0.90079362  0.35954276  1
  N  N69  1  0.77676812  0.76119545  0.11647374  1
  N  N70  1  0.55857186  0.87232174  0.86802116  1
  N  N71  1  0.45190519  0.75705934  0.61885775  1
