# generated using pymatgen
data_Al31B5N36
_symmetry_space_group_name_H-M   'P 1'
_cell_length_a   9.36638082
_cell_length_b   9.16167084
_cell_length_c   10.08558478
_cell_angle_alpha   89.94817645
_cell_angle_beta   90.31187150
_cell_angle_gamma   60.46665385
_symmetry_Int_Tables_number   1
_chemical_formula_structural   Al31B5N36
_chemical_formula_sum   'Al31 B5 N36'
_cell_volume   752.99332970
_cell_formula_units_Z   1
loop_
 _symmetry_equiv_pos_site_id
 _symmetry_equiv_pos_as_xyz
  1  'x, y, z'
loop_
 _atom_site_type_symbol
 _atom_site_label
 _atom_site_symmetry_multiplicity
 _atom_site_fract_x
 _atom_site_fract_y
 _atom_site_fract_z
 _atom_site_occupancy
  Al  Al0  1  0.12020561  0.09112702  0.32516095  1
  Al  Al1  1  0.21570641  0.21065699  0.06992290  1
  Al  Al2  1  0.76625400  0.10306804  0.87178903  1
  Al  Al3  1  0.45272389  0.10189614  0.39561384  1
  Al  Al4  1  0.11444972  0.09708486  0.80037204  1
  Al  Al5  1  0.87426414  0.19971096  0.14241832  1
  Al  Al6  1  0.44677965  0.09574770  0.88432727  1
  Al  Al7  1  0.11549555  0.42709662  0.32549333  1
  Al  Al8  1  0.21484728  0.53895681  0.07077122  1
  Al  Al9  1  0.77764424  0.42257763  0.88624694  1
  Al  Al10  1  0.88315365  0.53039706  0.63602430  1
  Al  Al11  1  0.44970005  0.41648259  0.38182122  1
  Al  Al12  1  0.55489017  0.53096596  0.13721993  1
  Al  Al13  1  0.11743479  0.41793764  0.81517626  1
  Al  Al14  1  0.21882864  0.53067152  0.56837098  1
  Al  Al15  1  0.77780950  0.41690002  0.39237803  1
  Al  Al16  1  0.87969360  0.54044027  0.14221305  1
  Al  Al17  1  0.44683308  0.42095267  0.88700811  1
  Al  Al18  1  0.55256143  0.52925491  0.64047155  1
  Al  Al19  1  0.10792209  0.76834634  0.31853829  1
  Al  Al20  1  0.21352149  0.88042053  0.06894834  1
  Al  Al21  1  0.77398875  0.75424440  0.88456345  1
  Al  Al22  1  0.89953496  0.87361494  0.58453620  1
  Al  Al23  1  0.45595496  0.75477528  0.38603574  1
  Al  Al24  1  0.55461745  0.88273155  0.13990108  1
  Al  Al25  1  0.11087179  0.76097256  0.81703566  1
  Al  Al26  1  0.22760345  0.87629580  0.56778959  1
  Al  Al27  1  0.77474658  0.77058085  0.39046308  1
  Al  Al28  1  0.88665217  0.87852993  0.06474301  1
  Al  Al29  1  0.44515178  0.76097638  0.88735203  1
  Al  Al30  1  0.56153087  0.87786484  0.63849142  1
  B  B31  1  0.83936789  0.23302192  0.64269054  1
  B  B32  1  0.50983128  0.22768947  0.14527667  1
  B  B33  1  0.17136246  0.22777943  0.55572807  1
  B  B34  1  0.85269705  0.07531597  0.42043967  1
  B  B35  1  0.50575754  0.22707017  0.64766426  1
  N  N36  1  0.20930045  0.21395982  0.40661579  1
  N  N37  1  0.11334926  0.09711678  0.13742113  1
  N  N38  1  0.87347327  0.21192676  0.79260449  1
  N  N39  1  0.83484058  0.10138478  0.56554724  1
  N  N40  1  0.51529736  0.22331442  0.29001665  1
  N  N41  1  0.45392812  0.11001119  0.07577632  1
  N  N42  1  0.21386397  0.20532192  0.88414763  1
  N  N43  1  0.15980775  0.09517298  0.62163466  1
  N  N44  1  0.88303619  0.18995491  0.33468765  1
  N  N45  1  0.76362523  0.10853275  0.05997659  1
  N  N46  1  0.54301993  0.21146200  0.79924808  1
  N  N47  1  0.49898635  0.09499038  0.57776697  1
  N  N48  1  0.21395448  0.54849587  0.38213744  1
  N  N49  1  0.11203276  0.42619168  0.13676489  1
  N  N50  1  0.88560268  0.53432632  0.82509237  1
  N  N51  1  0.77960654  0.40532718  0.58266930  1
  N  N52  1  0.55880885  0.53179288  0.32720739  1
  N  N53  1  0.45119392  0.40579687  0.07817260  1
  N  N54  1  0.21503668  0.53915838  0.87880766  1
  N  N55  1  0.11930598  0.40007014  0.62086297  1
  N  N56  1  0.87998993  0.54193886  0.33457411  1
  N  N57  1  0.77786811  0.42216363  0.07645460  1
  N  N58  1  0.55287471  0.53693191  0.82878864  1
  N  N59  1  0.45494417  0.39795551  0.58174900  1
  N  N60  1  0.22506012  0.87065115  0.37858575  1
  N  N61  1  0.10620999  0.76425497  0.12933393  1
  N  N62  1  0.88927859  0.86928342  0.86149498  1
  N  N63  1  0.78416532  0.75309343  0.58063344  1
  N  N64  1  0.55452469  0.87894408  0.32872423  1
  N  N65  1  0.44715729  0.76021026  0.07961532  1
  N  N66  1  0.21180193  0.88111651  0.87706559  1
  N  N67  1  0.12433162  0.75334969  0.63116212  1
  N  N68  1  0.88995835  0.89814848  0.38461471  1
  N  N69  1  0.77292990  0.75909764  0.07723461  1
  N  N70  1  0.55348075  0.87324409  0.82651311  1
  N  N71  1  0.46156843  0.75024621  0.57731528  1
