# generated using pymatgen
data_Al31B5N36
_symmetry_space_group_name_H-M   'P 1'
_cell_length_a   9.42341940
_cell_length_b   9.15697342
_cell_length_c   10.02098496
_cell_angle_alpha   90.17442386
_cell_angle_beta   90.47053751
_cell_angle_gamma   60.78614170
_symmetry_Int_Tables_number   1
_chemical_formula_structural   Al31B5N36
_chemical_formula_sum   'Al31 B5 N36'
_cell_volume   754.69717978
_cell_formula_units_Z   1
loop_
 _symmetry_equiv_pos_site_id
 _symmetry_equiv_pos_as_xyz
  1  'x, y, z'
loop_
 _atom_site_type_symbol
 _atom_site_label
 _atom_site_symmetry_multiplicity
 _atom_site_fract_x
 _atom_site_fract_y
 _atom_site_fract_z
 _atom_site_occupancy
  Al  Al0  1  0.12122834  0.09062934  0.33866448  1
  Al  Al1  1  0.21333854  0.21294777  0.08271800  1
  Al  Al2  1  0.77618330  0.09358761  0.88684671  1
  Al  Al3  1  0.44711054  0.10113788  0.41443246  1
  Al  Al4  1  0.11338447  0.09608338  0.81513149  1
  Al  Al5  1  0.88324842  0.20183480  0.15181158  1
  Al  Al6  1  0.44620841  0.09707321  0.89776389  1
  Al  Al7  1  0.10822319  0.42825390  0.34842643  1
  Al  Al8  1  0.22025720  0.53821018  0.12395641  1
  Al  Al9  1  0.77692895  0.42310174  0.89782055  1
  Al  Al10  1  0.87939522  0.53286430  0.64890403  1
  Al  Al11  1  0.44711105  0.41784332  0.40271981  1
  Al  Al12  1  0.55623400  0.52922992  0.15173492  1
  Al  Al13  1  0.11340911  0.41828191  0.82769726  1
  Al  Al14  1  0.22082927  0.52879862  0.59854376  1
  Al  Al15  1  0.77629352  0.41634799  0.40526619  1
  Al  Al16  1  0.87802357  0.54474334  0.15652503  1
  Al  Al17  1  0.44163154  0.42175157  0.90024252  1
  Al  Al18  1  0.55409189  0.52679108  0.65696095  1
  Al  Al19  1  0.11366694  0.76771595  0.34515572  1
  Al  Al20  1  0.21281982  0.87862747  0.08363258  1
  Al  Al21  1  0.78011694  0.76175780  0.90323431  1
  Al  Al22  1  0.88900302  0.87922449  0.64087077  1
  Al  Al23  1  0.45839124  0.75323062  0.40110634  1
  Al  Al24  1  0.55202299  0.88370071  0.15424640  1
  Al  Al25  1  0.11441542  0.75952801  0.82671914  1
  Al  Al26  1  0.23034031  0.87583538  0.58261490  1
  Al  Al27  1  0.77347448  0.77426975  0.40532392  1
  Al  Al28  1  0.87636320  0.89290072  0.15387634  1
  Al  Al29  1  0.44698197  0.75956335  0.90264880  1
  Al  Al30  1  0.56387419  0.87537160  0.65573202  1
  B  B31  1  0.84076987  0.22736406  0.65157591  1
  B  B32  1  0.48426737  0.23746809  0.16567659  1
  B  B33  1  0.16612347  0.22800948  0.56991974  1
  B  B34  1  0.85398617  0.07145152  0.42519270  1
  B  B35  1  0.50757017  0.22475653  0.66625899  1
  N  N36  1  0.20815033  0.21281719  0.42176628  1
  N  N37  1  0.11819261  0.09594002  0.15098782  1
  N  N38  1  0.87444542  0.21012261  0.80303402  1
  N  N39  1  0.83814340  0.09239469  0.57095792  1
  N  N40  1  0.50117848  0.22867913  0.30744390  1
  N  N41  1  0.44908315  0.11249713  0.09121656  1
  N  N42  1  0.21352535  0.20589251  0.89689302  1
  N  N43  1  0.15915346  0.09390876  0.63628694  1
  N  N44  1  0.88536277  0.19105631  0.34552086  1
  N  N45  1  0.79574865  0.09107192  0.06803898  1
  N  N46  1  0.54799094  0.20886451  0.81742349  1
  N  N47  1  0.49843787  0.09338259  0.59620419  1
  N  N48  1  0.21533368  0.54543692  0.39559661  1
  N  N49  1  0.10851592  0.42597215  0.15489510  1
  N  N50  1  0.88306262  0.53891211  0.84101161  1
  N  N51  1  0.77825626  0.40272495  0.59571942  1
  N  N52  1  0.55800217  0.52961598  0.34260865  1
  N  N53  1  0.44563432  0.40636734  0.09473979  1
  N  N54  1  0.22195721  0.53415804  0.86193499  1
  N  N55  1  0.11143493  0.40073672  0.63149822  1
  N  N56  1  0.87590824  0.54451299  0.34995070  1
  N  N57  1  0.77724949  0.42492918  0.08993529  1
  N  N58  1  0.55342561  0.53497108  0.84606746  1
  N  N59  1  0.45587301  0.39568487  0.59864221  1
  N  N60  1  0.22975258  0.87209036  0.39366606  1
  N  N61  1  0.11079046  0.76343956  0.15226039  1
  N  N62  1  0.88370308  0.87235107  0.83047814  1
  N  N63  1  0.78325608  0.75585390  0.59133937  1
  N  N64  1  0.55371910  0.87992650  0.34411263  1
  N  N65  1  0.44724593  0.75864599  0.09559256  1
  N  N66  1  0.21374019  0.87905069  0.89116876  1
  N  N67  1  0.12198767  0.75896262  0.63507119  1
  N  N68  1  0.87878883  0.90746404  0.35860280  1
  N  N69  1  0.77526889  0.76781025  0.09686484  1
  N  N70  1  0.55670077  0.87219176  0.84574005  1
  N  N71  1  0.46350923  0.74808084  0.59400049  1
