# generated using pymatgen
data_Al31B5N36
_symmetry_space_group_name_H-M   'P 1'
_cell_length_a   9.38231876
_cell_length_b   9.12349957
_cell_length_c   10.11006512
_cell_angle_alpha   90.18073232
_cell_angle_beta   90.50538060
_cell_angle_gamma   60.76749969
_symmetry_Int_Tables_number   1
_chemical_formula_structural   Al31B5N36
_chemical_formula_sum   'Al31 B5 N36'
_cell_volume   755.17225457
_cell_formula_units_Z   1
loop_
 _symmetry_equiv_pos_site_id
 _symmetry_equiv_pos_as_xyz
  1  'x, y, z'
loop_
 _atom_site_type_symbol
 _atom_site_label
 _atom_site_symmetry_multiplicity
 _atom_site_fract_x
 _atom_site_fract_y
 _atom_site_fract_z
 _atom_site_occupancy
  Al  Al0  1  0.12104397  0.09077649  0.33894270  1
  Al  Al1  1  0.21291261  0.21271875  0.08101179  1
  Al  Al2  1  0.77630364  0.09381089  0.88417797  1
  Al  Al3  1  0.44713882  0.10141744  0.41256324  1
  Al  Al4  1  0.11365409  0.09641185  0.81250344  1
  Al  Al5  1  0.88335176  0.20224681  0.15043980  1
  Al  Al6  1  0.44542067  0.09704720  0.89682917  1
  Al  Al7  1  0.11316984  0.42777698  0.33808314  1
  Al  Al8  1  0.21001494  0.54293281  0.08202659  1
  Al  Al9  1  0.77674605  0.42264118  0.89557474  1
  Al  Al10  1  0.88097889  0.53166805  0.64788306  1
  Al  Al11  1  0.44598931  0.41908002  0.39882985  1
  Al  Al12  1  0.55436783  0.52930394  0.15033992  1
  Al  Al13  1  0.11327116  0.41995468  0.82816501  1
  Al  Al14  1  0.21700957  0.53059433  0.58379724  1
  Al  Al15  1  0.77758205  0.41650392  0.40283153  1
  Al  Al16  1  0.87765519  0.54481041  0.15370629  1
  Al  Al17  1  0.44609416  0.41952772  0.90047662  1
  Al  Al18  1  0.55389140  0.52645940  0.65409769  1
  Al  Al19  1  0.11756136  0.76262797  0.33428083  1
  Al  Al20  1  0.21247326  0.87983117  0.08216841  1
  Al  Al21  1  0.77819377  0.76241434  0.90152264  1
  Al  Al22  1  0.89206292  0.87635463  0.64067530  1
  Al  Al23  1  0.45827341  0.75359276  0.40009003  1
  Al  Al24  1  0.55183314  0.88436227  0.15306277  1
  Al  Al25  1  0.11349901  0.76037063  0.82967360  1
  Al  Al26  1  0.22992085  0.87392853  0.58150022  1
  Al  Al27  1  0.77601166  0.77269505  0.40267770  1
  Al  Al28  1  0.87687596  0.89282499  0.15048688  1
  Al  Al29  1  0.44645238  0.76036815  0.90158741  1
  Al  Al30  1  0.56465306  0.87515098  0.65326981  1
  B  B31  1  0.84288637  0.22525884  0.64752055  1
  B  B32  1  0.48011694  0.24163666  0.16318669  1
  B  B33  1  0.16837443  0.22861622  0.57023092  1
  B  B34  1  0.85699334  0.06805835  0.42188993  1
  B  B35  1  0.50526605  0.22617967  0.66308994  1
  N  N36  1  0.20610951  0.21593448  0.42208189  1
  N  N37  1  0.11955166  0.09579590  0.15266843  1
  N  N38  1  0.87384434  0.20990144  0.79856524  1
  N  N39  1  0.84393633  0.08760073  0.56725083  1
  N  N40  1  0.49676461  0.23081005  0.30410343  1
  N  N41  1  0.44900597  0.11291202  0.08867187  1
  N  N42  1  0.21198701  0.20679257  0.89634894  1
  N  N43  1  0.16150724  0.09309928  0.63531781  1
  N  N44  1  0.88433093  0.19092003  0.34299385  1
  N  N45  1  0.79964226  0.08992963  0.06330608  1
  N  N46  1  0.54456429  0.21046081  0.81395668  1
  N  N47  1  0.49941964  0.09309908  0.59295051  1
  N  N48  1  0.21243938  0.54724656  0.39902442  1
  N  N49  1  0.10945884  0.42815885  0.14903059  1
  N  N50  1  0.88206421  0.53951773  0.83820423  1
  N  N51  1  0.77986345  0.40150281  0.59222365  1
  N  N52  1  0.55796668  0.53017216  0.33999181  1
  N  N53  1  0.44668949  0.40578358  0.09170794  1
  N  N54  1  0.21338512  0.53994983  0.89186386  1
  N  N55  1  0.11608129  0.40085518  0.63548261  1
  N  N56  1  0.87828868  0.54326232  0.34510265  1
  N  N57  1  0.77651690  0.42515834  0.08649789  1
  N  N58  1  0.55202895  0.53599015  0.84207299  1
  N  N59  1  0.45389756  0.39689622  0.59633001  1
  N  N60  1  0.22783599  0.87062093  0.39368852  1
  N  N61  1  0.11248783  0.76027021  0.14670895  1
  N  N62  1  0.88205208  0.87254021  0.82815664  1
  N  N63  1  0.78566502  0.75425549  0.58786228  1
  N  N64  1  0.55413743  0.87982407  0.34171171  1
  N  N65  1  0.44770475  0.75892475  0.09277646  1
  N  N66  1  0.21256864  0.88110360  0.89143490  1
  N  N67  1  0.12783763  0.75194558  0.64285533  1
  N  N68  1  0.88115035  0.90531295  0.35380481  1
  N  N69  1  0.77482999  0.76823146  0.09324224  1
  N  N70  1  0.55555561  0.87282801  0.84212828  1
  N  N71  1  0.46453326  0.74775180  0.59089022  1
