# generated using pymatgen
data_Al31B5N36
_symmetry_space_group_name_H-M   'P 1'
_cell_length_a   9.42513282
_cell_length_b   9.14339245
_cell_length_c   9.98339729
_cell_angle_alpha   90.11279870
_cell_angle_beta   90.57340934
_cell_angle_gamma   60.98724945
_symmetry_Int_Tables_number   1
_chemical_formula_structural   Al31B5N36
_chemical_formula_sum   'Al31 B5 N36'
_cell_volume   752.34104062
_cell_formula_units_Z   1
loop_
 _symmetry_equiv_pos_site_id
 _symmetry_equiv_pos_as_xyz
  1  'x, y, z'
loop_
 _atom_site_type_symbol
 _atom_site_label
 _atom_site_symmetry_multiplicity
 _atom_site_fract_x
 _atom_site_fract_y
 _atom_site_fract_z
 _atom_site_occupancy
  Al  Al0  1  0.12172894  0.08592685  0.33505703  1
  Al  Al1  1  0.21764391  0.20726369  0.08333932  1
  Al  Al2  1  0.77423076  0.09610553  0.88637133  1
  Al  Al3  1  0.45222981  0.09811232  0.41077337  1
  Al  Al4  1  0.11357251  0.10280887  0.81136710  1
  Al  Al5  1  0.88000791  0.20277408  0.15088910  1
  Al  Al6  1  0.44482353  0.09910120  0.89583101  1
  Al  Al7  1  0.10166314  0.43574307  0.40082321  1
  Al  Al8  1  0.21659908  0.54191787  0.15642521  1
  Al  Al9  1  0.77438234  0.42367673  0.89871962  1
  Al  Al10  1  0.88758593  0.52807967  0.65433802  1
  Al  Al11  1  0.44261103  0.41933577  0.40071673  1
  Al  Al12  1  0.55402059  0.53021657  0.15154040  1
  Al  Al13  1  0.10010264  0.43862168  0.90369291  1
  Al  Al14  1  0.22369293  0.52190125  0.65119017  1
  Al  Al15  1  0.77709376  0.41551932  0.40413140  1
  Al  Al16  1  0.88197904  0.54321560  0.15348986  1
  Al  Al17  1  0.43970330  0.42338913  0.90255321  1
  Al  Al18  1  0.55507367  0.52573722  0.65520613  1
  Al  Al19  1  0.10986244  0.76181164  0.40215839  1
  Al  Al20  1  0.21605161  0.88024854  0.08163431  1
  Al  Al21  1  0.77547131  0.76562277  0.90443220  1
  Al  Al22  1  0.89560943  0.87315218  0.64256796  1
  Al  Al23  1  0.45810954  0.75270173  0.40045223  1
  Al  Al24  1  0.55405035  0.88310099  0.15360541  1
  Al  Al25  1  0.10368443  0.76431174  0.88455520  1
  Al  Al26  1  0.23395252  0.87469208  0.58641697  1
  Al  Al27  1  0.77508669  0.77152410  0.40353822  1
  Al  Al28  1  0.88349629  0.88900948  0.15127440  1
  Al  Al29  1  0.44704118  0.76094962  0.89929608  1
  Al  Al30  1  0.56718559  0.87379164  0.65385474  1
  B  B31  1  0.84115916  0.22677418  0.65119665  1
  B  B32  1  0.48675487  0.23797110  0.16520912  1
  B  B33  1  0.17022612  0.22297932  0.56036790  1
  B  B34  1  0.85450015  0.07065132  0.42426965  1
  B  B35  1  0.50696305  0.22464506  0.66453067  1
  N  N36  1  0.21729598  0.20215986  0.41164609  1
  N  N37  1  0.11507382  0.09674424  0.14808630  1
  N  N38  1  0.87459892  0.21114528  0.80318434  1
  N  N39  1  0.83992563  0.08965613  0.57108612  1
  N  N40  1  0.51011890  0.22538728  0.30741266  1
  N  N41  1  0.44959621  0.11232471  0.09192016  1
  N  N42  1  0.21620018  0.20738551  0.89342869  1
  N  N43  1  0.15714240  0.09649244  0.63183050  1
  N  N44  1  0.88608807  0.19021421  0.34516328  1
  N  N45  1  0.79057442  0.09263285  0.06834952  1
  N  N46  1  0.54730215  0.21118755  0.81636068  1
  N  N47  1  0.49975300  0.09248105  0.59442203  1
  N  N48  1  0.21711016  0.54180425  0.34747675  1
  N  N49  1  0.09845103  0.43897666  0.09841189  1
  N  N50  1  0.88301128  0.54012932  0.84416584  1
  N  N51  1  0.77925462  0.40256169  0.59601344  1
  N  N52  1  0.55847400  0.52923654  0.34362597  1
  N  N53  1  0.43948000  0.40993083  0.09499629  1
  N  N54  1  0.22109424  0.53615287  0.84061645  1
  N  N55  1  0.10582091  0.40879328  0.59530920  1
  N  N56  1  0.88258345  0.54023662  0.34518011  1
  N  N57  1  0.77433073  0.42623151  0.09076176  1
  N  N58  1  0.55234242  0.53539115  0.84524882  1
  N  N59  1  0.44895305  0.39904529  0.59735248  1
  N  N60  1  0.23157310  0.86852313  0.39063434  1
  N  N61  1  0.10457216  0.76176602  0.09773025  1
  N  N62  1  0.88510837  0.87231559  0.83056337  1
  N  N63  1  0.78598881  0.75194653  0.59138274  1
  N  N64  1  0.55690364  0.87631650  0.34380733  1
  N  N65  1  0.44720669  0.75993964  0.09380411  1
  N  N66  1  0.21717559  0.88296922  0.88142637  1
  N  N67  1  0.11990456  0.74896849  0.59886554  1
  N  N68  1  0.88404033  0.90321963  0.35605737  1
  N  N69  1  0.77383370  0.76901361  0.09730832  1
  N  N70  1  0.55688486  0.87415184  0.84419079  1
  N  N71  1  0.46410709  0.74799748  0.59462887  1
