# generated using pymatgen
data_Al31B5N36
_symmetry_space_group_name_H-M   'P 1'
_cell_length_a   9.42657964
_cell_length_b   9.14759771
_cell_length_c   9.98180257
_cell_angle_alpha   90.12350600
_cell_angle_beta   90.56101388
_cell_angle_gamma   60.99633801
_symmetry_Int_Tables_number   1
_chemical_formula_structural   Al31B5N36
_chemical_formula_sum   'Al31 B5 N36'
_cell_volume   752.75096125
_cell_formula_units_Z   1
loop_
 _symmetry_equiv_pos_site_id
 _symmetry_equiv_pos_as_xyz
  1  'x, y, z'
loop_
 _atom_site_type_symbol
 _atom_site_label
 _atom_site_symmetry_multiplicity
 _atom_site_fract_x
 _atom_site_fract_y
 _atom_site_fract_z
 _atom_site_occupancy
  Al  Al0  1  0.12183137  0.08618104  0.33457391  1
  Al  Al1  1  0.21769505  0.20710352  0.08340212  1
  Al  Al2  1  0.77455966  0.09600339  0.88660338  1
  Al  Al3  1  0.45232549  0.09794309  0.41076263  1
  Al  Al4  1  0.11350931  0.10366101  0.81165567  1
  Al  Al5  1  0.88032619  0.20256996  0.15076239  1
  Al  Al6  1  0.44496597  0.09906356  0.89598630  1
  Al  Al7  1  0.10137919  0.43526260  0.40153464  1
  Al  Al8  1  0.21721269  0.54092163  0.15802862  1
  Al  Al9  1  0.77436711  0.42389756  0.89898212  1
  Al  Al10  1  0.88746026  0.52804602  0.65465533  1
  Al  Al11  1  0.44362461  0.41835462  0.40126092  1
  Al  Al12  1  0.55374078  0.53053797  0.15156065  1
  Al  Al13  1  0.10007690  0.43918617  0.90438823  1
  Al  Al14  1  0.22514652  0.51912568  0.64942938  1
  Al  Al15  1  0.77714915  0.41548584  0.40409366  1
  Al  Al16  1  0.88207465  0.54340068  0.15347054  1
  Al  Al17  1  0.44022322  0.42297897  0.90298664  1
  Al  Al18  1  0.55511372  0.52587832  0.65533635  1
  Al  Al19  1  0.10978120  0.76368454  0.38952925  1
  Al  Al20  1  0.21360954  0.87877390  0.08134094  1
  Al  Al21  1  0.77586921  0.76572420  0.90466690  1
  Al  Al22  1  0.89207352  0.87514620  0.63986177  1
  Al  Al23  1  0.45832585  0.75249874  0.40067489  1
  Al  Al24  1  0.55357429  0.88301872  0.15343758  1
  Al  Al25  1  0.10715970  0.76522199  0.85600312  1
  Al  Al26  1  0.23343227  0.87477339  0.58536483  1
  Al  Al27  1  0.77455673  0.77138172  0.40359720  1
  Al  Al28  1  0.88286669  0.88944790  0.15168398  1
  Al  Al29  1  0.44742635  0.76084189  0.90012291  1
  Al  Al30  1  0.56670608  0.87365515  0.65404818  1
  B  B31  1  0.84096553  0.22734267  0.65153513  1
  B  B32  1  0.48706277  0.23765439  0.16524422  1
  B  B33  1  0.17016091  0.22247618  0.56056875  1
  B  B34  1  0.85374016  0.07141672  0.42482908  1
  B  B35  1  0.50765956  0.22412754  0.66480943  1
  N  N36  1  0.21736191  0.20184071  0.41192461  1
  N  N37  1  0.11529371  0.09661463  0.14771138  1
  N  N38  1  0.87473405  0.21135233  0.80343984  1
  N  N39  1  0.83912453  0.09098705  0.57140695  1
  N  N40  1  0.51052591  0.22495352  0.30744900  1
  N  N41  1  0.44962163  0.11226733  0.09197908  1
  N  N42  1  0.21628109  0.20771728  0.89351871  1
  N  N43  1  0.15747517  0.09600266  0.63224143  1
  N  N44  1  0.88620585  0.19008959  0.34523584  1
  N  N45  1  0.79042712  0.09272442  0.06838394  1
  N  N46  1  0.54763154  0.21094560  0.81656251  1
  N  N47  1  0.50022522  0.09213640  0.59452670  1
  N  N48  1  0.21867148  0.53909546  0.35092361  1
  N  N49  1  0.09870937  0.43897305  0.09867608  1
  N  N50  1  0.88314970  0.54029752  0.84441598  1
  N  N51  1  0.77925612  0.40279658  0.59617979  1
  N  N52  1  0.55845583  0.52920533  0.34376150  1
  N  N53  1  0.43959788  0.40974002  0.09525772  1
  N  N54  1  0.22251317  0.53402509  0.84008263  1
  N  N55  1  0.10547341  0.40826110  0.59566263  1
  N  N56  1  0.88263469  0.54027021  0.34522244  1
  N  N57  1  0.77434064  0.42628282  0.09093472  1
  N  N58  1  0.55222200  0.53553386  0.84538883  1
  N  N59  1  0.45011357  0.39820990  0.59752672  1
  N  N60  1  0.23158458  0.86936244  0.39212655  1
  N  N61  1  0.10554565  0.76386438  0.11807627  1
  N  N62  1  0.88368091  0.87322087  0.82918302  1
  N  N63  1  0.78534720  0.75140721  0.59124486  1
  N  N64  1  0.55661758  0.87624221  0.34375292  1
  N  N65  1  0.44652524  0.76014432  0.09371545  1
  N  N66  1  0.21672957  0.88314475  0.88233873  1
  N  N67  1  0.12024108  0.75048741  0.60776995  1
  N  N68  1  0.88142694  0.90463223  0.35843576  1
  N  N69  1  0.77357619  0.76915762  0.09731794  1
  N  N70  1  0.55687821  0.87411474  0.84435516  1
  N  N71  1  0.46387312  0.74792463  0.59474310  1
