# generated using pymatgen
data_Al31B5N36
_symmetry_space_group_name_H-M   'P 1'
_cell_length_a   9.29046224
_cell_length_b   9.19698304
_cell_length_c   10.11197096
_cell_angle_alpha   89.47110940
_cell_angle_beta   90.13682856
_cell_angle_gamma   59.82905713
_symmetry_Int_Tables_number   1
_chemical_formula_structural   Al31B5N36
_chemical_formula_sum   'Al31 B5 N36'
_cell_volume   746.90545941
_cell_formula_units_Z   1
loop_
 _symmetry_equiv_pos_site_id
 _symmetry_equiv_pos_as_xyz
  1  'x, y, z'
loop_
 _atom_site_type_symbol
 _atom_site_label
 _atom_site_symmetry_multiplicity
 _atom_site_fract_x
 _atom_site_fract_y
 _atom_site_fract_z
 _atom_site_occupancy
  Al  Al0  1  0.10047027  0.09461288  0.31987991  1
  Al  Al1  1  0.22433115  0.20737279  0.07147712  1
  Al  Al2  1  0.78445011  0.09881605  0.80736600  1
  Al  Al3  1  0.45222909  0.10078821  0.40107192  1
  Al  Al4  1  0.10306614  0.10338392  0.82232079  1
  Al  Al5  1  0.88425268  0.20257391  0.09789398  1
  Al  Al6  1  0.45756568  0.09192053  0.88902288  1
  Al  Al7  1  0.11330118  0.42646683  0.32603721  1
  Al  Al8  1  0.22093433  0.53515925  0.07287596  1
  Al  Al9  1  0.77720493  0.42989896  0.89681318  1
  Al  Al10  1  0.88298414  0.53691708  0.63506211  1
  Al  Al11  1  0.45513164  0.41104335  0.38726159  1
  Al  Al12  1  0.55536217  0.53021384  0.14415324  1
  Al  Al13  1  0.12244422  0.41595165  0.81628633  1
  Al  Al14  1  0.21699883  0.53436056  0.56661260  1
  Al  Al15  1  0.77924872  0.41110931  0.38629685  1
  Al  Al16  1  0.88045618  0.54201266  0.14552433  1
  Al  Al17  1  0.45517386  0.41622203  0.89107915  1
  Al  Al18  1  0.56455210  0.51530140  0.63642719  1
  Al  Al19  1  0.10142647  0.77050183  0.31557579  1
  Al  Al20  1  0.22442748  0.87290044  0.06457514  1
  Al  Al21  1  0.77740853  0.75401898  0.89023969  1
  Al  Al22  1  0.89129263  0.89588186  0.55879759  1
  Al  Al23  1  0.43822339  0.76414248  0.34687598  1
  Al  Al24  1  0.55571764  0.88086953  0.14207439  1
  Al  Al25  1  0.10544408  0.76169052  0.81564770  1
  Al  Al26  1  0.21790220  0.88015729  0.57135885  1
  Al  Al27  1  0.77159947  0.76675177  0.38691341  1
  Al  Al28  1  0.88396777  0.88157527  0.06779491  1
  Al  Al29  1  0.44089904  0.76140464  0.82219143  1
  Al  Al30  1  0.56765403  0.88079015  0.63863875  1
  B  B31  1  0.90100963  0.20801829  0.60422383  1
  B  B32  1  0.55303481  0.20317513  0.14639084  1
  B  B33  1  0.15512986  0.24202833  0.55441900  1
  B  B34  1  0.77559055  0.09413221  0.29614790  1
  B  B35  1  0.50469398  0.22902371  0.64975906  1
  N  N36  1  0.20124149  0.21200681  0.40928167  1
  N  N37  1  0.12092971  0.09180256  0.13340739  1
  N  N38  1  0.89058992  0.19711062  0.89460467  1
  N  N39  1  0.83340588  0.10129971  0.62983336  1
  N  N40  1  0.55810354  0.20108271  0.30631221  1
  N  N41  1  0.46431090  0.10710133  0.08105622  1
  N  N42  1  0.22303623  0.20120086  0.88374111  1
  N  N43  1  0.09503269  0.12993783  0.62034114  1
  N  N44  1  0.86877706  0.19384788  0.32561822  1
  N  N45  1  0.75667348  0.09663561  0.13755614  1
  N  N46  1  0.54383146  0.21188894  0.79971264  1
  N  N47  1  0.48856871  0.10064140  0.58219822  1
  N  N48  1  0.21550664  0.54456253  0.37965100  1
  N  N49  1  0.11666727  0.42265218  0.13850156  1
  N  N50  1  0.88729214  0.53593978  0.82373846  1
  N  N51  1  0.79523066  0.39839886  0.57946235  1
  N  N52  1  0.55450517  0.53262689  0.33712224  1
  N  N53  1  0.46335620  0.39687922  0.08301208  1
  N  N54  1  0.21843486  0.53802064  0.88019824  1
  N  N55  1  0.12168649  0.40106839  0.62054351  1
  N  N56  1  0.87889857  0.54024373  0.33503251  1
  N  N57  1  0.77138511  0.43729287  0.08282367  1
  N  N58  1  0.56092757  0.52743295  0.82531843  1
  N  N59  1  0.45521692  0.39715863  0.58204201  1
  N  N60  1  0.21385874  0.87550249  0.38544943  1
  N  N61  1  0.10991558  0.76320386  0.12756625  1
  N  N62  1  0.88532347  0.87888189  0.87668602  1
  N  N63  1  0.78721337  0.75877324  0.57562169  1
  N  N64  1  0.54837861  0.88375986  0.33352678  1
  N  N65  1  0.44299193  0.76178026  0.11727646  1
  N  N66  1  0.21864971  0.87400573  0.87162503  1
  N  N67  1  0.11460637  0.75574002  0.62758423  1
  N  N68  1  0.87103357  0.90537272  0.36562227  1
  N  N69  1  0.77504059  0.75818876  0.07985698  1
  N  N70  1  0.55971272  0.87356535  0.82739993  1
  N  N71  1  0.44885653  0.76020727  0.61295927  1
