# generated using pymatgen
data_Al31B5N36
_symmetry_space_group_name_H-M   'P 1'
_cell_length_a   9.33014831
_cell_length_b   9.18942279
_cell_length_c   9.94640592
_cell_angle_alpha   89.99232956
_cell_angle_beta   89.86786282
_cell_angle_gamma   60.23299962
_symmetry_Int_Tables_number   1
_chemical_formula_structural   Al31B5N36
_chemical_formula_sum   'Al31 B5 N36'
_cell_volume   740.26467041
_cell_formula_units_Z   1
loop_
 _symmetry_equiv_pos_site_id
 _symmetry_equiv_pos_as_xyz
  1  'x, y, z'
loop_
 _atom_site_type_symbol
 _atom_site_label
 _atom_site_symmetry_multiplicity
 _atom_site_fract_x
 _atom_site_fract_y
 _atom_site_fract_z
 _atom_site_occupancy
  Al  Al0  1  0.09650446  0.09975665  0.33536359  1
  Al  Al1  1  0.22399408  0.20759828  0.07746061  1
  Al  Al2  1  0.78915626  0.09610076  0.80347530  1
  Al  Al3  1  0.45118648  0.10054198  0.40469456  1
  Al  Al4  1  0.11819093  0.09723931  0.81415555  1
  Al  Al5  1  0.88685502  0.20540399  0.07462925  1
  Al  Al6  1  0.45938002  0.09203956  0.89155444  1
  Al  Al7  1  0.10389486  0.42932990  0.32432257  1
  Al  Al8  1  0.22113464  0.53550521  0.07629056  1
  Al  Al9  1  0.78232891  0.41715773  0.81383659  1
  Al  Al10  1  0.88675045  0.52913397  0.56804452  1
  Al  Al11  1  0.44415261  0.42099471  0.35654790  1
  Al  Al12  1  0.56114531  0.53689587  0.07456148  1
  Al  Al13  1  0.11789471  0.41585701  0.81745138  1
  Al  Al14  1  0.21936418  0.52937682  0.56806413  1
  Al  Al15  1  0.76897575  0.42897224  0.32205912  1
  Al  Al16  1  0.88915137  0.53747637  0.06865756  1
  Al  Al17  1  0.44964532  0.41813855  0.88172089  1
  Al  Al18  1  0.55364619  0.52834757  0.57065026  1
  Al  Al19  1  0.10088936  0.77150492  0.31786738  1
  Al  Al20  1  0.21917785  0.87665895  0.06974144  1
  Al  Al21  1  0.78909993  0.75563505  0.82046759  1
  Al  Al22  1  0.89011687  0.88207582  0.56152961  1
  Al  Al23  1  0.43291025  0.76579780  0.32325921  1
  Al  Al24  1  0.55237606  0.88568619  0.13923166  1
  Al  Al25  1  0.11077462  0.76089168  0.81838723  1
  Al  Al26  1  0.22549423  0.87657891  0.57255906  1
  Al  Al27  1  0.77662891  0.76705562  0.32352889  1
  Al  Al28  1  0.88194098  0.88060677  0.07162754  1
  Al  Al29  1  0.44354823  0.75687434  0.82134769  1
  Al  Al30  1  0.55782668  0.88253187  0.63774334  1
  B  B31  1  0.83256829  0.22188307  0.54636533  1
  B  B32  1  0.55744279  0.20418822  0.15249274  1
  B  B33  1  0.17000144  0.22756530  0.56046902  1
  B  B34  1  0.77122759  0.09503329  0.31117428  1
  B  B35  1  0.50426973  0.23002226  0.65286787  1
  N  N36  1  0.20616564  0.21406101  0.40601566  1
  N  N37  1  0.10917206  0.09844015  0.14205169  1
  N  N38  1  0.89546102  0.20109180  0.88442291  1
  N  N39  1  0.82644341  0.09477033  0.62162559  1
  N  N40  1  0.56658465  0.19548516  0.31287588  1
  N  N41  1  0.46654615  0.10999280  0.08629405  1
  N  N42  1  0.22705698  0.20182804  0.88919473  1
  N  N43  1  0.15313773  0.09878640  0.62784825  1
  N  N44  1  0.85843987  0.20328335  0.38873834  1
  N  N45  1  0.76762990  0.10290773  0.14695734  1
  N  N46  1  0.55212514  0.20802813  0.80444642  1
  N  N47  1  0.49008336  0.09971486  0.58606666  1
  N  N48  1  0.21261075  0.54455430  0.37515660  1
  N  N49  1  0.10847539  0.42747126  0.13593786  1
  N  N50  1  0.89381040  0.53086853  0.87495550  1
  N  N51  1  0.78258970  0.39799099  0.61523598  1
  N  N52  1  0.54911757  0.54361464  0.37799013  1
  N  N53  1  0.45963918  0.40024805  0.09823863  1
  N  N54  1  0.21910819  0.53734055  0.88062715  1
  N  N55  1  0.11470831  0.40204716  0.62313228  1
  N  N56  1  0.88241164  0.54110826  0.37987071  1
  N  N57  1  0.77854558  0.42815096  0.13334306  1
  N  N58  1  0.56350903  0.53524770  0.88032317  1
  N  N59  1  0.44821926  0.39988530  0.59221522  1
  N  N60  1  0.21494167  0.87527570  0.38336888  1
  N  N61  1  0.10815188  0.76394370  0.12794508  1
  N  N62  1  0.88730000  0.87873118  0.87964371  1
  N  N63  1  0.79226667  0.75329235  0.62577875  1
  N  N64  1  0.54601225  0.88369561  0.33817963  1
  N  N65  1  0.43879492  0.76280289  0.12801239  1
  N  N66  1  0.22214077  0.87295401  0.87789263  1
  N  N67  1  0.11508659  0.75512862  0.62688760  1
  N  N68  1  0.87054546  0.90278840  0.36904879  1
  N  N69  1  0.78197693  0.75886963  0.12859514  1
  N  N70  1  0.55936024  0.87267454  0.83669204  1
  N  N71  1  0.44945711  0.75211298  0.62775849  1
