# generated using pymatgen
data_Al31B5N36
_symmetry_space_group_name_H-M   'P 1'
_cell_length_a   9.34043947
_cell_length_b   9.16490764
_cell_length_c   9.83372627
_cell_angle_alpha   90.04032669
_cell_angle_beta   90.40462919
_cell_angle_gamma   60.43766418
_symmetry_Int_Tables_number   1
_chemical_formula_structural   Al31B5N36
_chemical_formula_sum   'Al31 B5 N36'
_cell_volume   732.19975624
_cell_formula_units_Z   1
loop_
 _symmetry_equiv_pos_site_id
 _symmetry_equiv_pos_as_xyz
  1  'x, y, z'
loop_
 _atom_site_type_symbol
 _atom_site_label
 _atom_site_symmetry_multiplicity
 _atom_site_fract_x
 _atom_site_fract_y
 _atom_site_fract_z
 _atom_site_occupancy
  Al  Al0  1  0.11734075  0.09466372  0.38697492  1
  Al  Al1  1  0.22110463  0.20664032  0.13776419  1
  Al  Al2  1  0.76177648  0.10146368  0.89025539  1
  Al  Al3  1  0.44832643  0.10421641  0.39065752  1
  Al  Al4  1  0.10545827  0.10649778  0.81520214  1
  Al  Al5  1  0.87964243  0.20214764  0.15209128  1
  Al  Al6  1  0.43828597  0.09835905  0.90174640  1
  Al  Al7  1  0.11347724  0.42345837  0.39722308  1
  Al  Al8  1  0.22248388  0.53722546  0.15181178  1
  Al  Al9  1  0.77495679  0.42579364  0.89808898  1
  Al  Al10  1  0.89399142  0.52329951  0.64961668  1
  Al  Al11  1  0.45009316  0.41380232  0.39436202  1
  Al  Al12  1  0.55480875  0.53221839  0.14925937  1
  Al  Al13  1  0.10554825  0.43067370  0.90506968  1
  Al  Al14  1  0.22133858  0.53015827  0.65258977  1
  Al  Al15  1  0.77731470  0.41629917  0.40297537  1
  Al  Al16  1  0.88576647  0.53958034  0.15433059  1
  Al  Al17  1  0.43853667  0.42627494  0.90222803  1
  Al  Al18  1  0.55666003  0.52507931  0.65389410  1
  Al  Al19  1  0.11385531  0.76142013  0.40100183  1
  Al  Al20  1  0.21954902  0.87586137  0.15196689  1
  Al  Al21  1  0.77563394  0.76257525  0.90146526  1
  Al  Al22  1  0.89563945  0.87552553  0.64782099  1
  Al  Al23  1  0.45254918  0.75583976  0.39970484  1
  Al  Al24  1  0.55480048  0.88022175  0.15159482  1
  Al  Al25  1  0.10580214  0.76946355  0.90082663  1
  Al  Al26  1  0.23742742  0.86380766  0.63870411  1
  Al  Al27  1  0.77792013  0.76993636  0.40352269  1
  Al  Al28  1  0.87730586  0.88983189  0.15341835  1
  Al  Al29  1  0.43783561  0.76602479  0.89999393  1
  Al  Al30  1  0.55528861  0.87827779  0.65131831  1
  B  B31  1  0.83466279  0.22610051  0.65088555  1
  B  B32  1  0.54821834  0.20886023  0.15473974  1
  B  B33  1  0.23196609  0.20544340  0.61588332  1
  B  B34  1  0.83464562  0.07676963  0.42001358  1
  B  B35  1  0.48854348  0.23751670  0.66539678  1
  N  N36  1  0.22756162  0.20611032  0.33525621  1
  N  N37  1  0.09991117  0.09850748  0.11472920  1
  N  N38  1  0.86907681  0.21012743  0.80552333  1
  N  N39  1  0.82333134  0.09324522  0.57263326  1
  N  N40  1  0.55227355  0.20815990  0.31240431  1
  N  N41  1  0.45562959  0.10866570  0.09430282  1
  N  N42  1  0.21925510  0.20954144  0.86203143  1
  N  N43  1  0.15696398  0.09592748  0.60191155  1
  N  N44  1  0.88519469  0.18952882  0.34831710  1
  N  N45  1  0.74447228  0.11402427  0.08506961  1
  N  N46  1  0.54056256  0.21054644  0.81256588  1
  N  N47  1  0.42872841  0.12475464  0.59805722  1
  N  N48  1  0.22203706  0.53955032  0.34467490  1
  N  N49  1  0.10237408  0.43667392  0.09594555  1
  N  N50  1  0.88598712  0.53786449  0.84070512  1
  N  N51  1  0.78118004  0.40060429  0.59603875  1
  N  N52  1  0.55846100  0.53246188  0.34323861  1
  N  N53  1  0.44934782  0.40732595  0.09431128  1
  N  N54  1  0.21739595  0.54247230  0.84384797  1
  N  N55  1  0.12446711  0.39831476  0.59409735  1
  N  N56  1  0.88680620  0.53804119  0.34991876  1
  N  N57  1  0.77530159  0.42660869  0.09118070  1
  N  N58  1  0.55115019  0.53760882  0.84471605  1
  N  N59  1  0.44927436  0.39951882  0.59612424  1
  N  N60  1  0.23111156  0.86577063  0.34836465  1
  N  N61  1  0.10415584  0.76622044  0.09477360  1
  N  N62  1  0.88447228  0.87687752  0.83968813  1
  N  N63  1  0.78133323  0.75968816  0.59482107  1
  N  N64  1  0.55785267  0.87510352  0.34595349  1
  N  N65  1  0.44209348  0.76304836  0.09345119  1
  N  N66  1  0.22036088  0.87295634  0.83191180  1
  N  N67  1  0.11848145  0.75253745  0.59169494  1
  N  N68  1  0.88406829  0.90091001  0.35392945  1
  N  N69  1  0.77614197  0.76479330  0.09674814  1
  N  N70  1  0.55388212  0.87438858  0.84282034  1
  N  N71  1  0.46014326  0.74716876  0.59147760  1
