# generated using pymatgen
data_Al31B5N36
_symmetry_space_group_name_H-M   'P 1'
_cell_length_a   9.43560987
_cell_length_b   9.16146914
_cell_length_c   9.99568650
_cell_angle_alpha   90.15314985
_cell_angle_beta   90.48526560
_cell_angle_gamma   60.89377586
_symmetry_Int_Tables_number   1
_chemical_formula_structural   Al31B5N36
_chemical_formula_sum   'Al31 B5 N36'
_cell_volume   754.92450919
_cell_formula_units_Z   1
loop_
 _symmetry_equiv_pos_site_id
 _symmetry_equiv_pos_as_xyz
  1  'x, y, z'
loop_
 _atom_site_type_symbol
 _atom_site_label
 _atom_site_symmetry_multiplicity
 _atom_site_fract_x
 _atom_site_fract_y
 _atom_site_fract_z
 _atom_site_occupancy
  Al  Al0  1  0.12181541  0.09020381  0.33722648  1
  Al  Al1  1  0.21398500  0.21218558  0.08379858  1
  Al  Al2  1  0.77566807  0.09420982  0.88643520  1
  Al  Al3  1  0.44955812  0.10010571  0.41311559  1
  Al  Al4  1  0.11355216  0.09749774  0.81341191  1
  Al  Al5  1  0.88241980  0.20205512  0.15148550  1
  Al  Al6  1  0.44647405  0.09716994  0.89779647  1
  Al  Al7  1  0.10549098  0.42945364  0.35571338  1
  Al  Al8  1  0.22427269  0.53605164  0.15849667  1
  Al  Al9  1  0.77483931  0.42313022  0.89872918  1
  Al  Al10  1  0.88203942  0.53119902  0.64929138  1
  Al  Al11  1  0.44491388  0.41884706  0.40291251  1
  Al  Al12  1  0.55513520  0.52955649  0.15205595  1
  Al  Al13  1  0.10743892  0.42215069  0.84354908  1
  Al  Al14  1  0.22763590  0.52230239  0.63829519  1
  Al  Al15  1  0.77617958  0.41605152  0.40504154  1
  Al  Al16  1  0.87864821  0.54431213  0.15530771  1
  Al  Al17  1  0.44048159  0.42211979  0.90245942  1
  Al  Al18  1  0.55471213  0.52674704  0.65615997  1
  Al  Al19  1  0.11175439  0.77209526  0.34292271  1
  Al  Al20  1  0.21214914  0.87858743  0.08230398  1
  Al  Al21  1  0.77793653  0.76376061  0.90388415  1
  Al  Al22  1  0.89017492  0.87750929  0.63937080  1
  Al  Al23  1  0.45853077  0.75288020  0.40093825  1
  Al  Al24  1  0.55186095  0.88339160  0.15421301  1
  Al  Al25  1  0.11232981  0.76365833  0.82796887  1
  Al  Al26  1  0.23031428  0.87507086  0.58196987  1
  Al  Al27  1  0.77391925  0.77361526  0.40510939  1
  Al  Al28  1  0.87625170  0.89291537  0.15165866  1
  Al  Al29  1  0.44698136  0.75974451  0.90210868  1
  Al  Al30  1  0.56450854  0.87463727  0.65501717  1
  B  B31  1  0.84093347  0.22728676  0.65169864  1
  B  B32  1  0.48573051  0.23701008  0.16556183  1
  B  B33  1  0.16705754  0.22740535  0.56757283  1
  B  B34  1  0.85421414  0.07140417  0.42518717  1
  B  B35  1  0.50834945  0.22369541  0.66582002  1
  N  N36  1  0.21162891  0.21025253  0.41918099  1
  N  N37  1  0.11706904  0.09567874  0.14945275  1
  N  N38  1  0.87484452  0.21043314  0.80343693  1
  N  N39  1  0.83860163  0.09196079  0.57138171  1
  N  N40  1  0.50590078  0.22695271  0.30760133  1
  N  N41  1  0.44913389  0.11221664  0.09169959  1
  N  N42  1  0.21484881  0.20492542  0.89660382  1
  N  N43  1  0.15882856  0.09409525  0.63429174  1
  N  N44  1  0.88625312  0.19074144  0.34567002  1
  N  N45  1  0.79265625  0.09298309  0.06794238  1
  N  N46  1  0.54787939  0.20954693  0.81740909  1
  N  N47  1  0.49973960  0.09253344  0.59570075  1
  N  N48  1  0.22153366  0.54371551  0.36192715  1
  N  N49  1  0.10470250  0.42763521  0.14585121  1
  N  N50  1  0.88098668  0.54017048  0.84282259  1
  N  N51  1  0.77830883  0.40266756  0.59618853  1
  N  N52  1  0.55841984  0.52936518  0.34352871  1
  N  N53  1  0.44172626  0.40844247  0.09487530  1
  N  N54  1  0.22579021  0.53176755  0.84090417  1
  N  N55  1  0.10989108  0.40196948  0.62489271  1
  N  N56  1  0.87608417  0.54432830  0.34969900  1
  N  N57  1  0.77534158  0.42546823  0.09057092  1
  N  N58  1  0.55237423  0.53504513  0.84598528  1
  N  N59  1  0.45393969  0.39648217  0.59780473  1
  N  N60  1  0.23048608  0.87215698  0.39273835  1
  N  N61  1  0.10756511  0.76640868  0.14657526  1
  N  N62  1  0.88367674  0.87238286  0.83043941  1
  N  N63  1  0.78351499  0.75460651  0.59182525  1
  N  N64  1  0.55478820  0.87875489  0.34433199  1
  N  N65  1  0.44634353  0.75899581  0.09533346  1
  N  N66  1  0.21457199  0.88002339  0.88906265  1
  N  N67  1  0.12213205  0.75731519  0.63207190  1
  N  N68  1  0.87898292  0.90729947  0.35883951  1
  N  N69  1  0.77370852  0.76844897  0.09695643  1
  N  N70  1  0.55631884  0.87279835  0.84539990  1
  N  N71  1  0.46300368  0.74822369  0.59427924  1
