# generated using pymatgen
data_Al31B5N36
_symmetry_space_group_name_H-M   'P 1'
_cell_length_a   9.38496952
_cell_length_b   9.12527939
_cell_length_c   10.10537201
_cell_angle_alpha   90.02430992
_cell_angle_beta   90.42528395
_cell_angle_gamma   60.78596054
_symmetry_Int_Tables_number   1
_chemical_formula_structural   Al31B5N36
_chemical_formula_sum   'Al31 B5 N36'
_cell_volume   755.32254515
_cell_formula_units_Z   1
loop_
 _symmetry_equiv_pos_site_id
 _symmetry_equiv_pos_as_xyz
  1  'x, y, z'
loop_
 _atom_site_type_symbol
 _atom_site_label
 _atom_site_symmetry_multiplicity
 _atom_site_fract_x
 _atom_site_fract_y
 _atom_site_fract_z
 _atom_site_occupancy
  Al  Al0  1  0.12107956  0.09090517  0.32595789  1
  Al  Al1  1  0.21304150  0.21229723  0.06808630  1
  Al  Al2  1  0.77657130  0.09360138  0.87051251  1
  Al  Al3  1  0.44746557  0.10144063  0.39916063  1
  Al  Al4  1  0.11431029  0.09591000  0.79957705  1
  Al  Al5  1  0.88278709  0.20157380  0.13826704  1
  Al  Al6  1  0.44584924  0.09682977  0.88376761  1
  Al  Al7  1  0.11343597  0.42789078  0.32505515  1
  Al  Al8  1  0.21062206  0.54224372  0.06885123  1
  Al  Al9  1  0.77719711  0.42223509  0.88345068  1
  Al  Al10  1  0.88127735  0.53138578  0.63518230  1
  Al  Al11  1  0.44612265  0.41935432  0.38561064  1
  Al  Al12  1  0.55457853  0.52939570  0.13753364  1
  Al  Al13  1  0.11395007  0.41931207  0.81503165  1
  Al  Al14  1  0.21719931  0.53054923  0.57037804  1
  Al  Al15  1  0.77785229  0.41676269  0.39024276  1
  Al  Al16  1  0.87797684  0.54430922  0.14084561  1
  Al  Al17  1  0.44667616  0.41914282  0.88725806  1
  Al  Al18  1  0.55384843  0.52689782  0.64113872  1
  Al  Al19  1  0.11700226  0.76319734  0.32133509  1
  Al  Al20  1  0.21292846  0.87967332  0.06930730  1
  Al  Al21  1  0.77830362  0.76168149  0.88722504  1
  Al  Al22  1  0.89243458  0.87609481  0.62751028  1
  Al  Al23  1  0.45858113  0.75375911  0.38666422  1
  Al  Al24  1  0.55271531  0.88422234  0.13988392  1
  Al  Al25  1  0.11412511  0.75978117  0.81640383  1
  Al  Al26  1  0.23012278  0.87384248  0.56804580  1
  Al  Al27  1  0.77655872  0.77293712  0.39039674  1
  Al  Al28  1  0.87819627  0.89109375  0.13466619  1
  Al  Al29  1  0.44669586  0.76014637  0.88867341  1
  Al  Al30  1  0.56408192  0.87560301  0.63995198  1
  B  B31  1  0.84273196  0.22608452  0.63561782  1
  B  B32  1  0.48044067  0.24173957  0.15006453  1
  B  B33  1  0.16879888  0.22833917  0.55700891  1
  B  B34  1  0.85732141  0.06828935  0.41049437  1
  B  B35  1  0.50546363  0.22638166  0.64963106  1
  N  N36  1  0.20646130  0.21577337  0.40876741  1
  N  N37  1  0.11901785  0.09558847  0.13956791  1
  N  N38  1  0.87451215  0.21020128  0.78635555  1
  N  N39  1  0.84360181  0.08844756  0.55583478  1
  N  N40  1  0.49701344  0.23123517  0.29098037  1
  N  N41  1  0.44923821  0.11302511  0.07572805  1
  N  N42  1  0.21266048  0.20607814  0.88331155  1
  N  N43  1  0.16206752  0.09265008  0.62222254  1
  N  N44  1  0.88450852  0.19104838  0.33100730  1
  N  N45  1  0.79938443  0.08996864  0.04985430  1
  N  N46  1  0.54503012  0.21030794  0.80056362  1
  N  N47  1  0.49941655  0.09353521  0.57956096  1
  N  N48  1  0.21272919  0.54730375  0.38551550  1
  N  N49  1  0.10971407  0.42763827  0.13593374  1
  N  N50  1  0.88286543  0.53861617  0.82542404  1
  N  N51  1  0.77973970  0.40204848  0.57974336  1
  N  N52  1  0.55839420  0.53034004  0.32714345  1
  N  N53  1  0.44711097  0.40588818  0.07851583  1
  N  N54  1  0.21404887  0.53920267  0.87856426  1
  N  N55  1  0.11634177  0.40057111  0.62219053  1
  N  N56  1  0.87864659  0.54371386  0.33243388  1
  N  N57  1  0.77667995  0.42469008  0.07438077  1
  N  N58  1  0.55260406  0.53589092  0.82929307  1
  N  N59  1  0.45397595  0.39734158  0.58314469  1
  N  N60  1  0.22823092  0.87046351  0.38009653  1
  N  N61  1  0.11281256  0.75965797  0.13332531  1
  N  N62  1  0.88272154  0.87213954  0.81521774  1
  N  N63  1  0.78541979  0.75429144  0.57572477  1
  N  N64  1  0.55500423  0.87984409  0.32863827  1
  N  N65  1  0.44804699  0.75915855  0.07999766  1
  N  N66  1  0.21300390  0.88042563  0.87844124  1
  N  N67  1  0.12808801  0.75167623  0.62946946  1
  N  N68  1  0.88207759  0.90516537  0.34282347  1
  N  N69  1  0.77522415  0.76732147  0.07907426  1
  N  N70  1  0.55545805  0.87286760  0.82880221  1
  N  N71  1  0.46440715  0.74807417  0.57759100  1
