# generated using pymatgen
data_Al31B5N36
_symmetry_space_group_name_H-M   'P 1'
_cell_length_a   9.31226466
_cell_length_b   9.17203293
_cell_length_c   9.95147368
_cell_angle_alpha   90.28357606
_cell_angle_beta   89.91623795
_cell_angle_gamma   60.36065162
_symmetry_Int_Tables_number   1
_chemical_formula_structural   Al31B5N36
_chemical_formula_sum   'Al31 B5 N36'
_cell_volume   738.74760673
_cell_formula_units_Z   1
loop_
 _symmetry_equiv_pos_site_id
 _symmetry_equiv_pos_as_xyz
  1  'x, y, z'
loop_
 _atom_site_type_symbol
 _atom_site_label
 _atom_site_symmetry_multiplicity
 _atom_site_fract_x
 _atom_site_fract_y
 _atom_site_fract_z
 _atom_site_occupancy
  Al  Al0  1  0.09692072  0.09852290  0.33580626  1
  Al  Al1  1  0.22378201  0.20741786  0.07948135  1
  Al  Al2  1  0.79090491  0.09504404  0.80563526  1
  Al  Al3  1  0.44862568  0.10592249  0.40479689  1
  Al  Al4  1  0.11929331  0.09736730  0.81485289  1
  Al  Al5  1  0.88658275  0.20466400  0.07492241  1
  Al  Al6  1  0.45753877  0.09814029  0.89383618  1
  Al  Al7  1  0.10392191  0.43017836  0.32402634  1
  Al  Al8  1  0.22682189  0.53147112  0.07092206  1
  Al  Al9  1  0.78220909  0.41731354  0.81412090  1
  Al  Al10  1  0.88666274  0.52901619  0.56762720  1
  Al  Al11  1  0.44173208  0.42877482  0.31756707  1
  Al  Al12  1  0.55801044  0.53105983  0.06998919  1
  Al  Al13  1  0.11598930  0.41707745  0.81747565  1
  Al  Al14  1  0.22021350  0.52947735  0.56714592  1
  Al  Al15  1  0.76813096  0.42875524  0.32178134  1
  Al  Al16  1  0.88965583  0.53590727  0.06900415  1
  Al  Al17  1  0.44057785  0.43540049  0.82164831  1
  Al  Al18  1  0.55262580  0.52795103  0.56807882  1
  Al  Al19  1  0.10286325  0.76847752  0.31861605  1
  Al  Al20  1  0.21985488  0.87538535  0.07103194  1
  Al  Al21  1  0.78377569  0.75904008  0.82108157  1
  Al  Al22  1  0.89056260  0.88228758  0.56185480  1
  Al  Al23  1  0.43653452  0.76654790  0.32331654  1
  Al  Al24  1  0.55852512  0.87415626  0.09356799  1
  Al  Al25  1  0.10936969  0.76268349  0.81919110  1
  Al  Al26  1  0.22575578  0.87678905  0.57264708  1
  Al  Al27  1  0.77099709  0.77000332  0.32260796  1
  Al  Al28  1  0.88404929  0.87901340  0.07340501  1
  Al  Al29  1  0.44582325  0.76098188  0.82278520  1
  Al  Al30  1  0.56065236  0.87570748  0.59630967  1
  B  B31  1  0.83231515  0.22211255  0.54669093  1
  B  B32  1  0.55931681  0.19912972  0.15832146  1
  B  B33  1  0.16939482  0.22825423  0.56036023  1
  B  B34  1  0.77237110  0.09415370  0.31397285  1
  B  B35  1  0.50760828  0.22505748  0.66042697  1
  N  N36  1  0.20512314  0.21488017  0.40569513  1
  N  N37  1  0.10871394  0.09782276  0.14264036  1
  N  N38  1  0.89678738  0.20147647  0.88473690  1
  N  N39  1  0.82408809  0.09621559  0.62237809  1
  N  N40  1  0.57045170  0.19262105  0.31880860  1
  N  N41  1  0.46525754  0.11076180  0.09178768  1
  N  N42  1  0.22670263  0.20378744  0.89034124  1
  N  N43  1  0.15298536  0.09932354  0.62803874  1
  N  N44  1  0.85937310  0.20247088  0.38949207  1
  N  N45  1  0.76764348  0.10189076  0.14858233  1
  N  N46  1  0.55756669  0.20276797  0.80985993  1
  N  N47  1  0.48613055  0.10419561  0.58855651  1
  N  N48  1  0.21811425  0.54039060  0.37754600  1
  N  N49  1  0.10881150  0.42860726  0.13524145  1
  N  N50  1  0.89259710  0.53248604  0.87510754  1
  N  N51  1  0.78147841  0.39862698  0.61510510  1
  N  N52  1  0.54742041  0.54162542  0.37956969  1
  N  N53  1  0.45445346  0.40663288  0.12536150  1
  N  N54  1  0.22086834  0.53712754  0.87854349  1
  N  N55  1  0.11390915  0.40310359  0.62303643  1
  N  N56  1  0.88208091  0.54181987  0.37939407  1
  N  N57  1  0.77602842  0.42829247  0.13221790  1
  N  N58  1  0.56088410  0.53487652  0.87852579  1
  N  N59  1  0.44131449  0.41146166  0.62683285  1
  N  N60  1  0.21661313  0.87392581  0.38336769  1
  N  N61  1  0.11046295  0.76050229  0.12809040  1
  N  N62  1  0.88777313  0.87813433  0.88111373  1
  N  N63  1  0.78982583  0.75462463  0.62864711  1
  N  N64  1  0.54921853  0.87666041  0.37347870  1
  N  N65  1  0.44118980  0.76014834  0.13000493  1
  N  N66  1  0.22290024  0.87334834  0.87882344  1
  N  N67  1  0.11468682  0.75598100  0.62737286  1
  N  N68  1  0.87229232  0.90052370  0.36962950  1
  N  N69  1  0.78155821  0.75839874  0.13093594  1
  N  N70  1  0.56150429  0.86874269  0.87216294  1
  N  N71  1  0.45049401  0.75214490  0.63156012  1
