# generated using pymatgen
data_Al31B5N36
_symmetry_space_group_name_H-M   'P 1'
_cell_length_a   9.31119313
_cell_length_b   9.20651253
_cell_length_c   10.05856512
_cell_angle_alpha   89.69993931
_cell_angle_beta   90.16669703
_cell_angle_gamma   59.93558838
_symmetry_Int_Tables_number   1
_chemical_formula_structural   Al31B5N36
_chemical_formula_sum   'Al31 B5 N36'
_cell_volume   746.22547156
_cell_formula_units_Z   1
loop_
 _symmetry_equiv_pos_site_id
 _symmetry_equiv_pos_as_xyz
  1  'x, y, z'
loop_
 _atom_site_type_symbol
 _atom_site_label
 _atom_site_symmetry_multiplicity
 _atom_site_fract_x
 _atom_site_fract_y
 _atom_site_fract_z
 _atom_site_occupancy
  Al  Al0  1  0.09747098  0.09506843  0.32309006  1
  Al  Al1  1  0.22350796  0.20768211  0.07181882  1
  Al  Al2  1  0.78504760  0.09708977  0.80948508  1
  Al  Al3  1  0.45159375  0.10067233  0.40041562  1
  Al  Al4  1  0.10702764  0.10106159  0.82130049  1
  Al  Al5  1  0.88425367  0.20356770  0.08731488  1
  Al  Al6  1  0.45779547  0.09202813  0.88884195  1
  Al  Al7  1  0.10683600  0.42906689  0.32402183  1
  Al  Al8  1  0.22027280  0.53510076  0.07307390  1
  Al  Al9  1  0.78499740  0.42137456  0.83682974  1
  Al  Al10  1  0.88438947  0.53549605  0.56799290  1
  Al  Al11  1  0.45706777  0.41071325  0.38753780  1
  Al  Al12  1  0.54972650  0.53133056  0.13630248  1
  Al  Al13  1  0.11735770  0.41838773  0.81604197  1
  Al  Al14  1  0.21743327  0.53235026  0.56706009  1
  Al  Al15  1  0.77963472  0.41796172  0.31877009  1
  Al  Al16  1  0.88845004  0.54056273  0.07065515  1
  Al  Al17  1  0.45364036  0.41597579  0.89045689  1
  Al  Al18  1  0.55968447  0.51880571  0.63642417  1
  Al  Al19  1  0.10267021  0.76815871  0.31695618  1
  Al  Al20  1  0.21987517  0.87495635  0.06560850  1
  Al  Al21  1  0.78914737  0.75713173  0.81860267  1
  Al  Al22  1  0.88922281  0.89138433  0.56043983  1
  Al  Al23  1  0.43268583  0.76688463  0.32533336  1
  Al  Al24  1  0.55077761  0.88541385  0.13850305  1
  Al  Al25  1  0.10884296  0.76096141  0.81604115  1
  Al  Al26  1  0.21857541  0.87824173  0.56831322  1
  Al  Al27  1  0.77734121  0.76745698  0.32296999  1
  Al  Al28  1  0.88041088  0.87867081  0.06923693  1
  Al  Al29  1  0.43868548  0.76438321  0.81961959  1
  Al  Al30  1  0.55916283  0.88336715  0.63469153  1
  B  B31  1  0.90028498  0.20775210  0.61107024  1
  B  B32  1  0.55472495  0.20286426  0.14779032  1
  B  B33  1  0.15602875  0.23969554  0.55495957  1
  B  B34  1  0.77723097  0.09566164  0.30027080  1
  B  B35  1  0.50575506  0.22834529  0.65036627  1
  N  N36  1  0.20095778  0.21257185  0.40834619  1
  N  N37  1  0.11769701  0.09376731  0.13387536  1
  N  N38  1  0.89022081  0.20095035  0.89464688  1
  N  N39  1  0.83694102  0.09625124  0.63279310  1
  N  N40  1  0.56020315  0.19983503  0.30717662  1
  N  N41  1  0.46346276  0.10881783  0.08124554  1
  N  N42  1  0.22377823  0.20179829  0.88289617  1
  N  N43  1  0.09808787  0.12619041  0.62016729  1
  N  N44  1  0.86932766  0.18993087  0.34166095  1
  N  N45  1  0.75917076  0.09831907  0.13795688  1
  N  N46  1  0.54609677  0.21064310  0.80065090  1
  N  N47  1  0.48702009  0.10163240  0.58221752  1
  N  N48  1  0.21641717  0.54139358  0.37848713  1
  N  N49  1  0.11100685  0.42543756  0.13680880  1
  N  N50  1  0.89624254  0.53563166  0.87999085  1
  N  N51  1  0.79836899  0.39798816  0.63076299  1
  N  N52  1  0.54962696  0.53573633  0.33530340  1
  N  N53  1  0.46157930  0.39551657  0.08203335  1
  N  N54  1  0.21884127  0.53754527  0.87867760  1
  N  N55  1  0.11638560  0.40253747  0.62195109  1
  N  N56  1  0.88278005  0.53934385  0.38082341  1
  N  N57  1  0.77753529  0.43197217  0.12383549  1
  N  N58  1  0.55496798  0.53245220  0.83196618  1
  N  N59  1  0.45522712  0.39649806  0.58318867  1
  N  N60  1  0.21516925  0.87401663  0.38253568  1
  N  N61  1  0.10900958  0.76278058  0.12729728  1
  N  N62  1  0.88660815  0.87729502  0.88003515  1
  N  N63  1  0.79383742  0.75773174  0.62552607  1
  N  N64  1  0.54484010  0.88448248  0.33616958  1
  N  N65  1  0.43749407  0.76518892  0.12351531  1
  N  N66  1  0.21842311  0.87493022  0.87419052  1
  N  N67  1  0.11615987  0.75435848  0.62678015  1
  N  N68  1  0.87180165  0.90154095  0.36916891  1
  N  N69  1  0.78170082  0.75929818  0.13106178  1
  N  N70  1  0.55847289  0.87408810  0.83168943  1
  N  N71  1  0.44402206  0.76164164  0.62106886  1
