# generated using pymatgen
data_Al31B5N36
_symmetry_space_group_name_H-M   'P 1'
_cell_length_a   9.32667129
_cell_length_b   9.18443529
_cell_length_c   9.95073870
_cell_angle_alpha   90.07459345
_cell_angle_beta   89.87808868
_cell_angle_gamma   60.25346770
_symmetry_Int_Tables_number   1
_chemical_formula_structural   Al31B5N36
_chemical_formula_sum   'Al31 B5 N36'
_cell_volume   740.05854482
_cell_formula_units_Z   1
loop_
 _symmetry_equiv_pos_site_id
 _symmetry_equiv_pos_as_xyz
  1  'x, y, z'
loop_
 _atom_site_type_symbol
 _atom_site_label
 _atom_site_symmetry_multiplicity
 _atom_site_fract_x
 _atom_site_fract_y
 _atom_site_fract_z
 _atom_site_occupancy
  Al  Al0  1  0.09658666  0.09960516  0.33546400  1
  Al  Al1  1  0.22354942  0.20790451  0.07776635  1
  Al  Al2  1  0.79043496  0.09494670  0.80421810  1
  Al  Al3  1  0.45125925  0.10172071  0.40545024  1
  Al  Al4  1  0.11859808  0.09701123  0.81418374  1
  Al  Al5  1  0.88675623  0.20542906  0.07464440  1
  Al  Al6  1  0.45975536  0.09160330  0.89350835  1
  Al  Al7  1  0.10419941  0.42927845  0.32440428  1
  Al  Al8  1  0.22273200  0.53456459  0.07473322  1
  Al  Al9  1  0.78277426  0.41675462  0.81355602  1
  Al  Al10  1  0.88656114  0.52923453  0.56793944  1
  Al  Al11  1  0.44200526  0.42709247  0.32416106  1
  Al  Al12  1  0.55986150  0.53558394  0.07332402  1
  Al  Al13  1  0.11750057  0.41549147  0.81715808  1
  Al  Al14  1  0.22168672  0.52822840  0.56699532  1
  Al  Al15  1  0.76876599  0.42887096  0.32220310  1
  Al  Al16  1  0.88888823  0.53749106  0.06883782  1
  Al  Al17  1  0.44508087  0.42614567  0.84985942  1
  Al  Al18  1  0.55217591  0.52683654  0.56912319  1
  Al  Al19  1  0.10126311  0.77084978  0.31819068  1
  Al  Al20  1  0.21930033  0.87640154  0.06999592  1
  Al  Al21  1  0.78901963  0.75566258  0.82039882  1
  Al  Al22  1  0.89039496  0.88185512  0.56159433  1
  Al  Al23  1  0.43332073  0.76556263  0.32387846  1
  Al  Al24  1  0.55217985  0.88562329  0.13980570  1
  Al  Al25  1  0.11036207  0.76118954  0.81818815  1
  Al  Al26  1  0.22567745  0.87633948  0.57253410  1
  Al  Al27  1  0.77657467  0.76715131  0.32363854  1
  Al  Al28  1  0.88223800  0.88023547  0.07189310  1
  Al  Al29  1  0.44370672  0.75726402  0.82128882  1
  Al  Al30  1  0.55759798  0.88277132  0.63764720  1
  B  B31  1  0.83254080  0.22186613  0.54644012  1
  B  B32  1  0.55890526  0.20155895  0.15490769  1
  B  B33  1  0.16990010  0.22766339  0.56042485  1
  B  B34  1  0.77130489  0.09496593  0.31224554  1
  B  B35  1  0.50538989  0.22778912  0.65707681  1
  N  N36  1  0.20616693  0.21398279  0.40602033  1
  N  N37  1  0.10903313  0.09841050  0.14212025  1
  N  N38  1  0.89603868  0.20096906  0.88445034  1
  N  N39  1  0.82618227  0.09493379  0.62189770  1
  N  N40  1  0.56880119  0.19327992  0.31574830  1
  N  N41  1  0.46624892  0.11058919  0.08745145  1
  N  N42  1  0.22736788  0.20175578  0.88946395  1
  N  N43  1  0.15336131  0.09868820  0.62794320  1
  N  N44  1  0.85883486  0.20297631  0.38891209  1
  N  N45  1  0.76727900  0.10297677  0.14712040  1
  N  N46  1  0.55606566  0.20200072  0.80823533  1
  N  N47  1  0.48945569  0.10101630  0.58668166  1
  N  N48  1  0.21563141  0.54246775  0.37561095  1
  N  N49  1  0.10835590  0.42794647  0.13578766  1
  N  N50  1  0.89364782  0.53090131  0.87496797  1
  N  N51  1  0.78200827  0.39819519  0.61496366  1
  N  N52  1  0.54810927  0.54211057  0.37845508  1
  N  N53  1  0.45600766  0.40573487  0.11786640  1
  N  N54  1  0.21922037  0.53694484  0.88134447  1
  N  N55  1  0.11460147  0.40225885  0.62285812  1
  N  N56  1  0.88242216  0.54114520  0.37979922  1
  N  N57  1  0.77776619  0.42835281  0.13312737  1
  N  N58  1  0.56320129  0.53459583  0.88104764  1
  N  N59  1  0.44431545  0.40632213  0.61640547  1
  N  N60  1  0.21508332  0.87514272  0.38341671  1
  N  N61  1  0.10847347  0.76338321  0.12806877  1
  N  N62  1  0.88811348  0.87783156  0.87996801  1
  N  N63  1  0.79202775  0.75355711  0.62587484  1
  N  N64  1  0.54590159  0.88395234  0.33877142  1
  N  N65  1  0.43900178  0.76225600  0.12815565  1
  N  N66  1  0.22234915  0.87263647  0.87798218  1
  N  N67  1  0.11526863  0.75475384  0.62677447  1
  N  N68  1  0.87125071  0.90212662  0.36927199  1
  N  N69  1  0.78171451  0.75904397  0.12872706  1
  N  N70  1  0.55933388  0.87253197  0.83691197  1
  N  N71  1  0.44978145  0.75132971  0.62768604  1
