# generated using pymatgen
data_Al31B5N36
_symmetry_space_group_name_H-M   'P 1'
_cell_length_a   9.38230524
_cell_length_b   9.12349769
_cell_length_c   10.11009027
_cell_angle_alpha   90.18076104
_cell_angle_beta   90.50549073
_cell_angle_gamma   60.76743474
_symmetry_Int_Tables_number   1
_chemical_formula_structural   Al31B5N36
_chemical_formula_sum   'Al31 B5 N36'
_cell_volume   755.17239668
_cell_formula_units_Z   1
loop_
 _symmetry_equiv_pos_site_id
 _symmetry_equiv_pos_as_xyz
  1  'x, y, z'
loop_
 _atom_site_type_symbol
 _atom_site_label
 _atom_site_symmetry_multiplicity
 _atom_site_fract_x
 _atom_site_fract_y
 _atom_site_fract_z
 _atom_site_occupancy
  Al  Al0  1  0.12108875  0.09075938  0.33690274  1
  Al  Al1  1  0.21295758  0.21270135  0.07897135  1
  Al  Al2  1  0.77634941  0.09379288  0.88213410  1
  Al  Al3  1  0.44718413  0.10140027  0.41052294  1
  Al  Al4  1  0.11369938  0.09639439  0.81046137  1
  Al  Al5  1  0.88339710  0.20222939  0.14839827  1
  Al  Al6  1  0.44546523  0.09703047  0.89478833  1
  Al  Al7  1  0.11321596  0.42775928  0.33603945  1
  Al  Al8  1  0.21005910  0.54291704  0.07998499  1
  Al  Al9  1  0.77679155  0.42262357  0.89353490  1
  Al  Al10  1  0.88102441  0.53165027  0.64584107  1
  Al  Al11  1  0.44603413  0.41906332  0.39678768  1
  Al  Al12  1  0.55441263  0.52928641  0.14829742  1
  Al  Al13  1  0.11331530  0.41993773  0.82612468  1
  Al  Al14  1  0.21705587  0.53057575  0.58175684  1
  Al  Al15  1  0.77762661  0.41648681  0.40079190  1
  Al  Al16  1  0.87769918  0.54479384  0.15166667  1
  Al  Al17  1  0.44613840  0.41951041  0.89843476  1
  Al  Al18  1  0.55393670  0.52644195  0.65205889  1
  Al  Al19  1  0.11760654  0.76261045  0.33224223  1
  Al  Al20  1  0.21251670  0.87981453  0.08012826  1
  Al  Al21  1  0.77823921  0.76239740  0.89948311  1
  Al  Al22  1  0.89210802  0.87633721  0.63863102  1
  Al  Al23  1  0.45831874  0.75357475  0.39804801  1
  Al  Al24  1  0.55187779  0.88434581  0.15102409  1
  Al  Al25  1  0.11354361  0.76035398  0.82762918  1
  Al  Al26  1  0.22996797  0.87391047  0.57945938  1
  Al  Al27  1  0.77605670  0.77267707  0.40063779  1
  Al  Al28  1  0.87692096  0.89280843  0.14844782  1
  Al  Al29  1  0.44649690  0.76035135  0.89954912  1
  Al  Al30  1  0.56469867  0.87513304  0.65123134  1
  B  B31  1  0.84293147  0.22524174  0.64547897  1
  B  B32  1  0.48016055  0.24161992  0.16114438  1
  B  B33  1  0.16842023  0.22859827  0.56819080  1
  B  B34  1  0.85703804  0.06804170  0.41984892  1
  B  B35  1  0.50531169  0.22616438  0.66104976  1
  N  N36  1  0.20615435  0.21591802  0.42004103  1
  N  N37  1  0.11959730  0.09577888  0.15062882  1
  N  N38  1  0.87388938  0.20988440  0.79652268  1
  N  N39  1  0.84398205  0.08758359  0.56520836  1
  N  N40  1  0.49680768  0.23079340  0.30206233  1
  N  N41  1  0.44905121  0.11289450  0.08663051  1
  N  N42  1  0.21203089  0.20677560  0.89430875  1
  N  N43  1  0.16155492  0.09308207  0.63327623  1
  N  N44  1  0.88437518  0.19090331  0.34095223  1
  N  N45  1  0.79969140  0.08990995  0.06126215  1
  N  N46  1  0.54460847  0.21044364  0.81191483  1
  N  N47  1  0.49946626  0.09307842  0.59090838  1
  N  N48  1  0.21248395  0.54722873  0.39698418  1
  N  N49  1  0.10950332  0.42814236  0.14698800  1
  N  N50  1  0.88210801  0.53950114  0.83616220  1
  N  N51  1  0.77990855  0.40148578  0.59018254  1
  N  N52  1  0.55801173  0.53015461  0.33794924  1
  N  N53  1  0.44673418  0.40576608  0.08966583  1
  N  N54  1  0.21342877  0.53993406  0.88982226  1
  N  N55  1  0.11612740  0.40083718  0.63344264  1
  N  N56  1  0.87833397  0.54324456  0.34306154  1
  N  N57  1  0.77656214  0.42514114  0.08445677  1
  N  N58  1  0.55207348  0.53597336  0.84003335  1
  N  N59  1  0.45394386  0.39687826  0.59428837  1
  N  N60  1  0.22788104  0.87060397  0.39164828  1
  N  N61  1  0.11253335  0.76025270  0.14467068  1
  N  N62  1  0.88209637  0.87252253  0.82611215  1
  N  N63  1  0.78571028  0.75423741  0.58582084  1
  N  N64  1  0.55418238  0.87980699  0.33967160  1
  N  N65  1  0.44774915  0.75890833  0.09073691  1
  N  N66  1  0.21261262  0.88108650  0.88939422  1
  N  N67  1  0.12788357  0.75192811  0.64081223  1
  N  N68  1  0.88119457  0.90529608  0.35176447  1
  N  N69  1  0.77487487  0.76821486  0.09120242  1
  N  N70  1  0.55560014  0.87281074  0.84008864  1
  N  N71  1  0.46458023  0.74773329  0.58884855  1
