# generated using pymatgen
data_Al31B5N36
_symmetry_space_group_name_H-M   'P 1'
_cell_length_a   9.32253242
_cell_length_b   9.23290171
_cell_length_c   10.05327613
_cell_angle_alpha   89.51668618
_cell_angle_beta   90.25866158
_cell_angle_gamma   59.77837973
_symmetry_Int_Tables_number   1
_chemical_formula_structural   Al31B5N36
_chemical_formula_sum   'Al31 B5 N36'
_cell_volume   747.65007609
_cell_formula_units_Z   1
loop_
 _symmetry_equiv_pos_site_id
 _symmetry_equiv_pos_as_xyz
  1  'x, y, z'
loop_
 _atom_site_type_symbol
 _atom_site_label
 _atom_site_symmetry_multiplicity
 _atom_site_fract_x
 _atom_site_fract_y
 _atom_site_fract_z
 _atom_site_occupancy
  Al  Al0  1  0.10154531  0.09428223  0.32044287  1
  Al  Al1  1  0.22473907  0.20705424  0.07034904  1
  Al  Al2  1  0.78541271  0.09916776  0.80693850  1
  Al  Al3  1  0.44952873  0.10231793  0.40100387  1
  Al  Al4  1  0.10493083  0.10214795  0.82166231  1
  Al  Al5  1  0.88512221  0.20130622  0.10088882  1
  Al  Al6  1  0.45630822  0.09333625  0.88784123  1
  Al  Al7  1  0.10598068  0.42968174  0.32299859  1
  Al  Al8  1  0.22182240  0.53536617  0.07223132  1
  Al  Al9  1  0.77376000  0.42556089  0.89716297  1
  Al  Al10  1  0.88826867  0.53810428  0.56713267  1
  Al  Al11  1  0.45276441  0.41144299  0.38685911  1
  Al  Al12  1  0.55655231  0.52652517  0.14433836  1
  Al  Al13  1  0.11560262  0.41892538  0.81554130  1
  Al  Al14  1  0.21697715  0.53391208  0.56748905  1
  Al  Al15  1  0.77586429  0.40879628  0.38187777  1
  Al  Al16  1  0.89265867  0.53974801  0.07781703  1
  Al  Al17  1  0.45407032  0.41600638  0.88949238  1
  Al  Al18  1  0.56588097  0.51431900  0.63558528  1
  Al  Al19  1  0.10258714  0.76939229  0.31547865  1
  Al  Al20  1  0.22408506  0.87296041  0.06449016  1
  Al  Al21  1  0.78280127  0.75912594  0.84794591  1
  Al  Al22  1  0.89037431  0.89371010  0.55904312  1
  Al  Al23  1  0.43354283  0.76615768  0.32565039  1
  Al  Al24  1  0.55295147  0.88458888  0.14020334  1
  Al  Al25  1  0.10874973  0.76112103  0.81523368  1
  Al  Al26  1  0.22093144  0.87747100  0.56836925  1
  Al  Al27  1  0.77326550  0.77097787  0.34343299  1
  Al  Al28  1  0.88220684  0.88080023  0.06897067  1
  Al  Al29  1  0.44010762  0.76130935  0.81545997  1
  Al  Al30  1  0.56337272  0.88247175  0.63536433  1
  B  B31  1  0.90139904  0.20682076  0.60472525  1
  B  B32  1  0.55295469  0.20327198  0.14628408  1
  B  B33  1  0.15682934  0.23984731  0.55490904  1
  B  B34  1  0.77531221  0.09437412  0.29557033  1
  B  B35  1  0.50304068  0.22958204  0.65025517  1
  N  N36  1  0.20005101  0.21348843  0.40799321  1
  N  N37  1  0.12243367  0.09159238  0.13290591  1
  N  N38  1  0.89274271  0.19501368  0.89444065  1
  N  N39  1  0.83527833  0.09902005  0.62913239  1
  N  N40  1  0.55864032  0.20056393  0.30695511  1
  N  N41  1  0.46295435  0.10890807  0.08053049  1
  N  N42  1  0.22321596  0.20187542  0.88161899  1
  N  N43  1  0.09665121  0.12776664  0.61924717  1
  N  N44  1  0.87035537  0.19169214  0.32362490  1
  N  N45  1  0.75557714  0.09766858  0.13635220  1
  N  N46  1  0.54574134  0.21062099  0.80014018  1
  N  N47  1  0.48221654  0.10381432  0.58340564  1
  N  N48  1  0.21386928  0.54321884  0.37830220  1
  N  N49  1  0.11464822  0.42369878  0.13684458  1
  N  N50  1  0.89773946  0.53287353  0.87845249  1
  N  N51  1  0.79448612  0.39525667  0.58141877  1
  N  N52  1  0.55195855  0.53279577  0.33749119  1
  N  N53  1  0.46235240  0.39674416  0.08266418  1
  N  N54  1  0.21902574  0.53720515  0.87771395  1
  N  N55  1  0.11646828  0.40293287  0.62157841  1
  N  N56  1  0.88360247  0.53870230  0.37541226  1
  N  N57  1  0.77031455  0.43450226  0.08771628  1
  N  N58  1  0.56035550  0.52719448  0.82607083  1
  N  N59  1  0.45420707  0.39711901  0.58269049  1
  N  N60  1  0.21548976  0.87414075  0.38249472  1
  N  N61  1  0.11066393  0.76312873  0.12629321  1
  N  N62  1  0.88738398  0.87911002  0.87838031  1
  N  N63  1  0.78994855  0.76321082  0.60414877  1
  N  N64  1  0.54287720  0.88672299  0.33581303  1
  N  N65  1  0.44043615  0.76208012  0.12698042  1
  N  N66  1  0.22112760  0.87295070  0.87276116  1
  N  N67  1  0.11653605  0.75571415  0.62602009  1
  N  N68  1  0.87207288  0.90545882  0.36601526  1
  N  N69  1  0.77948580  0.76211433  0.11782967  1
  N  N70  1  0.55657758  0.87470132  0.83068661  1
  N  N71  1  0.44720682  0.76020803  0.61946216  1
