# generated using pymatgen
data_Al31B5N36
_symmetry_space_group_name_H-M   'P 1'
_cell_length_a   9.39427216
_cell_length_b   9.14505811
_cell_length_c   10.10100794
_cell_angle_alpha   89.77426937
_cell_angle_beta   90.31809597
_cell_angle_gamma   60.78521176
_symmetry_Int_Tables_number   1
_chemical_formula_structural   Al31B5N36
_chemical_formula_sum   'Al31 B5 N36'
_cell_volume   757.36953879
_cell_formula_units_Z   1
loop_
 _symmetry_equiv_pos_site_id
 _symmetry_equiv_pos_as_xyz
  1  'x, y, z'
loop_
 _atom_site_type_symbol
 _atom_site_label
 _atom_site_symmetry_multiplicity
 _atom_site_fract_x
 _atom_site_fract_y
 _atom_site_fract_z
 _atom_site_occupancy
  Al  Al0  1  0.12070955  0.09060430  0.32649981  1
  Al  Al1  1  0.21241366  0.21225220  0.06858887  1
  Al  Al2  1  0.77317728  0.09882557  0.86461337  1
  Al  Al3  1  0.44781374  0.10151053  0.39848593  1
  Al  Al4  1  0.11535401  0.09547503  0.79996846  1
  Al  Al5  1  0.88030187  0.19867921  0.14164871  1
  Al  Al6  1  0.44591092  0.09678953  0.88399379  1
  Al  Al7  1  0.11347299  0.42840750  0.32546569  1
  Al  Al8  1  0.21257783  0.54011442  0.06926159  1
  Al  Al9  1  0.77779958  0.42120055  0.88717860  1
  Al  Al10  1  0.88167599  0.53032347  0.63644890  1
  Al  Al11  1  0.44508216  0.42061678  0.38470018  1
  Al  Al12  1  0.55516078  0.52949391  0.13834564  1
  Al  Al13  1  0.11515470  0.41825851  0.81505659  1
  Al  Al14  1  0.21731055  0.53068957  0.56903314  1
  Al  Al15  1  0.77806769  0.41653320  0.39125021  1
  Al  Al16  1  0.87804290  0.54378012  0.14176257  1
  Al  Al17  1  0.44729877  0.41866189  0.88730805  1
  Al  Al18  1  0.55291620  0.52846924  0.64109566  1
  Al  Al19  1  0.10750455  0.76867581  0.32096042  1
  Al  Al20  1  0.21504374  0.88033184  0.07030915  1
  Al  Al21  1  0.77388605  0.75615936  0.88001717  1
  Al  Al22  1  0.89738289  0.87408921  0.60763574  1
  Al  Al23  1  0.45814743  0.75388812  0.38548676  1
  Al  Al24  1  0.55548972  0.88455116  0.14000637  1
  Al  Al25  1  0.11565896  0.75822078  0.81514622  1
  Al  Al26  1  0.23022371  0.87400451  0.56671332  1
  Al  Al27  1  0.77674696  0.77334112  0.39414718  1
  Al  Al28  1  0.89176826  0.87696992  0.07092640  1
  Al  Al29  1  0.44586005  0.75981864  0.88902210  1
  Al  Al30  1  0.56136837  0.87689273  0.63926495  1
  B  B31  1  0.84036476  0.23350291  0.64129046  1
  B  B32  1  0.48121414  0.24156902  0.15024654  1
  B  B33  1  0.16927535  0.22797461  0.55681323  1
  B  B34  1  0.85802174  0.07033301  0.42252931  1
  B  B35  1  0.50522937  0.22695439  0.64808099  1
  N  N36  1  0.20639957  0.21564911  0.40835686  1
  N  N37  1  0.11698745  0.09595992  0.13973825  1
  N  N38  1  0.87600789  0.21357194  0.78977641  1
  N  N39  1  0.83874351  0.09867840  0.56663279  1
  N  N40  1  0.49664209  0.23218478  0.29102828  1
  N  N41  1  0.44933254  0.11339782  0.07600130  1
  N  N42  1  0.21353239  0.20527439  0.88358708  1
  N  N43  1  0.16318092  0.09195908  0.62222635  1
  N  N44  1  0.88454086  0.18863475  0.33497337  1
  N  N45  1  0.79199397  0.09818753  0.04600226  1
  N  N46  1  0.54460776  0.21058270  0.79920528  1
  N  N47  1  0.49917077  0.09427124  0.57866167  1
  N  N48  1  0.21179137  0.54936455  0.38352258  1
  N  N49  1  0.10972512  0.42744611  0.13609450  1
  N  N50  1  0.88466124  0.53426140  0.82574703  1
  N  N51  1  0.77833113  0.40593995  0.58121737  1
  N  N52  1  0.55887238  0.53035105  0.32762409  1
  N  N53  1  0.44744794  0.40641614  0.07881542  1
  N  N54  1  0.21529408  0.53774757  0.87856951  1
  N  N55  1  0.11685718  0.40032728  0.62178790  1
  N  N56  1  0.87860067  0.54496239  0.33364080  1
  N  N57  1  0.77713485  0.42335913  0.07778390  1
  N  N58  1  0.55321960  0.53575140  0.83008418  1
  N  N59  1  0.45338644  0.39844063  0.58255417  1
  N  N60  1  0.22794531  0.86929243  0.37785385  1
  N  N61  1  0.10935202  0.76163223  0.12996556  1
  N  N62  1  0.88708518  0.86832174  0.83181161  1
  N  N63  1  0.78265558  0.75300520  0.58200958  1
  N  N64  1  0.55656911  0.87960882  0.32884035  1
  N  N65  1  0.44876043  0.75964736  0.08084790  1
  N  N66  1  0.21299746  0.87983941  0.87892294  1
  N  N67  1  0.12910637  0.75103435  0.63034818  1
  N  N68  1  0.89127625  0.89806951  0.38346882  1
  N  N69  1  0.77395252  0.76296406  0.07276512  1
  N  N70  1  0.55212693  0.87400854  0.82748104  1
  N  N71  1  0.46288577  0.74898821  0.57677988  1
