# generated using pymatgen
data_Al31B5N36
_symmetry_space_group_name_H-M   'P 1'
_cell_length_a   9.28811453
_cell_length_b   9.19699139
_cell_length_c   10.12214060
_cell_angle_alpha   89.46816480
_cell_angle_beta   90.13237320
_cell_angle_gamma   59.82613788
_symmetry_Int_Tables_number   1
_chemical_formula_structural   Al31B5N36
_chemical_formula_sum   'Al31 B5 N36'
_cell_volume   747.44623293
_cell_formula_units_Z   1
loop_
 _symmetry_equiv_pos_site_id
 _symmetry_equiv_pos_as_xyz
  1  'x, y, z'
loop_
 _atom_site_type_symbol
 _atom_site_label
 _atom_site_symmetry_multiplicity
 _atom_site_fract_x
 _atom_site_fract_y
 _atom_site_fract_z
 _atom_site_occupancy
  Al  Al0  1  0.10022496  0.09479734  0.32005826  1
  Al  Al1  1  0.22413880  0.20756098  0.07140930  1
  Al  Al2  1  0.78446292  0.09881948  0.80735000  1
  Al  Al3  1  0.45221009  0.10066231  0.40130104  1
  Al  Al4  1  0.10349683  0.10286510  0.82245062  1
  Al  Al5  1  0.88442730  0.20243264  0.09774034  1
  Al  Al6  1  0.45753396  0.09192988  0.88900611  1
  Al  Al7  1  0.11325005  0.42649766  0.32611429  1
  Al  Al8  1  0.22074354  0.53518367  0.07277466  1
  Al  Al9  1  0.77722116  0.42984570  0.89664537  1
  Al  Al10  1  0.88298750  0.53689180  0.63521595  1
  Al  Al11  1  0.45511818  0.41113990  0.38755258  1
  Al  Al12  1  0.55636143  0.52805110  0.14450013  1
  Al  Al13  1  0.12246033  0.41592302  0.81620848  1
  Al  Al14  1  0.21688325  0.53451214  0.56664203  1
  Al  Al15  1  0.77892329  0.41139314  0.38656330  1
  Al  Al16  1  0.88042903  0.54203342  0.14571096  1
  Al  Al17  1  0.45514264  0.41622012  0.89100124  1
  Al  Al18  1  0.56466178  0.51503156  0.63651763  1
  Al  Al19  1  0.10114305  0.77056543  0.31573465  1
  Al  Al20  1  0.22464063  0.87275046  0.06478273  1
  Al  Al21  1  0.77742965  0.75401093  0.89013975  1
  Al  Al22  1  0.89147412  0.89594481  0.55886579  1
  Al  Al23  1  0.43591498  0.76534196  0.33429292  1
  Al  Al24  1  0.55678265  0.88195845  0.14239912  1
  Al  Al25  1  0.10583067  0.76174604  0.81574127  1
  Al  Al26  1  0.21954300  0.87922031  0.57012685  1
  Al  Al27  1  0.77116245  0.76676288  0.38732122  1
  Al  Al28  1  0.88412388  0.88157007  0.06764119  1
  Al  Al29  1  0.44024143  0.76171185  0.81736409  1
  Al  Al30  1  0.56774431  0.88102933  0.63890730  1
  B  B31  1  0.90121482  0.20783641  0.60434825  1
  B  B32  1  0.55297445  0.20321997  0.14651838  1
  B  B33  1  0.15513680  0.24197882  0.55449149  1
  B  B34  1  0.77548002  0.09421349  0.29626175  1
  B  B35  1  0.50466465  0.22906682  0.64985816  1
  N  N36  1  0.20105419  0.21215644  0.40941342  1
  N  N37  1  0.12102664  0.09177453  0.13351923  1
  N  N38  1  0.89083593  0.19688057  0.89468169  1
  N  N39  1  0.83322973  0.10142970  0.62997021  1
  N  N40  1  0.55793910  0.20120364  0.30630235  1
  N  N41  1  0.46416460  0.10739421  0.08090734  1
  N  N42  1  0.22294661  0.20128021  0.88385012  1
  N  N43  1  0.09529313  0.12958413  0.62031845  1
  N  N44  1  0.86860185  0.19402603  0.32562496  1
  N  N45  1  0.75668333  0.09657439  0.13766960  1
  N  N46  1  0.54376794  0.21189146  0.79971887  1
  N  N47  1  0.48852849  0.10073696  0.58230012  1
  N  N48  1  0.21533681  0.54463232  0.37982438  1
  N  N49  1  0.11663935  0.42266692  0.13863262  1
  N  N50  1  0.88730255  0.53593572  0.82371812  1
  N  N51  1  0.79534811  0.39833463  0.57955745  1
  N  N52  1  0.55452024  0.53233599  0.33727329  1
  N  N53  1  0.46323138  0.39674611  0.08283003  1
  N  N54  1  0.21834152  0.53803388  0.88028743  1
  N  N55  1  0.12171523  0.40103577  0.62064465  1
  N  N56  1  0.87875919  0.54034458  0.33496926  1
  N  N57  1  0.77141176  0.43739152  0.08253156  1
  N  N58  1  0.56098644  0.52726475  0.82578738  1
  N  N59  1  0.45514352  0.39715684  0.58215917  1
  N  N60  1  0.21461154  0.87513661  0.38483883  1
  N  N61  1  0.10996142  0.76312371  0.12769923  1
  N  N62  1  0.88555001  0.87884995  0.87675565  1
  N  N63  1  0.78724886  0.75875943  0.57579830  1
  N  N64  1  0.54841084  0.88411691  0.33362282  1
  N  N65  1  0.44151398  0.76240542  0.12504014  1
  N  N66  1  0.21983549  0.87331488  0.87287628  1
  N  N67  1  0.11495092  0.75599920  0.62762646  1
  N  N68  1  0.87090670  0.90543535  0.36582027  1
  N  N69  1  0.77511574  0.75805116  0.07962189  1
  N  N70  1  0.55967397  0.87358783  0.82808332  1
  N  N71  1  0.44800321  0.76069123  0.61753791  1
