# generated using pymatgen
data_Al31B5N36
_symmetry_space_group_name_H-M   'P 1'
_cell_length_a   9.28581097
_cell_length_b   9.16078526
_cell_length_c   9.92106145
_cell_angle_alpha   89.97164348
_cell_angle_beta   89.50539966
_cell_angle_gamma   60.16363706
_symmetry_Int_Tables_number   1
_chemical_formula_structural   Al31B5N36
_chemical_formula_sum   'Al31 B5 N36'
_cell_volume   732.03984357
_cell_formula_units_Z   1
loop_
 _symmetry_equiv_pos_site_id
 _symmetry_equiv_pos_as_xyz
  1  'x, y, z'
loop_
 _atom_site_type_symbol
 _atom_site_label
 _atom_site_symmetry_multiplicity
 _atom_site_fract_x
 _atom_site_fract_y
 _atom_site_fract_z
 _atom_site_occupancy
  Al  Al0  1  0.09766336  0.09858674  0.32269247  1
  Al  Al1  1  0.23170440  0.20383685  0.06316250  1
  Al  Al2  1  0.78488417  0.09661608  0.80565850  1
  Al  Al3  1  0.44124687  0.09822773  0.33259583  1
  Al  Al4  1  0.11919916  0.09692735  0.80253047  1
  Al  Al5  1  0.88681806  0.20370147  0.06265760  1
  Al  Al6  1  0.44893650  0.09422835  0.80115288  1
  Al  Al7  1  0.10688638  0.42942359  0.30974912  1
  Al  Al8  1  0.22891476  0.53009742  0.05802725  1
  Al  Al9  1  0.78125806  0.41750859  0.80279615  1
  Al  Al10  1  0.88985286  0.52777132  0.55442455  1
  Al  Al11  1  0.44378359  0.43010521  0.31164674  1
  Al  Al12  1  0.55749405  0.53087825  0.05832110  1
  Al  Al13  1  0.11580613  0.41816341  0.80520626  1
  Al  Al14  1  0.22626402  0.52525770  0.55797964  1
  Al  Al15  1  0.77042923  0.42851548  0.30923751  1
  Al  Al16  1  0.88925575  0.53677075  0.05612289  1
  Al  Al17  1  0.44478940  0.42819374  0.80993133  1
  Al  Al18  1  0.55213516  0.53413723  0.55721275  1
  Al  Al19  1  0.10470163  0.76767433  0.30798705  1
  Al  Al20  1  0.22116464  0.87526800  0.05936321  1
  Al  Al21  1  0.78038847  0.76067555  0.80701670  1
  Al  Al22  1  0.88246353  0.88573578  0.55212038  1
  Al  Al23  1  0.44025614  0.76586491  0.30727011  1
  Al  Al24  1  0.55570022  0.88146952  0.06024462  1
  Al  Al25  1  0.11122001  0.76232817  0.80715706  1
  Al  Al26  1  0.22763412  0.87688616  0.55938144  1
  Al  Al27  1  0.77230701  0.76912225  0.30678302  1
  Al  Al28  1  0.88435475  0.87844809  0.06131878  1
  Al  Al29  1  0.44754565  0.76123759  0.81070716  1
  Al  Al30  1  0.56123376  0.87716467  0.56114577  1
  B  B31  1  0.81960899  0.23107057  0.53475190  1
  B  B32  1  0.55913083  0.20182827  0.15500560  1
  B  B33  1  0.17605695  0.22461180  0.54705998  1
  B  B34  1  0.77376767  0.09324013  0.30588356  1
  B  B35  1  0.55945295  0.20680721  0.63325504  1
  N  N36  1  0.20927575  0.21190120  0.39171733  1
  N  N37  1  0.10849975  0.09885535  0.12896029  1
  N  N38  1  0.89861413  0.19979624  0.87084544  1
  N  N39  1  0.76595133  0.12114008  0.60774667  1
  N  N40  1  0.57719937  0.19583012  0.31914422  1
  N  N41  1  0.45253621  0.10626762  0.13128374  1
  N  N42  1  0.23183661  0.20083513  0.87323817  1
  N  N43  1  0.14463146  0.10119218  0.61358864  1
  N  N44  1  0.86113866  0.20095678  0.38233532  1
  N  N45  1  0.76688983  0.10139836  0.13925136  1
  N  N46  1  0.56362831  0.20434825  0.82999561  1
  N  N47  1  0.48299363  0.09907249  0.61063059  1
  N  N48  1  0.21899559  0.54011063  0.36794780  1
  N  N49  1  0.10947902  0.42771239  0.11981417  1
  N  N50  1  0.89107622  0.53309992  0.86162045  1
  N  N51  1  0.78249289  0.39782882  0.60291885  1
  N  N52  1  0.55004803  0.54379445  0.36819991  1
  N  N53  1  0.45471850  0.40559673  0.11888131  1
  N  N54  1  0.22186094  0.53703729  0.86443077  1
  N  N55  1  0.11669980  0.40082883  0.61010974  1
  N  N56  1  0.88434430  0.54089993  0.36553690  1
  N  N57  1  0.77672863  0.42715674  0.11976987  1
  N  N58  1  0.55992656  0.53581927  0.86626534  1
  N  N59  1  0.45299569  0.40661981  0.61372324  1
  N  N60  1  0.21962499  0.87331735  0.36961860  1
  N  N61  1  0.11130796  0.75977462  0.11658282  1
  N  N62  1  0.88961888  0.87484623  0.86784593  1
  N  N63  1  0.78764915  0.75342071  0.61501281  1
  N  N64  1  0.55395150  0.87107339  0.37133114  1
  N  N65  1  0.44413500  0.76203600  0.11585463  1
  N  N66  1  0.22361700  0.87323824  0.86666597  1
  N  N67  1  0.11022902  0.76233562  0.61450015  1
  N  N68  1  0.87298161  0.90003482  0.35965410  1
  N  N69  1  0.77734155  0.76130313  0.11621685  1
  N  N70  1  0.55857182  0.87304108  0.86833182  1
  N  N71  1  0.45156907  0.75721500  0.61975563  1
