# generated using pymatgen
data_Al31B5N36
_symmetry_space_group_name_H-M   'P 1'
_cell_length_a   9.26884652
_cell_length_b   9.15209415
_cell_length_c   9.85937665
_cell_angle_alpha   89.97279673
_cell_angle_beta   89.40171702
_cell_angle_gamma   60.09380089
_symmetry_Int_Tables_number   1
_chemical_formula_structural   Al31B5N36
_chemical_formula_sum   'Al31 B5 N36'
_cell_volume   724.94629123
_cell_formula_units_Z   1
loop_
 _symmetry_equiv_pos_site_id
 _symmetry_equiv_pos_as_xyz
  1  'x, y, z'
loop_
 _atom_site_type_symbol
 _atom_site_label
 _atom_site_symmetry_multiplicity
 _atom_site_fract_x
 _atom_site_fract_y
 _atom_site_fract_z
 _atom_site_occupancy
  Al  Al0  1  0.09765215  0.09875034  0.32353100  1
  Al  Al1  1  0.22918344  0.20452278  0.06285414  1
  Al  Al2  1  0.77506141  0.10059372  0.80869974  1
  Al  Al3  1  0.44559537  0.10108577  0.32705809  1
  Al  Al4  1  0.11894853  0.09681175  0.80244840  1
  Al  Al5  1  0.88389855  0.20403818  0.06377288  1
  Al  Al6  1  0.45532405  0.09778214  0.80753962  1
  Al  Al7  1  0.10808828  0.42930312  0.31022921  1
  Al  Al8  1  0.22699193  0.53200697  0.05769638  1
  Al  Al9  1  0.78197128  0.41687472  0.80308840  1
  Al  Al10  1  0.89051074  0.52790132  0.55469155  1
  Al  Al11  1  0.45039526  0.41883486  0.31198136  1
  Al  Al12  1  0.55708679  0.53236686  0.05798286  1
  Al  Al13  1  0.11672100  0.41734439  0.80484524  1
  Al  Al14  1  0.22764754  0.52493488  0.55824888  1
  Al  Al15  1  0.77079880  0.42876177  0.30955468  1
  Al  Al16  1  0.88917471  0.53686385  0.05615505  1
  Al  Al17  1  0.45074740  0.41658852  0.81174370  1
  Al  Al18  1  0.55246698  0.53347723  0.55730597  1
  Al  Al19  1  0.10508478  0.76716188  0.30849659  1
  Al  Al20  1  0.22016377  0.87595484  0.05913136  1
  Al  Al21  1  0.78072612  0.76020053  0.80697063  1
  Al  Al22  1  0.88322999  0.88556877  0.55307140  1
  Al  Al23  1  0.44015240  0.76552385  0.30812120  1
  Al  Al24  1  0.55579737  0.88048141  0.05996292  1
  Al  Al25  1  0.11130577  0.76206536  0.80738076  1
  Al  Al26  1  0.22774018  0.87663317  0.55930098  1
  Al  Al27  1  0.77224958  0.76918336  0.30766011  1
  Al  Al28  1  0.88113279  0.88107453  0.06285793  1
  Al  Al29  1  0.44753247  0.76053042  0.81038402  1
  Al  Al30  1  0.56052151  0.87862238  0.56205649  1
  B  B31  1  0.82345657  0.23140619  0.53618683  1
  B  B32  1  0.55494431  0.20674681  0.08037842  1
  B  B33  1  0.17631656  0.22457686  0.54598929  1
  B  B34  1  0.76152301  0.09870353  0.31337535  1
  B  B35  1  0.56314481  0.20339631  0.56626601  1
  N  N36  1  0.21221413  0.21070638  0.39046064  1
  N  N37  1  0.10667351  0.09943579  0.12904308  1
  N  N38  1  0.89736345  0.19856241  0.87085582  1
  N  N39  1  0.76532511  0.12324119  0.60909453  1
  N  N40  1  0.57827929  0.19522834  0.37958006  1
  N  N41  1  0.45450219  0.11049623  0.12757302  1
  N  N42  1  0.23289594  0.19997538  0.87283262  1
  N  N43  1  0.14385530  0.10169224  0.61254927  1
  N  N44  1  0.86181053  0.20214165  0.38280298  1
  N  N45  1  0.75118826  0.10958530  0.14101675  1
  N  N46  1  0.56367639  0.20234504  0.89368303  1
  N  N47  1  0.49117803  0.09843212  0.61925098  1
  N  N48  1  0.22193576  0.53847607  0.36710615  1
  N  N49  1  0.10920018  0.42817039  0.11968504  1
  N  N50  1  0.89163510  0.53255308  0.86139789  1
  N  N51  1  0.78375342  0.39860168  0.60351896  1
  N  N52  1  0.54962269  0.54253575  0.36699607  1
  N  N53  1  0.45539976  0.40368181  0.11804392  1
  N  N54  1  0.22397326  0.53537513  0.86332814  1
  N  N55  1  0.11781255  0.40025245  0.60939734  1
  N  N56  1  0.88481574  0.54091150  0.36531525  1
  N  N57  1  0.77616784  0.42785685  0.11945412  1
  N  N58  1  0.55949048  0.53402065  0.86509772  1
  N  N59  1  0.45674262  0.40078062  0.61415558  1
  N  N60  1  0.21927629  0.87336788  0.36935807  1
  N  N61  1  0.10941726  0.76136900  0.11620085  1
  N  N62  1  0.88857431  0.87569428  0.86781417  1
  N  N63  1  0.78811238  0.75309463  0.61452868  1
  N  N64  1  0.55223902  0.87392376  0.37040861  1
  N  N65  1  0.44325642  0.76284729  0.11581823  1
  N  N66  1  0.22349296  0.87314853  0.86626476  1
  N  N67  1  0.11081249  0.76177662  0.61422700  1
  N  N68  1  0.87225366  0.90057401  0.35945637  1
  N  N69  1  0.77680775  0.76119879  0.11648663  1
  N  N70  1  0.55856785  0.87235377  0.86806736  1
  N  N71  1  0.45185983  0.75703508  0.61899596  1
