# generated using pymatgen
data_Al31B5N36
_symmetry_space_group_name_H-M   'P 1'
_cell_length_a   9.29393345
_cell_length_b   9.15654556
_cell_length_c   9.98401638
_cell_angle_alpha   90.37443258
_cell_angle_beta   89.93042479
_cell_angle_gamma   60.42250071
_symmetry_Int_Tables_number   1
_chemical_formula_structural   Al31B5N36
_chemical_formula_sum   'Al31 B5 N36'
_cell_volume   738.89965943
_cell_formula_units_Z   1
loop_
 _symmetry_equiv_pos_site_id
 _symmetry_equiv_pos_as_xyz
  1  'x, y, z'
loop_
 _atom_site_type_symbol
 _atom_site_label
 _atom_site_symmetry_multiplicity
 _atom_site_fract_x
 _atom_site_fract_y
 _atom_site_fract_z
 _atom_site_occupancy
  Al  Al0  1  0.09667979  0.09851128  0.32703880  1
  Al  Al1  1  0.22541812  0.20632461  0.07125344  1
  Al  Al2  1  0.79142844  0.09468658  0.79672930  1
  Al  Al3  1  0.44654747  0.10910044  0.39699525  1
  Al  Al4  1  0.11925724  0.09737343  0.80618825  1
  Al  Al5  1  0.88695900  0.20417764  0.06632709  1
  Al  Al6  1  0.45641741  0.10034810  0.88423581  1
  Al  Al7  1  0.10313309  0.43105288  0.31521650  1
  Al  Al8  1  0.22737279  0.53117314  0.06211416  1
  Al  Al9  1  0.78220683  0.41747359  0.80561020  1
  Al  Al10  1  0.88677092  0.52908494  0.55887881  1
  Al  Al11  1  0.44181080  0.42914990  0.30820389  1
  Al  Al12  1  0.55819787  0.53099313  0.06162410  1
  Al  Al13  1  0.11530307  0.41799502  0.80884554  1
  Al  Al14  1  0.22040482  0.52956572  0.55842051  1
  Al  Al15  1  0.76817279  0.42870417  0.31309934  1
  Al  Al16  1  0.89032877  0.53548192  0.06054779  1
  Al  Al17  1  0.44072600  0.43596352  0.81241761  1
  Al  Al18  1  0.55262438  0.52802531  0.55940155  1
  Al  Al19  1  0.10322008  0.76845549  0.31002857  1
  Al  Al20  1  0.22136906  0.87493150  0.06284344  1
  Al  Al21  1  0.78186076  0.76021240  0.81121081  1
  Al  Al22  1  0.89063993  0.88190424  0.55326653  1
  Al  Al23  1  0.43791549  0.76751150  0.31377539  1
  Al  Al24  1  0.56226207  0.86906698  0.06764870  1
  Al  Al25  1  0.10958815  0.76284232  0.81080716  1
  Al  Al26  1  0.22662500  0.87671962  0.56406366  1
  Al  Al27  1  0.76874952  0.77150725  0.31234752  1
  Al  Al28  1  0.88443998  0.87849069  0.06504204  1
  Al  Al29  1  0.44687886  0.76177572  0.81296637  1
  Al  Al30  1  0.56338285  0.87119926  0.57080919  1
  B  B31  1  0.83250812  0.22198573  0.53838529  1
  B  B32  1  0.55964448  0.19715827  0.14944579  1
  B  B33  1  0.16925411  0.22845035  0.55229589  1
  B  B34  1  0.77258667  0.09388722  0.30555259  1
  B  B35  1  0.50755389  0.22427295  0.65152842  1
  N  N36  1  0.20411937  0.21576865  0.39738468  1
  N  N37  1  0.10908919  0.09757255  0.13434359  1
  N  N38  1  0.89677414  0.20161107  0.87641076  1
  N  N39  1  0.82447913  0.09590444  0.61389551  1
  N  N40  1  0.57003880  0.19216448  0.30970425  1
  N  N41  1  0.46657471  0.10884623  0.08247002  1
  N  N42  1  0.22611036  0.20457854  0.88186916  1
  N  N43  1  0.15242341  0.09967122  0.61967458  1
  N  N44  1  0.85912733  0.20246516  0.38123256  1
  N  N45  1  0.76818768  0.10124357  0.14055014  1
  N  N46  1  0.55797776  0.20276442  0.80050902  1
  N  N47  1  0.48573187  0.10315976  0.58040013  1
  N  N48  1  0.21828197  0.54046487  0.36929470  1
  N  N49  1  0.10940508  0.42815966  0.12691405  1
  N  N50  1  0.89189453  0.53365671  0.86677099  1
  N  N51  1  0.78161597  0.39854285  0.60671682  1
  N  N52  1  0.54733627  0.54230900  0.37115825  1
  N  N53  1  0.45464786  0.40645089  0.11692072  1
  N  N54  1  0.22112089  0.53729801  0.87023880  1
  N  N55  1  0.11375003  0.40352978  0.61475632  1
  N  N56  1  0.88119622  0.54315059  0.37090964  1
  N  N57  1  0.77645886  0.42785283  0.12393959  1
  N  N58  1  0.56083825  0.53569479  0.87030977  1
  N  N59  1  0.44136726  0.41136198  0.61840197  1
  N  N60  1  0.21766095  0.87392939  0.37489413  1
  N  N61  1  0.11116242  0.76027634  0.11981650  1
  N  N62  1  0.88738480  0.87805697  0.87275344  1
  N  N63  1  0.78848591  0.75502801  0.62053253  1
  N  N64  1  0.55043886  0.87459766  0.37621086  1
  N  N65  1  0.44334108  0.76085504  0.12217696  1
  N  N66  1  0.22394022  0.87336859  0.87063639  1
  N  N67  1  0.11499399  0.75610649  0.61919389  1
  N  N68  1  0.87198512  0.90034970  0.36113944  1
  N  N69  1  0.78049962  0.75858817  0.12270251  1
  N  N70  1  0.56243030  0.86687569  0.87372283  1
  N  N71  1  0.45203254  0.75256912  0.62358145  1
