# generated using pymatgen
data_Al31B5N36
_symmetry_space_group_name_H-M   'P 1'
_cell_length_a   9.28959392
_cell_length_b   9.18887676
_cell_length_c   10.10453305
_cell_angle_alpha   89.48166218
_cell_angle_beta   90.17038331
_cell_angle_gamma   59.83481447
_symmetry_Int_Tables_number   1
_chemical_formula_structural   Al31B5N36
_chemical_formula_sum   'Al31 B5 N36'
_cell_volume   745.66976840
_cell_formula_units_Z   1
loop_
 _symmetry_equiv_pos_site_id
 _symmetry_equiv_pos_as_xyz
  1  'x, y, z'
loop_
 _atom_site_type_symbol
 _atom_site_label
 _atom_site_symmetry_multiplicity
 _atom_site_fract_x
 _atom_site_fract_y
 _atom_site_fract_z
 _atom_site_occupancy
  Al  Al0  1  0.10113928  0.09388012  0.32005109  1
  Al  Al1  1  0.22468848  0.20722940  0.07141301  1
  Al  Al2  1  0.78454062  0.09873177  0.80723627  1
  Al  Al3  1  0.45232736  0.10022268  0.40027784  1
  Al  Al4  1  0.10263766  0.10393312  0.82168705  1
  Al  Al5  1  0.88381309  0.20295178  0.09837146  1
  Al  Al6  1  0.45764243  0.09196041  0.88859749  1
  Al  Al7  1  0.11334012  0.42639707  0.32602254  1
  Al  Al8  1  0.22127254  0.53489653  0.07287112  1
  Al  Al9  1  0.77760290  0.42958016  0.89669772  1
  Al  Al10  1  0.88289023  0.53701849  0.63462982  1
  Al  Al11  1  0.45517477  0.41171411  0.38635446  1
  Al  Al12  1  0.55360883  0.53406891  0.14335044  1
  Al  Al13  1  0.12248894  0.41596620  0.81620402  1
  Al  Al14  1  0.21735140  0.53397117  0.56638611  1
  Al  Al15  1  0.77871440  0.41145348  0.38545156  1
  Al  Al16  1  0.88061244  0.54194420  0.14532897  1
  Al  Al17  1  0.45523633  0.41618359  0.89076823  1
  Al  Al18  1  0.56313174  0.51830347  0.63697523  1
  Al  Al19  1  0.10215147  0.77053794  0.31580043  1
  Al  Al20  1  0.22103230  0.87466686  0.06432890  1
  Al  Al21  1  0.77772631  0.75405288  0.88987101  1
  Al  Al22  1  0.89079566  0.89573419  0.55854487  1
  Al  Al23  1  0.44478634  0.76086985  0.38449153  1
  Al  Al24  1  0.55395219  0.87895336  0.14121885  1
  Al  Al25  1  0.10522008  0.76157239  0.81513326  1
  Al  Al26  1  0.21470633  0.88188965  0.57324757  1
  Al  Al27  1  0.77132874  0.76708495  0.38593773  1
  Al  Al28  1  0.88361396  0.88157923  0.06793794  1
  Al  Al29  1  0.44598116  0.75883197  0.86006797  1
  Al  Al30  1  0.56620931  0.87914563  0.63864403  1
  B  B31  1  0.90045062  0.20851097  0.60394017  1
  B  B32  1  0.55318828  0.20307798  0.14615034  1
  B  B33  1  0.15521643  0.24209632  0.55426643  1
  B  B34  1  0.77566643  0.09401510  0.29601442  1
  B  B35  1  0.50496025  0.22874975  0.64914115  1
  N  N36  1  0.20146002  0.21183441  0.40919300  1
  N  N37  1  0.12117812  0.09176109  0.13360572  1
  N  N38  1  0.89036429  0.19728727  0.89455010  1
  N  N39  1  0.83371003  0.10101498  0.62967103  1
  N  N40  1  0.55817225  0.20102246  0.30620336  1
  N  N41  1  0.46459524  0.10655394  0.08089006  1
  N  N42  1  0.22315843  0.20103445  0.88364264  1
  N  N43  1  0.09464192  0.13052861  0.62036256  1
  N  N44  1  0.86875650  0.19395821  0.32534955  1
  N  N45  1  0.75664678  0.09665786  0.13738240  1
  N  N46  1  0.54397577  0.21185384  0.79939185  1
  N  N47  1  0.48877380  0.09986821  0.58188746  1
  N  N48  1  0.21567650  0.54438175  0.37945824  1
  N  N49  1  0.11675360  0.42259299  0.13840352  1
  N  N50  1  0.88739917  0.53584792  0.82356540  1
  N  N51  1  0.79455777  0.39877100  0.57914130  1
  N  N52  1  0.55260490  0.53627388  0.33447361  1
  N  N53  1  0.46359294  0.39718798  0.08291789  1
  N  N54  1  0.21855996  0.53801130  0.88015843  1
  N  N55  1  0.12171305  0.40112565  0.62047764  1
  N  N56  1  0.87905999  0.54015050  0.33496638  1
  N  N57  1  0.77127043  0.43734096  0.08294444  1
  N  N58  1  0.56002325  0.52948620  0.82415804  1
  N  N59  1  0.45570021  0.39739007  0.58174037  1
  N  N60  1  0.21312874  0.87576398  0.38530486  1
  N  N61  1  0.11001972  0.76308857  0.12769217  1
  N  N62  1  0.88515928  0.87886857  0.87661791  1
  N  N63  1  0.78667545  0.75906376  0.57524328  1
  N  N64  1  0.54659758  0.88182854  0.33113890  1
  N  N65  1  0.44804797  0.75931243  0.08593762  1
  N  N66  1  0.21562656  0.87569424  0.86911700  1
  N  N67  1  0.11418056  0.75519938  0.62748065  1
  N  N68  1  0.87084107  0.90538377  0.36527199  1
  N  N69  1  0.77484656  0.75829591  0.07981202  1
  N  N70  1  0.55914203  0.87278292  0.82556859  1
  N  N71  1  0.45295905  0.75800871  0.59023895  1
