# generated using pymatgen
data_Al31B5N36
_symmetry_space_group_name_H-M   'P 1'
_cell_length_a   9.29048645
_cell_length_b   9.16425425
_cell_length_c   9.91965267
_cell_angle_alpha   89.97965964
_cell_angle_beta   89.51914821
_cell_angle_gamma   60.17924993
_symmetry_Int_Tables_number   1
_chemical_formula_structural   Al31B5N36
_chemical_formula_sum   'Al31 B5 N36'
_cell_volume   732.69763721
_cell_formula_units_Z   1
loop_
 _symmetry_equiv_pos_site_id
 _symmetry_equiv_pos_as_xyz
  1  'x, y, z'
loop_
 _atom_site_type_symbol
 _atom_site_label
 _atom_site_symmetry_multiplicity
 _atom_site_fract_x
 _atom_site_fract_y
 _atom_site_fract_z
 _atom_site_occupancy
  Al  Al0  1  0.09785741  0.09850832  0.32316740  1
  Al  Al1  1  0.23201547  0.20365036  0.06399576  1
  Al  Al2  1  0.78810777  0.09538104  0.80315910  1
  Al  Al3  1  0.44179913  0.09856397  0.33563622  1
  Al  Al4  1  0.11864171  0.09723966  0.80284172  1
  Al  Al5  1  0.88713596  0.20375190  0.06340410  1
  Al  Al6  1  0.44593037  0.09209054  0.79870543  1
  Al  Al7  1  0.10674871  0.42926538  0.31004662  1
  Al  Al8  1  0.22870660  0.53014275  0.05886334  1
  Al  Al9  1  0.78108923  0.41773528  0.80262773  1
  Al  Al10  1  0.88978119  0.52768866  0.55481789  1
  Al  Al11  1  0.44399721  0.42976325  0.31174348  1
  Al  Al12  1  0.55769569  0.53092799  0.05911505  1
  Al  Al13  1  0.11545685  0.41859749  0.80531919  1
  Al  Al14  1  0.22594692  0.52593567  0.55750050  1
  Al  Al15  1  0.77062816  0.42833121  0.30966227  1
  Al  Al16  1  0.88931253  0.53664279  0.05629679  1
  Al  Al17  1  0.44248817  0.43220031  0.80869538  1
  Al  Al18  1  0.55208789  0.53376126  0.55686380  1
  Al  Al19  1  0.10484925  0.76774013  0.30814784  1
  Al  Al20  1  0.22121405  0.87525866  0.05959504  1
  Al  Al21  1  0.78017560  0.76101448  0.80711277  1
  Al  Al22  1  0.88314002  0.88567267  0.55170678  1
  Al  Al23  1  0.44016586  0.76586948  0.30747592  1
  Al  Al24  1  0.55572799  0.88139081  0.06118854  1
  Al  Al25  1  0.11075057  0.76250373  0.80737060  1
  Al  Al26  1  0.22776102  0.87686262  0.55995779  1
  Al  Al27  1  0.77259467  0.76880481  0.30687643  1
  Al  Al28  1  0.88467517  0.87817082  0.06192128  1
  Al  Al29  1  0.44760620  0.76110085  0.81090082  1
  Al  Al30  1  0.56132083  0.87681994  0.56071171  1
  B  B31  1  0.82092422  0.22937123  0.53500784  1
  B  B32  1  0.55933143  0.20108863  0.15573774  1
  B  B33  1  0.17756951  0.22424865  0.54763855  1
  B  B34  1  0.77422917  0.09337576  0.30598060  1
  B  B35  1  0.55507042  0.20827834  0.64307414  1
  N  N36  1  0.20920848  0.21200476  0.39189401  1
  N  N37  1  0.10883248  0.09861873  0.12925367  1
  N  N38  1  0.89807068  0.20041893  0.87170017  1
  N  N39  1  0.77224469  0.11787140  0.60820489  1
  N  N40  1  0.57769825  0.19574751  0.31892647  1
  N  N41  1  0.45296905  0.10617157  0.13146785  1
  N  N42  1  0.23138359  0.20125237  0.87379963  1
  N  N43  1  0.14556371  0.10107658  0.61421281  1
  N  N44  1  0.86141067  0.20079770  0.38179669  1
  N  N45  1  0.76706652  0.10124057  0.13880045  1
  N  N46  1  0.56284419  0.20468380  0.81221024  1
  N  N47  1  0.47969927  0.09984508  0.60803406  1
  N  N48  1  0.21898761  0.54008247  0.36733827  1
  N  N49  1  0.10938396  0.42756055  0.12005768  1
  N  N50  1  0.89080356  0.53342213  0.86166755  1
  N  N51  1  0.78231455  0.39771923  0.60297730  1
  N  N52  1  0.55008435  0.54370910  0.36775498  1
  N  N53  1  0.45514071  0.40480612  0.11811821  1
  N  N54  1  0.22126346  0.53738131  0.86547325  1
  N  N55  1  0.11676680  0.40119692  0.61033587  1
  N  N56  1  0.88442130  0.54085284  0.36587104  1
  N  N57  1  0.77689073  0.42718352  0.12010993  1
  N  N58  1  0.56002033  0.53573685  0.86709790  1
  N  N59  1  0.45073247  0.40958966  0.61367696  1
  N  N60  1  0.21976331  0.87324822  0.37005713  1
  N  N61  1  0.11151960  0.75978337  0.11678356  1
  N  N62  1  0.88901640  0.87548953  0.86848448  1
  N  N63  1  0.78747848  0.75391147  0.61511878  1
  N  N64  1  0.55436809  0.87050922  0.37094873  1
  N  N65  1  0.44400249  0.76203365  0.11603066  1
  N  N66  1  0.22347572  0.87332180  0.86673510  1
  N  N67  1  0.11037801  0.76204580  0.61473032  1
  N  N68  1  0.87320257  0.89983576  0.35919333  1
  N  N69  1  0.77756330  0.76102216  0.11626561  1
  N  N70  1  0.55839550  0.87330962  0.86895294  1
  N  N71  1  0.45197013  0.75688533  0.61993470  1
