# generated using pymatgen
data_Al31B5N36
_symmetry_space_group_name_H-M   'P 1'
_cell_length_a   9.38353681
_cell_length_b   9.12398119
_cell_length_c   10.10742643
_cell_angle_alpha   90.17925405
_cell_angle_beta   90.50046926
_cell_angle_gamma   60.76982518
_symmetry_Int_Tables_number   1
_chemical_formula_structural   Al31B5N36
_chemical_formula_sum   'Al31 B5 N36'
_cell_volume   755.13076748
_cell_formula_units_Z   1
loop_
 _symmetry_equiv_pos_site_id
 _symmetry_equiv_pos_as_xyz
  1  'x, y, z'
loop_
 _atom_site_type_symbol
 _atom_site_label
 _atom_site_symmetry_multiplicity
 _atom_site_fract_x
 _atom_site_fract_y
 _atom_site_fract_z
 _atom_site_occupancy
  Al  Al0  1  0.12100094  0.09077877  0.34090617  1
  Al  Al1  1  0.21287652  0.21272841  0.08301916  1
  Al  Al2  1  0.77627955  0.09381661  0.88628635  1
  Al  Al3  1  0.44709305  0.10142832  0.41460173  1
  Al  Al4  1  0.11361961  0.09643260  0.81453157  1
  Al  Al5  1  0.88327054  0.20225816  0.15248037  1
  Al  Al6  1  0.44543652  0.09704239  0.89886522  1
  Al  Al7  1  0.11310103  0.42781377  0.34014782  1
  Al  Al8  1  0.20999759  0.54292517  0.08408287  1
  Al  Al9  1  0.77672968  0.42267984  0.89764538  1
  Al  Al10  1  0.88090521  0.53172566  0.64991615  1
  Al  Al11  1  0.44599470  0.41905395  0.40087454  1
  Al  Al12  1  0.55432924  0.52931131  0.15238017  1
  Al  Al13  1  0.11326902  0.41994241  0.83015775  1
  Al  Al14  1  0.21697003  0.53060915  0.58582885  1
  Al  Al15  1  0.77754125  0.41651146  0.40489693  1
  Al  Al16  1  0.87762867  0.54480948  0.15577033  1
  Al  Al17  1  0.44609186  0.41952619  0.90250442  1
  Al  Al18  1  0.55381703  0.52651115  0.65614868  1
  Al  Al19  1  0.11751523  0.76263840  0.33636986  1
  Al  Al20  1  0.21243534  0.87980626  0.08418162  1
  Al  Al21  1  0.77821167  0.76241203  0.90358249  1
  Al  Al22  1  0.89194792  0.87642729  0.64270995  1
  Al  Al23  1  0.45822376  0.75360377  0.40210759  1
  Al  Al24  1  0.55179202  0.88436384  0.15509372  1
  Al  Al25  1  0.11348830  0.76036156  0.83164739  1
  Al  Al26  1  0.22983646  0.87398603  0.58350173  1
  Al  Al27  1  0.77592965  0.77273711  0.40473835  1
  Al  Al28  1  0.87682502  0.89282774  0.15258511  1
  Al  Al29  1  0.44643971  0.76037203  0.90360926  1
  Al  Al30  1  0.56456395  0.87518915  0.65532777  1
  B  B31  1  0.84278129  0.22533905  0.64964892  1
  B  B32  1  0.48016379  0.24159385  0.16525120  1
  B  B33  1  0.16826021  0.22865576  0.57217371  1
  B  B34  1  0.85690292  0.06812934  0.42399123  1
  B  B35  1  0.50523116  0.22619500  0.66516682  1
  N  N36  1  0.20610335  0.21591374  0.42401054  1
  N  N37  1  0.11942991  0.09582360  0.15457847  1
  N  N38  1  0.87383125  0.20992943  0.80070950  1
  N  N39  1  0.84372636  0.08773580  0.56937448  1
  N  N40  1  0.49693053  0.23071477  0.30619762  1
  N  N41  1  0.44893691  0.11292860  0.09075015  1
  N  N42  1  0.21204401  0.20676668  0.89830323  1
  N  N43  1  0.16130084  0.09319025  0.63726234  1
  N  N44  1  0.88433153  0.19092520  0.34507545  1
  N  N45  1  0.79941942  0.08999599  0.06547115  1
  N  N46  1  0.54462752  0.21043173  0.81603601  1
  N  N47  1  0.49926497  0.09316002  0.59504554  1
  N  N48  1  0.21248101  0.54720016  0.40100147  1
  N  N49  1  0.10939761  0.42816677  0.15104538  1
  N  N50  1  0.88209588  0.53951229  0.84028715  1
  N  N51  1  0.77976360  0.40157121  0.59433253  1
  N  N52  1  0.55795817  0.53016825  0.34207366  1
  N  N53  1  0.44663443  0.40579889  0.09377959  1
  N  N54  1  0.21342498  0.53992019  0.89380930  1
  N  N55  1  0.11596048  0.40090860  0.63741444  1
  N  N56  1  0.87826156  0.54328071  0.34722171  1
  N  N57  1  0.77646841  0.42517895  0.08859403  1
  N  N58  1  0.55204363  0.53598928  0.84415856  1
  N  N59  1  0.45381906  0.39693818  0.59842322  1
  N  N60  1  0.22783124  0.87063028  0.39564051  1
  N  N61  1  0.11240047  0.76029273  0.14872882  1
  N  N62  1  0.88207642  0.87254954  0.83025178  1
  N  N63  1  0.78553346  0.75433435  0.58996238  1
  N  N64  1  0.55410269  0.87982710  0.34378162  1
  N  N65  1  0.44763309  0.75894194  0.09484573  1
  N  N66  1  0.21259273  0.88106726  0.89338207  1
  N  N67  1  0.12768545  0.75202624  0.64476234  1
  N  N68  1  0.88113291  0.90532100  0.35594126  1
  N  N69  1  0.77479120  0.76823146  0.09534531  1
  N  N70  1  0.55558469  0.87281111  0.84422440  1
  N  N71  1  0.46440126  0.74782415  0.59297315  1
