# generated using pymatgen
data_Al31B5N36
_symmetry_space_group_name_H-M   'P 1'
_cell_length_a   9.32839679
_cell_length_b   9.19828205
_cell_length_c   9.95127615
_cell_angle_alpha   89.86861755
_cell_angle_beta   89.89510527
_cell_angle_gamma   60.17250125
_symmetry_Int_Tables_number   1
_chemical_formula_structural   Al31B5N36
_chemical_formula_sum   'Al31 B5 N36'
_cell_volume   740.75424575
_cell_formula_units_Z   1
loop_
 _symmetry_equiv_pos_site_id
 _symmetry_equiv_pos_as_xyz
  1  'x, y, z'
loop_
 _atom_site_type_symbol
 _atom_site_label
 _atom_site_symmetry_multiplicity
 _atom_site_fract_x
 _atom_site_fract_y
 _atom_site_fract_z
 _atom_site_occupancy
  Al  Al0  1  0.09636668  0.09985184  0.33468026  1
  Al  Al1  1  0.22406973  0.20732978  0.07733600  1
  Al  Al2  1  0.78785756  0.09720916  0.80283227  1
  Al  Al3  1  0.45090978  0.09891161  0.40178604  1
  Al  Al4  1  0.11730094  0.09804175  0.81424393  1
  Al  Al5  1  0.88634762  0.20532018  0.07487094  1
  Al  Al6  1  0.45869651  0.09287004  0.89094084  1
  Al  Al7  1  0.10546108  0.42953193  0.32460232  1
  Al  Al8  1  0.22224006  0.53452235  0.07541947  1
  Al  Al9  1  0.78283985  0.41754624  0.81442061  1
  Al  Al10  1  0.88734626  0.52949313  0.56775771  1
  Al  Al11  1  0.44841118  0.41372001  0.38252217  1
  Al  Al12  1  0.56068588  0.53553792  0.07523466  1
  Al  Al13  1  0.11772855  0.41649653  0.81807605  1
  Al  Al14  1  0.21524695  0.53261297  0.57075930  1
  Al  Al15  1  0.76870880  0.42912066  0.32300134  1
  Al  Al16  1  0.88922016  0.53719521  0.06924826  1
  Al  Al17  1  0.45155856  0.41548343  0.88636461  1
  Al  Al18  1  0.55585381  0.53124564  0.57475687  1
  Al  Al19  1  0.10229261  0.76983653  0.31805460  1
  Al  Al20  1  0.21906358  0.87633138  0.06994614  1
  Al  Al21  1  0.78898916  0.75603799  0.82072755  1
  Al  Al22  1  0.88918207  0.88323672  0.56097684  1
  Al  Al23  1  0.43332265  0.76362960  0.32406437  1
  Al  Al24  1  0.55220084  0.88456536  0.13875422  1
  Al  Al25  1  0.11026820  0.76203048  0.81910845  1
  Al  Al26  1  0.22424642  0.87828734  0.57216324  1
  Al  Al27  1  0.77712772  0.76664293  0.32294630  1
  Al  Al28  1  0.88174982  0.88057951  0.07167875  1
  Al  Al29  1  0.44296631  0.75820305  0.82141741  1
  Al  Al30  1  0.55800722  0.88337450  0.63726919  1
  B  B31  1  0.83373061  0.22174936  0.54601446  1
  B  B32  1  0.55560965  0.20674057  0.15105944  1
  B  B33  1  0.16983212  0.22787619  0.56026439  1
  B  B34  1  0.77042342  0.09491875  0.31000145  1
  B  B35  1  0.50451549  0.22922882  0.65048952  1
  N  N36  1  0.20602304  0.21391779  0.40592634  1
  N  N37  1  0.10922569  0.09817506  0.14166193  1
  N  N38  1  0.89449308  0.20129931  0.88459830  1
  N  N39  1  0.82555193  0.09567053  0.62114653  1
  N  N40  1  0.56449419  0.19822124  0.31161533  1
  N  N41  1  0.46640693  0.10897537  0.08593415  1
  N  N42  1  0.22628961  0.20228675  0.88909614  1
  N  N43  1  0.15191191  0.09993356  0.62780845  1
  N  N44  1  0.85902970  0.20326112  0.38876265  1
  N  N45  1  0.76759612  0.10255589  0.14697421  1
  N  N46  1  0.54976331  0.20987828  0.80125910  1
  N  N47  1  0.49089037  0.09949354  0.58317549  1
  N  N48  1  0.21349809  0.54408584  0.37795856  1
  N  N49  1  0.10941505  0.42712061  0.13611178  1
  N  N50  1  0.89377716  0.53129147  0.87559405  1
  N  N51  1  0.78449523  0.39770481  0.61585915  1
  N  N52  1  0.54977885  0.54250741  0.38087250  1
  N  N53  1  0.46242754  0.39522951  0.08719336  1
  N  N54  1  0.21937922  0.53782824  0.87887209  1
  N  N55  1  0.11500900  0.40192692  0.62382609  1
  N  N56  1  0.88326768  0.54091160  0.37968809  1
  N  N57  1  0.77839283  0.42787484  0.13398929  1
  N  N58  1  0.56300658  0.53565871  0.87733583  1
  N  N59  1  0.44964361  0.39833459  0.58510987  1
  N  N60  1  0.21468534  0.87544730  0.38320499  1
  N  N61  1  0.10872534  0.76273211  0.12788084  1
  N  N62  1  0.88626804  0.87991234  0.87964885  1
  N  N63  1  0.79264160  0.75336413  0.62580326  1
  N  N64  1  0.54630816  0.88216277  0.33738391  1
  N  N65  1  0.43889349  0.76123472  0.12838298  1
  N  N66  1  0.22168347  0.87389495  0.87817996  1
  N  N67  1  0.11410213  0.75735988  0.62776275  1
  N  N68  1  0.87043373  0.90274044  0.36858592  1
  N  N69  1  0.78203974  0.75854706  0.12822477  1
  N  N70  1  0.55900323  0.87387284  0.83592833  1
  N  N71  1  0.44820941  0.75499319  0.62775634  1
