# generated using pymatgen
data_Al31B5N36
_symmetry_space_group_name_H-M   'P 1'
_cell_length_a   9.43320406
_cell_length_b   9.15866140
_cell_length_c   9.99413630
_cell_angle_alpha   90.10985308
_cell_angle_beta   90.48854640
_cell_angle_gamma   60.92593320
_symmetry_Int_Tables_number   1
_chemical_formula_structural   Al31B5N36
_chemical_formula_sum   'Al31 B5 N36'
_cell_volume   754.61752923
_cell_formula_units_Z   1
loop_
 _symmetry_equiv_pos_site_id
 _symmetry_equiv_pos_as_xyz
  1  'x, y, z'
loop_
 _atom_site_type_symbol
 _atom_site_label
 _atom_site_symmetry_multiplicity
 _atom_site_fract_x
 _atom_site_fract_y
 _atom_site_fract_z
 _atom_site_occupancy
  Al  Al0  1  0.12190388  0.08923422  0.33614590  1
  Al  Al1  1  0.21564846  0.20946347  0.08404313  1
  Al  Al2  1  0.77578384  0.09414504  0.88634597  1
  Al  Al3  1  0.45069719  0.09917678  0.41235847  1
  Al  Al4  1  0.11355031  0.09879878  0.81273011  1
  Al  Al5  1  0.88201428  0.20234791  0.15131747  1
  Al  Al6  1  0.44638018  0.09723324  0.89723563  1
  Al  Al7  1  0.10279722  0.43390998  0.38319824  1
  Al  Al8  1  0.22256871  0.53498846  0.15917799  1
  Al  Al9  1  0.77445751  0.42292731  0.89891157  1
  Al  Al10  1  0.88485199  0.52972944  0.65100383  1
  Al  Al11  1  0.44482890  0.41866434  0.40272524  1
  Al  Al12  1  0.55490078  0.52961895  0.15202806  1
  Al  Al13  1  0.10379643  0.43037361  0.87604328  1
  Al  Al14  1  0.22682608  0.52037316  0.64229682  1
  Al  Al15  1  0.77629187  0.41591571  0.40493539  1
  Al  Al16  1  0.88058563  0.54355337  0.15499977  1
  Al  Al17  1  0.44100581  0.42177772  0.90273802  1
  Al  Al18  1  0.55467212  0.52679624  0.65592224  1
  Al  Al19  1  0.11177418  0.77180003  0.34213141  1
  Al  Al20  1  0.21197751  0.87831821  0.08195244  1
  Al  Al21  1  0.77709574  0.76451018  0.90404641  1
  Al  Al22  1  0.89028400  0.87716117  0.63916103  1
  Al  Al23  1  0.45841194  0.75290110  0.40099935  1
  Al  Al24  1  0.55218683  0.88303189  0.15410651  1
  Al  Al25  1  0.11225317  0.76422054  0.82767779  1
  Al  Al26  1  0.23018216  0.87484513  0.58195431  1
  Al  Al27  1  0.77402428  0.77350128  0.40486692  1
  Al  Al28  1  0.87629208  0.89278135  0.15138084  1
  Al  Al29  1  0.44681725  0.75990183  0.90201587  1
  Al  Al30  1  0.56480811  0.87432099  0.65477112  1
  B  B31  1  0.84090776  0.22742974  0.65164799  1
  B  B32  1  0.48594850  0.23718004  0.16557911  1
  B  B33  1  0.16824398  0.22532367  0.56431879  1
  B  B34  1  0.85429637  0.07131420  0.42519519  1
  B  B35  1  0.50827680  0.22367603  0.66566495  1
  N  N36  1  0.21520912  0.20515486  0.41563651  1
  N  N37  1  0.11658114  0.09549625  0.14898067  1
  N  N38  1  0.87484058  0.21051586  0.80341388  1
  N  N39  1  0.83871347  0.09187384  0.57140090  1
  N  N40  1  0.50705240  0.22657439  0.30757045  1
  N  N41  1  0.44947767  0.11196158  0.09180701  1
  N  N42  1  0.21604883  0.20401473  0.89502580  1
  N  N43  1  0.15841088  0.09478224  0.63356505  1
  N  N44  1  0.88639582  0.19067888  0.34563652  1
  N  N45  1  0.79249734  0.09303821  0.06780910  1
  N  N46  1  0.54811304  0.20954450  0.81725475  1
  N  N47  1  0.49983022  0.09244953  0.59545632  1
  N  N48  1  0.22126065  0.54234449  0.35836780  1
  N  N49  1  0.10170255  0.43281571  0.12194650  1
  N  N50  1  0.88159606  0.53981282  0.84278713  1
  N  N51  1  0.77849794  0.40291431  0.59633804  1
  N  N52  1  0.55845186  0.52944030  0.34368928  1
  N  N53  1  0.44140505  0.40866084  0.09500495  1
  N  N54  1  0.22557969  0.53128111  0.84035946  1
  N  N55  1  0.10678219  0.40668440  0.60523549  1
  N  N56  1  0.87808551  0.54330019  0.34785329  1
  N  N57  1  0.77498705  0.42578200  0.09071053  1
  N  N58  1  0.55225035  0.53518661  0.84584540  1
  N  N59  1  0.45295528  0.39693986  0.59789382  1
  N  N60  1  0.23044223  0.87144318  0.39274200  1
  N  N61  1  0.10746419  0.76646760  0.14644214  1
  N  N62  1  0.88372870  0.87220783  0.83040429  1
  N  N63  1  0.78396924  0.75367034  0.59175721  1
  N  N64  1  0.55551515  0.87789390  0.34420359  1
  N  N65  1  0.44611239  0.75916369  0.09520892  1
  N  N66  1  0.21449617  0.88041545  0.88855081  1
  N  N67  1  0.12239877  0.75619271  0.63201727  1
  N  N68  1  0.87915683  0.90707184  0.35893136  1
  N  N69  1  0.77332678  0.76864795  0.09692708  1
  N  N70  1  0.55636811  0.87272711  0.84516958  1
  N  N71  1  0.46278795  0.74841505  0.59429245  1
