# generated using pymatgen
data_Al31B5N36
_symmetry_space_group_name_H-M   'P 1'
_cell_length_a   9.43016645
_cell_length_b   9.15592528
_cell_length_c   9.99767623
_cell_angle_alpha   90.10131654
_cell_angle_beta   90.48978198
_cell_angle_gamma   60.93822109
_symmetry_Int_Tables_number   1
_chemical_formula_structural   Al31B5N36
_chemical_formula_sum   'Al31 B5 N36'
_cell_volume   754.50572953
_cell_formula_units_Z   1
loop_
 _symmetry_equiv_pos_site_id
 _symmetry_equiv_pos_as_xyz
  1  'x, y, z'
loop_
 _atom_site_type_symbol
 _atom_site_label
 _atom_site_symmetry_multiplicity
 _atom_site_fract_x
 _atom_site_fract_y
 _atom_site_fract_z
 _atom_site_occupancy
  Al  Al0  1  0.12188823  0.08902667  0.33598627  1
  Al  Al1  1  0.21638087  0.20824080  0.08383291  1
  Al  Al2  1  0.77580483  0.09415137  0.88628533  1
  Al  Al3  1  0.45099112  0.09894812  0.41216368  1
  Al  Al4  1  0.11363715  0.09937063  0.81262379  1
  Al  Al5  1  0.88181300  0.20246465  0.15132330  1
  Al  Al6  1  0.44611166  0.09738336  0.89694974  1
  Al  Al7  1  0.10205689  0.43523880  0.39170915  1
  Al  Al8  1  0.22199505  0.53469103  0.15911968  1
  Al  Al9  1  0.77449724  0.42296276  0.89885182  1
  Al  Al10  1  0.88557172  0.52939936  0.65197960  1
  Al  Al11  1  0.44462201  0.41866413  0.40262257  1
  Al  Al12  1  0.55482045  0.52966214  0.15201560  1
  Al  Al13  1  0.10275202  0.43290920  0.88731857  1
  Al  Al14  1  0.22668854  0.51978577  0.64408044  1
  Al  Al15  1  0.77644692  0.41589493  0.40486228  1
  Al  Al16  1  0.88112787  0.54340587  0.15472028  1
  Al  Al17  1  0.44092232  0.42177782  0.90271324  1
  Al  Al18  1  0.55467283  0.52681033  0.65589280  1
  Al  Al19  1  0.11177792  0.77153697  0.34188418  1
  Al  Al20  1  0.21189113  0.87828946  0.08178278  1
  Al  Al21  1  0.77693648  0.76454536  0.90395719  1
  Al  Al22  1  0.89032711  0.87705537  0.63915874  1
  Al  Al23  1  0.45838235  0.75290267  0.40105215  1
  Al  Al24  1  0.55229996  0.88290293  0.15408633  1
  Al  Al25  1  0.11227639  0.76416939  0.82764684  1
  Al  Al26  1  0.23012583  0.87473251  0.58195360  1
  Al  Al27  1  0.77419055  0.77334425  0.40470737  1
  Al  Al28  1  0.87623979  0.89281553  0.15131446  1
  Al  Al29  1  0.44674962  0.75996254  0.90197571  1
  Al  Al30  1  0.56491781  0.87420679  0.65472565  1
  B  B31  1  0.84090515  0.22746126  0.65163106  1
  B  B32  1  0.48610027  0.23719735  0.16560702  1
  B  B33  1  0.16869968  0.22453503  0.56344575  1
  B  B34  1  0.85431022  0.07127345  0.42520017  1
  B  B35  1  0.50827092  0.22365474  0.66563520  1
  N  N36  1  0.21593938  0.20421719  0.41470491  1
  N  N37  1  0.11642020  0.09561462  0.14902815  1
  N  N38  1  0.87481909  0.21054353  0.80332544  1
  N  N39  1  0.83877665  0.09182200  0.57136280  1
  N  N40  1  0.50741357  0.22644145  0.30753706  1
  N  N41  1  0.44961010  0.11189951  0.09189651  1
  N  N42  1  0.21629414  0.20404229  0.89463123  1
  N  N43  1  0.15832005  0.09496793  0.63336557  1
  N  N44  1  0.88639907  0.19065704  0.34561773  1
  N  N45  1  0.79245476  0.09306818  0.06772882  1
  N  N46  1  0.54819575  0.20954213  0.81715588  1
  N  N47  1  0.49982987  0.09242355  0.59535704  1
  N  N48  1  0.22074672  0.54153745  0.35701800  1
  N  N49  1  0.10063440  0.43494712  0.11207291  1
  N  N50  1  0.88219358  0.53953186  0.84288359  1
  N  N51  1  0.77863635  0.40300378  0.59632302  1
  N  N52  1  0.55845793  0.52946058  0.34370778  1
  N  N53  1  0.44126776  0.40871447  0.09503960  1
  N  N54  1  0.22521270  0.53093369  0.84038656  1
  N  N55  1  0.10593793  0.40797141  0.60050309  1
  N  N56  1  0.87940544  0.54263950  0.34701596  1
  N  N57  1  0.77495575  0.42586298  0.09074197  1
  N  N58  1  0.55221558  0.53521731  0.84579402  1
  N  N59  1  0.45257939  0.39710662  0.59787367  1
  N  N60  1  0.23039018  0.87119269  0.39276646  1
  N  N61  1  0.10741924  0.76646663  0.14642432  1
  N  N62  1  0.88370238  0.87220690  0.83035509  1
  N  N63  1  0.78416868  0.75329678  0.59160735  1
  N  N64  1  0.55575107  0.87761726  0.34413513  1
  N  N65  1  0.44602667  0.75923602  0.09515348  1
  N  N66  1  0.21440335  0.88056015  0.88843660  1
  N  N67  1  0.12250460  0.75578833  0.63198319  1
  N  N68  1  0.87919677  0.90701012  0.35891205  1
  N  N69  1  0.77325007  0.76870159  0.09688229  1
  N  N70  1  0.55637533  0.87272455  0.84506417  1
  N  N71  1  0.46272667  0.74846873  0.59425580  1
