# generated using pymatgen
data_Al31B5N36
_symmetry_space_group_name_H-M   'P 1'
_cell_length_a   9.26974766
_cell_length_b   9.16060612
_cell_length_c   10.18234445
_cell_angle_alpha   89.26992442
_cell_angle_beta   90.09399464
_cell_angle_gamma   59.86613512
_symmetry_Int_Tables_number   1
_chemical_formula_structural   Al31B5N36
_chemical_formula_sum   'Al31 B5 N36'
_cell_volume   747.70298812
_cell_formula_units_Z   1
loop_
 _symmetry_equiv_pos_site_id
 _symmetry_equiv_pos_as_xyz
  1  'x, y, z'
loop_
 _atom_site_type_symbol
 _atom_site_label
 _atom_site_symmetry_multiplicity
 _atom_site_fract_x
 _atom_site_fract_y
 _atom_site_fract_z
 _atom_site_occupancy
  Al  Al0  1  0.10620318  0.09093177  0.32579613  1
  Al  Al1  1  0.22377007  0.20811790  0.07101821  1
  Al  Al2  1  0.78291339  0.09609018  0.79668148  1
  Al  Al3  1  0.45292607  0.09787064  0.40110815  1
  Al  Al4  1  0.11483656  0.10018244  0.81406457  1
  Al  Al5  1  0.87945262  0.20945069  0.13491049  1
  Al  Al6  1  0.45833580  0.09310247  0.88859210  1
  Al  Al7  1  0.11284352  0.42537707  0.32592202  1
  Al  Al8  1  0.22114959  0.53484067  0.07177741  1
  Al  Al9  1  0.78081393  0.42847357  0.89095372  1
  Al  Al10  1  0.88225648  0.53755776  0.63661133  1
  Al  Al11  1  0.45605514  0.41163526  0.38708757  1
  Al  Al12  1  0.55455393  0.53333479  0.14176922  1
  Al  Al13  1  0.12272627  0.41771904  0.81576678  1
  Al  Al14  1  0.21726717  0.53280067  0.56633720  1
  Al  Al15  1  0.77804136  0.41030097  0.39384313  1
  Al  Al16  1  0.88099992  0.54048994  0.14366661  1
  Al  Al17  1  0.45582085  0.41704416  0.89019613  1
  Al  Al18  1  0.56032573  0.52356020  0.64201727  1
  Al  Al19  1  0.10260304  0.76833661  0.31525335  1
  Al  Al20  1  0.21512960  0.87839173  0.06516159  1
  Al  Al21  1  0.77797435  0.75740414  0.88924532  1
  Al  Al22  1  0.88987557  0.89403248  0.55472803  1
  Al  Al23  1  0.44795154  0.75714618  0.39205561  1
  Al  Al24  1  0.55430195  0.87924795  0.14138228  1
  Al  Al25  1  0.10678723  0.76331583  0.81517306  1
  Al  Al26  1  0.21385032  0.88170971  0.57217355  1
  Al  Al27  1  0.76965945  0.76440493  0.38510785  1
  Al  Al28  1  0.88353986  0.88263876  0.06740831  1
  Al  Al29  1  0.45033719  0.75826679  0.88607104  1
  Al  Al30  1  0.56363100  0.87773178  0.64045912  1
  B  B31  1  0.89380915  0.21176634  0.63304106  1
  B  B32  1  0.55198220  0.20406028  0.14544802  1
  B  B33  1  0.15755844  0.23798285  0.55578433  1
  B  B34  1  0.77146408  0.09055215  0.29773753  1
  B  B35  1  0.50595354  0.22853819  0.64723670  1
  N  N36  1  0.20306026  0.21096867  0.41000332  1
  N  N37  1  0.11859413  0.09371298  0.13678355  1
  N  N38  1  0.88939882  0.21332797  0.83612137  1
  N  N39  1  0.82695644  0.09898636  0.61976763  1
  N  N40  1  0.55961168  0.19927128  0.30630652  1
  N  N41  1  0.46472933  0.10670335  0.08070396  1
  N  N42  1  0.22418109  0.20300514  0.88555764  1
  N  N43  1  0.10364815  0.12278575  0.62074163  1
  N  N44  1  0.86864384  0.19449766  0.32433833  1
  N  N45  1  0.75587703  0.09722158  0.13697609  1
  N  N46  1  0.54269383  0.21343148  0.79760684  1
  N  N47  1  0.48786472  0.09919300  0.58173936  1
  N  N48  1  0.21564148  0.54267412  0.38025937  1
  N  N49  1  0.11716661  0.42242831  0.13931123  1
  N  N50  1  0.88826251  0.54130909  0.82378464  1
  N  N51  1  0.79184035  0.40095165  0.58377875  1
  N  N52  1  0.55388354  0.53573430  0.33082689  1
  N  N53  1  0.46375420  0.39701093  0.08246055  1
  N  N54  1  0.21874612  0.53932285  0.88119115  1
  N  N55  1  0.12147936  0.39960369  0.62117427  1
  N  N56  1  0.87771362  0.53743997  0.33266130  1
  N  N57  1  0.77496913  0.43080314  0.07679809  1
  N  N58  1  0.55687481  0.53602301  0.82775699  1
  N  N59  1  0.45625148  0.39891637  0.58145021  1
  N  N60  1  0.21438040  0.87183992  0.38502765  1
  N  N61  1  0.10981640  0.76241671  0.12874940  1
  N  N62  1  0.88598102  0.88289399  0.87842241  1
  N  N63  1  0.78427195  0.75870531  0.57303594  1
  N  N64  1  0.54474184  0.88035037  0.32848985  1
  N  N65  1  0.44906355  0.75935687  0.07745828  1
  N  N66  1  0.21640797  0.87680549  0.87334640  1
  N  N67  1  0.11370758  0.75458474  0.62819404  1
  N  N68  1  0.86989441  0.90259011  0.36235354  1
  N  N69  1  0.77451634  0.75799741  0.07855536  1
  N  N70  1  0.55769651  0.87300853  0.82669527  1
  N  N71  1  0.45462498  0.75679088  0.58226981  1
