# generated using pymatgen
data_Al31B5N36
_symmetry_space_group_name_H-M   'P 1'
_cell_length_a   9.27061738
_cell_length_b   9.16478860
_cell_length_c   10.16043422
_cell_angle_alpha   89.33500210
_cell_angle_beta   90.16476545
_cell_angle_gamma   59.85542115
_symmetry_Int_Tables_number   1
_chemical_formula_structural   Al31B5N36
_chemical_formula_sum   'Al31 B5 N36'
_cell_volume   746.42847182
_cell_formula_units_Z   1
loop_
 _symmetry_equiv_pos_site_id
 _symmetry_equiv_pos_as_xyz
  1  'x, y, z'
loop_
 _atom_site_type_symbol
 _atom_site_label
 _atom_site_symmetry_multiplicity
 _atom_site_fract_x
 _atom_site_fract_y
 _atom_site_fract_z
 _atom_site_occupancy
  Al  Al0  1  0.10330571  0.09253936  0.32212013  1
  Al  Al1  1  0.22452236  0.20793199  0.07065609  1
  Al  Al2  1  0.78529587  0.09912311  0.80395344  1
  Al  Al3  1  0.45279016  0.09851035  0.40050852  1
  Al  Al4  1  0.10541856  0.10269153  0.82049979  1
  Al  Al5  1  0.88207789  0.20579532  0.11041245  1
  Al  Al6  1  0.45838550  0.09226316  0.88794058  1
  Al  Al7  1  0.11335163  0.42571962  0.32571431  1
  Al  Al8  1  0.22137152  0.53498433  0.07200780  1
  Al  Al9  1  0.77994565  0.42786361  0.89566245  1
  Al  Al10  1  0.88287951  0.53672893  0.63528861  1
  Al  Al11  1  0.45545362  0.41217781  0.38634110  1
  Al  Al12  1  0.55358140  0.53454738  0.14252472  1
  Al  Al13  1  0.12307142  0.41655413  0.81577447  1
  Al  Al14  1  0.21775301  0.53315468  0.56604383  1
  Al  Al15  1  0.77743309  0.41194138  0.38665036  1
  Al  Al16  1  0.88084906  0.54232307  0.14477043  1
  Al  Al17  1  0.45627987  0.41635037  0.89038940  1
  Al  Al18  1  0.56100828  0.52214204  0.64072655  1
  Al  Al19  1  0.10184423  0.76989411  0.31581214  1
  Al  Al20  1  0.21555849  0.87831624  0.06437644  1
  Al  Al21  1  0.77843957  0.75501675  0.88864522  1
  Al  Al22  1  0.89001218  0.89419125  0.55730391  1
  Al  Al23  1  0.44673648  0.75892950  0.39187259  1
  Al  Al24  1  0.55407071  0.87947719  0.14062886  1
  Al  Al25  1  0.10709884  0.76202746  0.81518500  1
  Al  Al26  1  0.21428109  0.88110739  0.57327645  1
  Al  Al27  1  0.76970765  0.76624790  0.38542991  1
  Al  Al28  1  0.88311769  0.88285240  0.06622989  1
  Al  Al29  1  0.45085235  0.75726858  0.88512149  1
  Al  Al30  1  0.56400246  0.87750047  0.64071981  1
  B  B31  1  0.89956295  0.20838852  0.60589112  1
  B  B32  1  0.55258145  0.20350070  0.14556800  1
  B  B33  1  0.15615685  0.24100851  0.55475892  1
  B  B34  1  0.77340144  0.09282068  0.29586240  1
  B  B35  1  0.50552599  0.22843583  0.64793249  1
  N  N36  1  0.20193591  0.21135855  0.41014905  1
  N  N37  1  0.12175403  0.09255064  0.13612131  1
  N  N38  1  0.89150584  0.19832112  0.88719293  1
  N  N39  1  0.83167509  0.10053913  0.62597317  1
  N  N40  1  0.55804479  0.20065991  0.30607883  1
  N  N41  1  0.46463766  0.10696606  0.07998502  1
  N  N42  1  0.22371257  0.20161952  0.88407119  1
  N  N43  1  0.09542694  0.12885637  0.62010977  1
  N  N44  1  0.86822232  0.19514452  0.32161663  1
  N  N45  1  0.75567320  0.09630343  0.13767990  1
  N  N46  1  0.54396557  0.21256790  0.79775002  1
  N  N47  1  0.48856519  0.09881821  0.58177428  1
  N  N48  1  0.21544054  0.54366122  0.38006579  1
  N  N49  1  0.11724921  0.42261161  0.13895418  1
  N  N50  1  0.88810953  0.53708059  0.82290121  1
  N  N51  1  0.79352246  0.39900062  0.57975428  1
  N  N52  1  0.55166528  0.53780575  0.33136905  1
  N  N53  1  0.46387845  0.39743106  0.08232056  1
  N  N54  1  0.21906593  0.53824611  0.88079494  1
  N  N55  1  0.12215410  0.40024846  0.62086078  1
  N  N56  1  0.87856521  0.53947390  0.33364033  1
  N  N57  1  0.77138932  0.43782032  0.08127530  1
  N  N58  1  0.55894269  0.53362405  0.82662388  1
  N  N59  1  0.45667266  0.39810004  0.58135294  1
  N  N60  1  0.21316197  0.87416724  0.38593178  1
  N  N61  1  0.10945210  0.76311324  0.12853868  1
  N  N62  1  0.88602787  0.87991031  0.87616753  1
  N  N63  1  0.78456938  0.75867191  0.57406424  1
  N  N64  1  0.54478294  0.88078220  0.32844189  1
  N  N65  1  0.44858328  0.75967921  0.07666075  1
  N  N66  1  0.21728588  0.87536942  0.87111788  1
  N  N67  1  0.11393422  0.75437768  0.62813100  1
  N  N68  1  0.86976299  0.90467819  0.36477231  1
  N  N69  1  0.77453286  0.75867535  0.07816219  1
  N  N70  1  0.55815505  0.87193327  0.82660300  1
  N  N71  1  0.45489808  0.75657706  0.58267765  1
