# generated using pymatgen
data_Al31B5N36
_symmetry_space_group_name_H-M   'P 1'
_cell_length_a   9.27848129
_cell_length_b   9.17051653
_cell_length_c   10.10726920
_cell_angle_alpha   89.66458944
_cell_angle_beta   90.22779940
_cell_angle_gamma   59.96325933
_symmetry_Int_Tables_number   1
_chemical_formula_structural   Al31B5N36
_chemical_formula_sum   'Al31 B5 N36'
_cell_volume   744.47992703
_cell_formula_units_Z   1
loop_
 _symmetry_equiv_pos_site_id
 _symmetry_equiv_pos_as_xyz
  1  'x, y, z'
loop_
 _atom_site_type_symbol
 _atom_site_label
 _atom_site_symmetry_multiplicity
 _atom_site_fract_x
 _atom_site_fract_y
 _atom_site_fract_z
 _atom_site_occupancy
  Al  Al0  1  0.11166638  0.09012337  0.32670085  1
  Al  Al1  1  0.22092505  0.21001898  0.07256001  1
  Al  Al2  1  0.76808161  0.10123047  0.85590538  1
  Al  Al3  1  0.46128212  0.09447962  0.39879308  1
  Al  Al4  1  0.11855691  0.09896675  0.80161734  1
  Al  Al5  1  0.87358763  0.20627561  0.13533205  1
  Al  Al6  1  0.45138499  0.09663401  0.88534973  1
  Al  Al7  1  0.11500450  0.42416561  0.32706002  1
  Al  Al8  1  0.21833646  0.53734261  0.07270089  1
  Al  Al9  1  0.77910906  0.42944481  0.88793462  1
  Al  Al10  1  0.88613481  0.52921543  0.63571030  1
  Al  Al11  1  0.45941551  0.41100682  0.38523620  1
  Al  Al12  1  0.55410132  0.53432025  0.13830372  1
  Al  Al13  1  0.12369951  0.41669053  0.81476301  1
  Al  Al14  1  0.22189958  0.52992570  0.56840033  1
  Al  Al15  1  0.77605753  0.41022792  0.39548492  1
  Al  Al16  1  0.88071824  0.53966468  0.14381177  1
  Al  Al17  1  0.45093928  0.41964661  0.88842757  1
  Al  Al18  1  0.55131040  0.53249938  0.64063278  1
  Al  Al19  1  0.10377278  0.76878418  0.31951481  1
  Al  Al20  1  0.21227350  0.88090679  0.06763515  1
  Al  Al21  1  0.77673951  0.75466584  0.88622702  1
  Al  Al22  1  0.87847618  0.89875172  0.57334826  1
  Al  Al23  1  0.45243949  0.75507393  0.38710951  1
  Al  Al24  1  0.55432586  0.88105607  0.14009217  1
  Al  Al25  1  0.10934411  0.76280206  0.81393579  1
  Al  Al26  1  0.22451134  0.87817189  0.56856113  1
  Al  Al27  1  0.77111171  0.76266121  0.39016837  1
  Al  Al28  1  0.88462204  0.87903879  0.06493495  1
  Al  Al29  1  0.44599970  0.76222705  0.88673618  1
  Al  Al30  1  0.56173072  0.87993959  0.63844427  1
  B  B31  1  0.82541382  0.23871269  0.66096999  1
  B  B32  1  0.56030110  0.20415393  0.12920039  1
  B  B33  1  0.17993328  0.22377998  0.55652999  1
  B  B34  1  0.77245600  0.09395744  0.34121501  1
  B  B35  1  0.55780589  0.20729902  0.64019380  1
  N  N36  1  0.21300960  0.20861303  0.40398283  1
  N  N37  1  0.11210129  0.09796148  0.13730864  1
  N  N38  1  0.88058448  0.21798976  0.80652487  1
  N  N39  1  0.76409558  0.12525429  0.62278431  1
  N  N40  1  0.58229972  0.18990724  0.30462146  1
  N  N41  1  0.46247748  0.10875020  0.08111035  1
  N  N42  1  0.21767177  0.20489718  0.88736216  1
  N  N43  1  0.15460130  0.09698272  0.62063414  1
  N  N44  1  0.86784657  0.18784265  0.32711089  1
  N  N45  1  0.74675195  0.11549030  0.06788781  1
  N  N46  1  0.54277912  0.21351757  0.80389569  1
  N  N47  1  0.50040986  0.09443281  0.57747791  1
  N  N48  1  0.21823430  0.54217301  0.37977791  1
  N  N49  1  0.11465232  0.42528417  0.13905673  1
  N  N50  1  0.88897321  0.53728578  0.82394548  1
  N  N51  1  0.78260714  0.40027967  0.58654037  1
  N  N52  1  0.55732323  0.53380814  0.32668527  1
  N  N53  1  0.45881098  0.40163435  0.08288831  1
  N  N54  1  0.21691321  0.54127256  0.88024382  1
  N  N55  1  0.12484882  0.39679049  0.62050928  1
  N  N56  1  0.87928214  0.53432341  0.33600706  1
  N  N57  1  0.77719023  0.42684479  0.07493804  1
  N  N58  1  0.55351656  0.53900608  0.82858303  1
  N  N59  1  0.46016990  0.40058247  0.57914330  1
  N  N60  1  0.21965365  0.87024238  0.38040476  1
  N  N61  1  0.10596814  0.76527523  0.13141648  1
  N  N62  1  0.89258131  0.87008863  0.87357594  1
  N  N63  1  0.78716120  0.75207637  0.57772822  1
  N  N64  1  0.55072145  0.87703314  0.32696070  1
  N  N65  1  0.44664184  0.76162064  0.07861423  1
  N  N66  1  0.21108284  0.88187315  0.87580042  1
  N  N67  1  0.11092375  0.76333832  0.62603780  1
  N  N68  1  0.86919664  0.90642022  0.37187102  1
  N  N69  1  0.77401593  0.75743620  0.07899866  1
  N  N70  1  0.55514275  0.87396827  0.82658674  1
  N  N71  1  0.46089411  0.75293558  0.57745756  1
