# generated using pymatgen
data_Al31B5N36
_symmetry_space_group_name_H-M   'P 1'
_cell_length_a   9.42829923
_cell_length_b   9.16302300
_cell_length_c   10.01348065
_cell_angle_alpha   90.19315243
_cell_angle_beta   90.48331904
_cell_angle_gamma   60.80155948
_symmetry_Int_Tables_number   1
_chemical_formula_structural   Al31B5N36
_chemical_formula_sum   'Al31 B5 N36'
_cell_volume   755.13338492
_cell_formula_units_Z   1
loop_
 _symmetry_equiv_pos_site_id
 _symmetry_equiv_pos_as_xyz
  1  'x, y, z'
loop_
 _atom_site_type_symbol
 _atom_site_label
 _atom_site_symmetry_multiplicity
 _atom_site_fract_x
 _atom_site_fract_y
 _atom_site_fract_z
 _atom_site_occupancy
  Al  Al0  1  0.12141491  0.09085643  0.33801611  1
  Al  Al1  1  0.21316015  0.21359442  0.08285257  1
  Al  Al2  1  0.77594332  0.09385044  0.88675170  1
  Al  Al3  1  0.44736156  0.10118945  0.41400717  1
  Al  Al4  1  0.11345452  0.09588357  0.81502803  1
  Al  Al5  1  0.88329268  0.20175254  0.15155511  1
  Al  Al6  1  0.44646238  0.09695034  0.89778862  1
  Al  Al7  1  0.10625538  0.42766101  0.35016603  1
  Al  Al8  1  0.22524558  0.53608747  0.15575017  1
  Al  Al9  1  0.77647146  0.42308365  0.89798901  1
  Al  Al10  1  0.87927477  0.53303212  0.64830176  1
  Al  Al11  1  0.44631036  0.41823138  0.40326902  1
  Al  Al12  1  0.55610129  0.52920780  0.15141598  1
  Al  Al13  1  0.11175237  0.41722906  0.82861164  1
  Al  Al14  1  0.22597154  0.52548713  0.62438707  1
  Al  Al15  1  0.77594415  0.41637369  0.40506437  1
  Al  Al16  1  0.87842011  0.54459792  0.15612151  1
  Al  Al17  1  0.43947408  0.42268696  0.90071005  1
  Al  Al18  1  0.55463571  0.52679104  0.65682352  1
  Al  Al19  1  0.11151729  0.77175985  0.34607561  1
  Al  Al20  1  0.21261817  0.87819933  0.08348662  1
  Al  Al21  1  0.77989981  0.76193127  0.90335249  1
  Al  Al22  1  0.88886266  0.87925497  0.63990979  1
  Al  Al23  1  0.45854486  0.75306897  0.40079822  1
  Al  Al24  1  0.55199615  0.88368394  0.15414933  1
  Al  Al25  1  0.11350897  0.76110775  0.82631846  1
  Al  Al26  1  0.23055237  0.87601399  0.58211551  1
  Al  Al27  1  0.77314428  0.77450855  0.40521961  1
  Al  Al28  1  0.87682323  0.89261827  0.15291274  1
  Al  Al29  1  0.44725630  0.75936416  0.90266057  1
  Al  Al30  1  0.56380165  0.87530072  0.65557919  1
  B  B31  1  0.84070109  0.22748024  0.65164323  1
  B  B32  1  0.48459517  0.23707302  0.16514751  1
  B  B33  1  0.16594199  0.22771482  0.56952044  1
  B  B34  1  0.85345516  0.07204951  0.42518741  1
  B  B35  1  0.50839186  0.22397471  0.66609589  1
  N  N36  1  0.20876621  0.21224651  0.42162187  1
  N  N37  1  0.11816985  0.09586634  0.15034985  1
  N  N38  1  0.87459818  0.21012505  0.80314074  1
  N  N39  1  0.83762601  0.09290705  0.57105982  1
  N  N40  1  0.50207446  0.22840271  0.30710338  1
  N  N41  1  0.44914469  0.11228612  0.09105207  1
  N  N42  1  0.21390453  0.20548293  0.89680053  1
  N  N43  1  0.15926434  0.09375960  0.63623291  1
  N  N44  1  0.88556729  0.19107570  0.34548920  1
  N  N45  1  0.79483917  0.09165610  0.06798829  1
  N  N46  1  0.54808061  0.20903896  0.81740219  1
  N  N47  1  0.49866247  0.09323548  0.59604676  1
  N  N48  1  0.21892158  0.54453205  0.37467012  1
  N  N49  1  0.10724402  0.42567865  0.15386796  1
  N  N50  1  0.88270570  0.53906322  0.84108120  1
  N  N51  1  0.77818174  0.40272484  0.59577203  1
  N  N52  1  0.55808061  0.52945540  0.34262613  1
  N  N53  1  0.44237898  0.40816272  0.09433724  1
  N  N54  1  0.22597614  0.53100692  0.83953675  1
  N  N55  1  0.11041335  0.40035677  0.62990405  1
  N  N56  1  0.87521133  0.54490833  0.35035473  1
  N  N57  1  0.77691539  0.42497172  0.08998735  1
  N  N58  1  0.55308039  0.53475681  0.84619345  1
  N  N59  1  0.45609698  0.39552824  0.59743103  1
  N  N60  1  0.23024411  0.87290259  0.39336702  1
  N  N61  1  0.10934949  0.76518773  0.15044815  1
  N  N62  1  0.88390491  0.87222333  0.83021272  1
  N  N63  1  0.78286662  0.75603820  0.59141379  1
  N  N64  1  0.55368557  0.87996773  0.34412524  1
  N  N65  1  0.44716876  0.75869712  0.09553903  1
  N  N66  1  0.21415032  0.87856460  0.89054965  1
  N  N67  1  0.12095136  0.76006211  0.63137548  1
  N  N68  1  0.87790812  0.90820956  0.35888560  1
  N  N69  1  0.77490671  0.76792308  0.09682766  1
  N  N70  1  0.55673147  0.87219799  0.84564794  1
  N  N71  1  0.46351810  0.74795193  0.59399867  1
