# generated using pymatgen
data_Al31B5N36
_symmetry_space_group_name_H-M   'P 1'
_cell_length_a   9.28318989
_cell_length_b   9.16024941
_cell_length_c   10.16616300
_cell_angle_alpha   89.38288067
_cell_angle_beta   90.27464436
_cell_angle_gamma   60.02989720
_symmetry_Int_Tables_number   1
_chemical_formula_structural   Al31B5N36
_chemical_formula_sum   'Al31 B5 N36'
_cell_volume   748.80346206
_cell_formula_units_Z   1
loop_
 _symmetry_equiv_pos_site_id
 _symmetry_equiv_pos_as_xyz
  1  'x, y, z'
loop_
 _atom_site_type_symbol
 _atom_site_label
 _atom_site_symmetry_multiplicity
 _atom_site_fract_x
 _atom_site_fract_y
 _atom_site_fract_z
 _atom_site_occupancy
  Al  Al0  1  0.10982850  0.09052293  0.32496901  1
  Al  Al1  1  0.22015605  0.21027039  0.07133789  1
  Al  Al2  1  0.77781476  0.09178437  0.80765615  1
  Al  Al3  1  0.45761244  0.09594549  0.39660181  1
  Al  Al4  1  0.12050447  0.09878545  0.80153745  1
  Al  Al5  1  0.87235724  0.20711773  0.13503541  1
  Al  Al6  1  0.45385764  0.09442336  0.88830548  1
  Al  Al7  1  0.11332964  0.42509169  0.32410710  1
  Al  Al8  1  0.21786920  0.53785105  0.07041936  1
  Al  Al9  1  0.77952353  0.42971910  0.88821786  1
  Al  Al10  1  0.88452811  0.53285694  0.63449713  1
  Al  Al11  1  0.45740055  0.41089964  0.38365829  1
  Al  Al12  1  0.55379046  0.53410408  0.13809515  1
  Al  Al13  1  0.12294772  0.41736909  0.81381184  1
  Al  Al14  1  0.21750150  0.53226417  0.56443374  1
  Al  Al15  1  0.77635474  0.41067050  0.39377236  1
  Al  Al16  1  0.88003372  0.54118806  0.14159079  1
  Al  Al17  1  0.45423318  0.41703746  0.89023130  1
  Al  Al18  1  0.55432705  0.52816333  0.64077357  1
  Al  Al19  1  0.10349582  0.76934000  0.31389648  1
  Al  Al20  1  0.21172142  0.88136807  0.06475153  1
  Al  Al21  1  0.77690422  0.75555915  0.88577293  1
  Al  Al22  1  0.89004248  0.89197043  0.56216355  1
  Al  Al23  1  0.45115791  0.75496400  0.38708695  1
  Al  Al24  1  0.55437339  0.88051299  0.13921197  1
  Al  Al25  1  0.11001041  0.76133858  0.81232397  1
  Al  Al26  1  0.22442521  0.87784025  0.56820441  1
  Al  Al27  1  0.77026493  0.76315314  0.38642898  1
  Al  Al28  1  0.88010650  0.88630033  0.06097984  1
  Al  Al29  1  0.44673621  0.76081857  0.88576369  1
  Al  Al30  1  0.56183052  0.87845050  0.63795322  1
  B  B31  1  0.84380236  0.23505497  0.65600136  1
  B  B32  1  0.56125474  0.20228000  0.13328141  1
  B  B33  1  0.17578315  0.22582344  0.55516430  1
  B  B34  1  0.77244735  0.09356190  0.33254467  1
  B  B35  1  0.50754597  0.22761916  0.64477048  1
  N  N36  1  0.21008921  0.21017875  0.40351551  1
  N  N37  1  0.11162670  0.09752923  0.13613709  1
  N  N38  1  0.88398141  0.22301240  0.80680416  1
  N  N39  1  0.81335851  0.10229265  0.62167069  1
  N  N40  1  0.57745100  0.19168673  0.30659132  1
  N  N41  1  0.46150809  0.10854209  0.08113504  1
  N  N42  1  0.21983312  0.20476479  0.88676710  1
  N  N43  1  0.15949838  0.09578130  0.62143127  1
  N  N44  1  0.86733471  0.18971106  0.32664502  1
  N  N45  1  0.74524711  0.11314537  0.08725418  1
  N  N46  1  0.53943488  0.21392750  0.79689882  1
  N  N47  1  0.49438189  0.09732792  0.57700565  1
  N  N48  1  0.21685072  0.54276725  0.37736111  1
  N  N49  1  0.11418584  0.42542130  0.13744930  1
  N  N50  1  0.88831368  0.53963613  0.82193278  1
  N  N51  1  0.78418689  0.40251892  0.58325429  1
  N  N52  1  0.55583787  0.53391288  0.32673097  1
  N  N53  1  0.45871477  0.40144681  0.08254482  1
  N  N54  1  0.21887666  0.53931929  0.87937492  1
  N  N55  1  0.12311658  0.39810569  0.61912752  1
  N  N56  1  0.87806850  0.53596969  0.33263403  1
  N  N57  1  0.77613425  0.42838961  0.07427988  1
  N  N58  1  0.55433147  0.53754560  0.82741959  1
  N  N59  1  0.45556885  0.39948704  0.57920117  1
  N  N60  1  0.21811176  0.87045610  0.38043101  1
  N  N61  1  0.10472039  0.76616793  0.12737521  1
  N  N62  1  0.89114709  0.87321068  0.87149762  1
  N  N63  1  0.78577637  0.75610944  0.57371255  1
  N  N64  1  0.54866011  0.87821327  0.32622116  1
  N  N65  1  0.44647275  0.76158693  0.07700103  1
  N  N66  1  0.21219359  0.88051965  0.87375972  1
  N  N67  1  0.11655286  0.75656927  0.62495824  1
  N  N68  1  0.86968290  0.90519517  0.36627181  1
  N  N69  1  0.77322255  0.75897393  0.07625974  1
  N  N70  1  0.55537911  0.87399495  0.82497600  1
  N  N71  1  0.46177279  0.75055295  0.57654149  1
