# generated using pymatgen
data_Al31B5N36
_symmetry_space_group_name_H-M   'P 1'
_cell_length_a   9.30242504
_cell_length_b   9.16420103
_cell_length_c   9.96564618
_cell_angle_alpha   90.31975989
_cell_angle_beta   89.92315967
_cell_angle_gamma   60.38488445
_symmetry_Int_Tables_number   1
_chemical_formula_structural   Al31B5N36
_chemical_formula_sum   'Al31 B5 N36'
_cell_volume   738.56140061
_cell_formula_units_Z   1
loop_
 _symmetry_equiv_pos_site_id
 _symmetry_equiv_pos_as_xyz
  1  'x, y, z'
loop_
 _atom_site_type_symbol
 _atom_site_label
 _atom_site_symmetry_multiplicity
 _atom_site_fract_x
 _atom_site_fract_y
 _atom_site_fract_z
 _atom_site_occupancy
  Al  Al0  1  0.09670157  0.09850901  0.33577150  1
  Al  Al1  1  0.22475279  0.20672896  0.07992917  1
  Al  Al2  1  0.79116553  0.09485156  0.80560649  1
  Al  Al3  1  0.44704196  0.10852281  0.40528378  1
  Al  Al4  1  0.11909683  0.09737877  0.81478715  1
  Al  Al5  1  0.88661961  0.20452538  0.07500436  1
  Al  Al6  1  0.45643712  0.10000426  0.89315851  1
  Al  Al7  1  0.10330480  0.43083196  0.32393638  1
  Al  Al8  1  0.22694726  0.53139020  0.07091120  1
  Al  Al9  1  0.78209195  0.41745011  0.81430512  1
  Al  Al10  1  0.88666180  0.52910548  0.56779864  1
  Al  Al11  1  0.44175052  0.42913916  0.31728373  1
  Al  Al12  1  0.55786543  0.53125078  0.07043357  1
  Al  Al13  1  0.11539812  0.41767829  0.81751772  1
  Al  Al14  1  0.22027888  0.52950715  0.56718366  1
  Al  Al15  1  0.76810650  0.42879938  0.32189931  1
  Al  Al16  1  0.88982732  0.53587180  0.06929735  1
  Al  Al17  1  0.44058813  0.43581366  0.82151521  1
  Al  Al18  1  0.55250498  0.52815837  0.56836825  1
  Al  Al19  1  0.10298866  0.76849042  0.31877613  1
  Al  Al20  1  0.22064657  0.87521848  0.07150729  1
  Al  Al21  1  0.78190453  0.76008005  0.82039754  1
  Al  Al22  1  0.89035182  0.88214447  0.56208035  1
  Al  Al23  1  0.43754879  0.76741658  0.32289361  1
  Al  Al24  1  0.56127336  0.87010272  0.07853053  1
  Al  Al25  1  0.10933577  0.76276182  0.81944760  1
  Al  Al26  1  0.22625043  0.87669292  0.57287426  1
  Al  Al27  1  0.76907259  0.77119029  0.32167046  1
  Al  Al28  1  0.88398865  0.87881301  0.07379719  1
  Al  Al29  1  0.44657002  0.76173825  0.82222558  1
  Al  Al30  1  0.56262199  0.87206647  0.58137031  1
  B  B31  1  0.83239115  0.22206246  0.54691791  1
  B  B32  1  0.55922794  0.19796013  0.15819985  1
  B  B33  1  0.16944246  0.22827081  0.56064546  1
  B  B34  1  0.77245605  0.09404812  0.31408997  1
  B  B35  1  0.50748721  0.22457241  0.66036882  1
  N  N36  1  0.20461645  0.21535281  0.40565919  1
  N  N37  1  0.10869546  0.09780477  0.14284410  1
  N  N38  1  0.89672398  0.20156159  0.88492754  1
  N  N39  1  0.82419091  0.09609825  0.62252586  1
  N  N40  1  0.57022503  0.19240130  0.31866763  1
  N  N41  1  0.46581400  0.10958583  0.09177986  1
  N  N42  1  0.22621526  0.20418669  0.89036883  1
  N  N43  1  0.15245676  0.09957909  0.62804838  1
  N  N44  1  0.85922771  0.20247660  0.38970520  1
  N  N45  1  0.76777251  0.10166665  0.14890145  1
  N  N46  1  0.55783600  0.20279109  0.80965939  1
  N  N47  1  0.48567240  0.10357444  0.58916484  1
  N  N48  1  0.21816973  0.54039807  0.37778439  1
  N  N49  1  0.10895168  0.42845106  0.13537203  1
  N  N50  1  0.89195940  0.53333004  0.87529280  1
  N  N51  1  0.78151274  0.39857933  0.61530957  1
  N  N52  1  0.54729147  0.54218844  0.37984920  1
  N  N53  1  0.45435220  0.40669237  0.12554809  1
  N  N54  1  0.22088449  0.53717642  0.87875089  1
  N  N55  1  0.11380793  0.40329394  0.62319526  1
  N  N56  1  0.88144760  0.54272885  0.37957772  1
  N  N57  1  0.77612254  0.42815814  0.13248553  1
  N  N58  1  0.56072579  0.53549378  0.87890374  1
  N  N59  1  0.44128355  0.41147484  0.62707735  1
  N  N60  1  0.21729548  0.87388099  0.38350051  1
  N  N61  1  0.11068625  0.76046542  0.12832681  1
  N  N62  1  0.88727437  0.87805023  0.88132382  1
  N  N63  1  0.78839022  0.75510563  0.62924840  1
  N  N64  1  0.55029353  0.87462375  0.38432068  1
  N  N65  1  0.44255412  0.76100079  0.13087990  1
  N  N66  1  0.22346682  0.87332929  0.87910169  1
  N  N67  1  0.11471040  0.75605281  0.62763926  1
  N  N68  1  0.87190436  0.90045624  0.36974875  1
  N  N69  1  0.78028116  0.75884483  0.13154279  1
  N  N70  1  0.56218971  0.86697415  0.88228899  1
  N  N71  1  0.45157152  0.75266762  0.63238786  1
