# generated using pymatgen
data_Al31B5N36
_symmetry_space_group_name_H-M   'P 1'
_cell_length_a   9.29347091
_cell_length_b   9.17468922
_cell_length_c   9.76720983
_cell_angle_alpha   90.01451741
_cell_angle_beta   89.30614778
_cell_angle_gamma   60.09921132
_symmetry_Int_Tables_number   1
_chemical_formula_structural   Al31B5N36
_chemical_formula_sum   'Al31 B5 N36'
_cell_volume   721.87247089
_cell_formula_units_Z   1
loop_
 _symmetry_equiv_pos_site_id
 _symmetry_equiv_pos_as_xyz
  1  'x, y, z'
loop_
 _atom_site_type_symbol
 _atom_site_label
 _atom_site_symmetry_multiplicity
 _atom_site_fract_x
 _atom_site_fract_y
 _atom_site_fract_z
 _atom_site_occupancy
  Al  Al0  1  0.09801491  0.09814751  0.31670231  1
  Al  Al1  1  0.22795648  0.20478075  0.05496473  1
  Al  Al2  1  0.77519522  0.10072592  0.80179949  1
  Al  Al3  1  0.44589124  0.10102574  0.31604594  1
  Al  Al4  1  0.11817200  0.09725908  0.79468835  1
  Al  Al5  1  0.88334321  0.20423765  0.05784064  1
  Al  Al6  1  0.45602745  0.09712332  0.80005611  1
  Al  Al7  1  0.10817429  0.42939249  0.30246859  1
  Al  Al8  1  0.22571735  0.53329405  0.05007355  1
  Al  Al9  1  0.78245684  0.41655708  0.79599022  1
  Al  Al10  1  0.89137208  0.52764165  0.54814014  1
  Al  Al11  1  0.45095559  0.41734257  0.30241614  1
  Al  Al12  1  0.55639092  0.53314112  0.05032824  1
  Al  Al13  1  0.11690963  0.41698953  0.79698835  1
  Al  Al14  1  0.22923019  0.52434497  0.55069100  1
  Al  Al15  1  0.77101369  0.42864550  0.30244022  1
  Al  Al16  1  0.88863305  0.53744436  0.04892641  1
  Al  Al17  1  0.45090341  0.41578456  0.80341467  1
  Al  Al18  1  0.55334239  0.53238782  0.55007513  1
  Al  Al19  1  0.10522465  0.76696652  0.30174061  1
  Al  Al20  1  0.21935992  0.87659093  0.05197583  1
  Al  Al21  1  0.78085935  0.76014563  0.79978736  1
  Al  Al22  1  0.88452672  0.88547417  0.54712714  1
  Al  Al23  1  0.44046163  0.76470848  0.30093333  1
  Al  Al24  1  0.55514871  0.88060385  0.05297786  1
  Al  Al25  1  0.11087815  0.76209235  0.80042147  1
  Al  Al26  1  0.22853407  0.87603783  0.55233702  1
  Al  Al27  1  0.77265558  0.76888632  0.30110353  1
  Al  Al28  1  0.88000190  0.88262352  0.05724595  1
  Al  Al29  1  0.44759760  0.76018065  0.80271917  1
  Al  Al30  1  0.56141568  0.87872945  0.55429279  1
  B  B31  1  0.82614242  0.23004407  0.52988597  1
  B  B32  1  0.55216745  0.20933801  0.05926569  1
  B  B33  1  0.17631841  0.22478006  0.53676340  1
  B  B34  1  0.76260991  0.09895641  0.30649135  1
  B  B35  1  0.56336699  0.20226662  0.54841549  1
  N  N36  1  0.21332668  0.21023157  0.38065799  1
  N  N37  1  0.10612803  0.09995240  0.12110313  1
  N  N38  1  0.89696178  0.19871031  0.86367097  1
  N  N39  1  0.77037499  0.12173606  0.60252881  1
  N  N40  1  0.57747965  0.19505199  0.37784761  1
  N  N41  1  0.45323240  0.11171134  0.11649909  1
  N  N42  1  0.23330408  0.19965859  0.86359384  1
  N  N43  1  0.14366643  0.10208346  0.60320296  1
  N  N44  1  0.86164578  0.20162249  0.37439996  1
  N  N45  1  0.75090774  0.11054924  0.13328860  1
  N  N46  1  0.56347425  0.20226640  0.89172337  1
  N  N47  1  0.49640773  0.09697118  0.61157991  1
  N  N48  1  0.22276813  0.53782479  0.35786391  1
  N  N49  1  0.10850967  0.42865351  0.11064008  1
  N  N50  1  0.89182139  0.53251769  0.85273102  1
  N  N51  1  0.78469250  0.39867652  0.59575883  1
  N  N52  1  0.54963393  0.54121930  0.35791911  1
  N  N53  1  0.45412589  0.40465467  0.10715421  1
  N  N54  1  0.22419958  0.53488829  0.85410848  1
  N  N55  1  0.11893766  0.39971010  0.60043045  1
  N  N56  1  0.88511906  0.54053405  0.35726585  1
  N  N57  1  0.77538521  0.42874699  0.11099129  1
  N  N58  1  0.55943298  0.53326524  0.85577673  1
  N  N59  1  0.45799318  0.39934310  0.60497019  1
  N  N60  1  0.21960205  0.87292452  0.36105227  1
  N  N61  1  0.10848703  0.76213661  0.10791535  1
  N  N62  1  0.88773328  0.87640083  0.86016892  1
  N  N63  1  0.78893982  0.75288908  0.60593564  1
  N  N64  1  0.55185102  0.87470572  0.36088325  1
  N  N65  1  0.44244640  0.76320971  0.10711797  1
  N  N66  1  0.22318490  0.87343551  0.85738843  1
  N  N67  1  0.11199058  0.76074130  0.60587730  1
  N  N68  1  0.87200959  0.90114200  0.35194299  1
  N  N69  1  0.77619966  0.76170142  0.10845990  1
  N  N70  1  0.55856554  0.87208842  0.85949268  1
  N  N71  1  0.45271519  0.75686687  0.60981532  1
