# generated using pymatgen
data_Al31B5N36
_symmetry_space_group_name_H-M   'P 1'
_cell_length_a   9.35431913
_cell_length_b   9.14406147
_cell_length_c   9.80965113
_cell_angle_alpha   90.30350806
_cell_angle_beta   90.85346479
_cell_angle_gamma   60.59945313
_symmetry_Int_Tables_number   1
_chemical_formula_structural   Al31B5N36
_chemical_formula_sum   'Al31 B5 N36'
_cell_volume   730.93364384
_cell_formula_units_Z   1
loop_
 _symmetry_equiv_pos_site_id
 _symmetry_equiv_pos_as_xyz
  1  'x, y, z'
loop_
 _atom_site_type_symbol
 _atom_site_label
 _atom_site_symmetry_multiplicity
 _atom_site_fract_x
 _atom_site_fract_y
 _atom_site_fract_z
 _atom_site_occupancy
  Al  Al0  1  0.12233184  0.09490520  0.42404026  1
  Al  Al1  1  0.22245902  0.20727422  0.16170317  1
  Al  Al2  1  0.75890344  0.10178330  0.90417743  1
  Al  Al3  1  0.45488747  0.10086032  0.41131804  1
  Al  Al4  1  0.09760956  0.09831806  0.89963824  1
  Al  Al5  1  0.87876171  0.20289438  0.16498566  1
  Al  Al6  1  0.43390881  0.10162272  0.90338180  1
  Al  Al7  1  0.11336501  0.41961756  0.41868295  1
  Al  Al8  1  0.22091080  0.53637940  0.16673085  1
  Al  Al9  1  0.77119056  0.42769353  0.91253382  1
  Al  Al10  1  0.88754876  0.52953724  0.66617827  1
  Al  Al11  1  0.44933753  0.41266571  0.40907103  1
  Al  Al12  1  0.55385899  0.53304475  0.16569710  1
  Al  Al13  1  0.10310809  0.43180312  0.91369470  1
  Al  Al14  1  0.22381891  0.52740481  0.66636816  1
  Al  Al15  1  0.77898622  0.41515256  0.41771533  1
  Al  Al16  1  0.88619737  0.53962952  0.16751590  1
  Al  Al17  1  0.43883494  0.42635429  0.91503930  1
  Al  Al18  1  0.55453142  0.52700254  0.66501116  1
  Al  Al19  1  0.11618613  0.76187506  0.41679416  1
  Al  Al20  1  0.21845321  0.87750884  0.16407515  1
  Al  Al21  1  0.77327090  0.76547029  0.91631686  1
  Al  Al22  1  0.89742364  0.87448553  0.66081298  1
  Al  Al23  1  0.44988013  0.75910350  0.41417967  1
  Al  Al24  1  0.55263600  0.88285521  0.16361276  1
  Al  Al25  1  0.10461980  0.76513119  0.91630598  1
  Al  Al26  1  0.23174159  0.87327635  0.66523914  1
  Al  Al27  1  0.77852263  0.76899881  0.41671167  1
  Al  Al28  1  0.87503963  0.89168368  0.16946391  1
  Al  Al29  1  0.44085888  0.76303660  0.91501465  1
  Al  Al30  1  0.56216506  0.87792390  0.66247564  1
  B  B31  1  0.84605085  0.22293506  0.66965883  1
  B  B32  1  0.53902085  0.21631185  0.16607897  1
  B  B33  1  0.17242565  0.22685179  0.68063250  1
  B  B34  1  0.84804501  0.07223351  0.43658558  1
  B  B35  1  0.50286974  0.22732412  0.67365534  1
  N  N36  1  0.22783158  0.20211813  0.35226882  1
  N  N37  1  0.09940002  0.10171778  0.09609894  1
  N  N38  1  0.87305122  0.20831259  0.82726428  1
  N  N39  1  0.83681908  0.09043632  0.58743892  1
  N  N40  1  0.54213737  0.21213422  0.31917658  1
  N  N41  1  0.44476241  0.11226062  0.09848434  1
  N  N42  1  0.20852873  0.21257711  0.83590776  1
  N  N43  1  0.14955531  0.09924844  0.61339844  1
  N  N44  1  0.89506706  0.18629731  0.36040036  1
  N  N45  1  0.74457136  0.11393508  0.09860424  1
  N  N46  1  0.54076772  0.21278051  0.82803538  1
  N  N47  1  0.48756028  0.09901422  0.60227986  1
  N  N48  1  0.21915939  0.53869460  0.36086765  1
  N  N49  1  0.10379100  0.43091661  0.10484479  1
  N  N50  1  0.88208559  0.54032133  0.85780903  1
  N  N51  1  0.78226017  0.40026999  0.61285479  1
  N  N52  1  0.55819362  0.53254083  0.35979203  1
  N  N53  1  0.44652962  0.41050232  0.10720062  1
  N  N54  1  0.21769453  0.54011110  0.85840752  1
  N  N55  1  0.11438714  0.40184884  0.61619523  1
  N  N56  1  0.88908144  0.53601736  0.36261740  1
  N  N57  1  0.77376342  0.42720594  0.10653175  1
  N  N58  1  0.55027785  0.53797672  0.85729707  1
  N  N59  1  0.44894085  0.40020700  0.60884247  1
  N  N60  1  0.22737365  0.87285732  0.35852849  1
  N  N61  1  0.10158221  0.76690961  0.11087535  1
  N  N62  1  0.88431513  0.87656839  0.85347868  1
  N  N63  1  0.78628056  0.75484427  0.60776872  1
  N  N64  1  0.55902825  0.87334821  0.35680639  1
  N  N65  1  0.44085305  0.76331825  0.10837539  1
  N  N66  1  0.22036541  0.87162266  0.85664480  1
  N  N67  1  0.12187946  0.75256218  0.60861426  1
  N  N68  1  0.88577776  0.90128688  0.36972599  1
  N  N69  1  0.77486618  0.76608985  0.11142922  1
  N  N70  1  0.55239672  0.87478861  0.85594419  1
  N  N71  1  0.45438555  0.75367588  0.60727570  1
