# generated using pymatgen
data_Al31B5N36
_symmetry_space_group_name_H-M   'P 1'
_cell_length_a   9.37438079
_cell_length_b   9.15901974
_cell_length_c   10.09343591
_cell_angle_alpha   89.91768086
_cell_angle_beta   90.31035646
_cell_angle_gamma   60.50876195
_symmetry_Int_Tables_number   1
_chemical_formula_structural   Al31B5N36
_chemical_formula_sum   'Al31 B5 N36'
_cell_volume   754.31676984
_cell_formula_units_Z   1
loop_
 _symmetry_equiv_pos_site_id
 _symmetry_equiv_pos_as_xyz
  1  'x, y, z'
loop_
 _atom_site_type_symbol
 _atom_site_label
 _atom_site_symmetry_multiplicity
 _atom_site_fract_x
 _atom_site_fract_y
 _atom_site_fract_z
 _atom_site_occupancy
  Al  Al0  1  0.12049196  0.09099418  0.32529561  1
  Al  Al1  1  0.21464526  0.21108054  0.06948176  1
  Al  Al2  1  0.76814442  0.10204050  0.87082256  1
  Al  Al3  1  0.45148690  0.10173742  0.39641264  1
  Al  Al4  1  0.11461864  0.09677065  0.80028217  1
  Al  Al5  1  0.87563849  0.19930348  0.14215372  1
  Al  Al6  1  0.44669922  0.09604382  0.88425108  1
  Al  Al7  1  0.11522695  0.42734162  0.32545790  1
  Al  Al8  1  0.21393009  0.53954305  0.07021665  1
  Al  Al9  1  0.77774000  0.42210034  0.88659027  1
  Al  Al10  1  0.88297030  0.53041048  0.63618380  1
  Al  Al11  1  0.44866445  0.41765523  0.38262004  1
  Al  Al12  1  0.55500705  0.53054076  0.13742644  1
  Al  Al13  1  0.11701961  0.41800556  0.81510231  1
  Al  Al14  1  0.21865904  0.53059466  0.56857480  1
  Al  Al15  1  0.77796530  0.41681742  0.39225951  1
  Al  Al16  1  0.87926393  0.54116995  0.14224821  1
  Al  Al17  1  0.44703098  0.42027617  0.88706461  1
  Al  Al18  1  0.55276756  0.52909931  0.64071774  1
  Al  Al19  1  0.10790777  0.76839821  0.31861395  1
  Al  Al20  1  0.21360122  0.88046390  0.06908212  1
  Al  Al21  1  0.77383269  0.75412523  0.88413336  1
  Al  Al22  1  0.89990169  0.87333069  0.58585308  1
  Al  Al23  1  0.45631696  0.75459917  0.38596669  1
  Al  Al24  1  0.55482159  0.88304711  0.13992192  1
  Al  Al25  1  0.11147446  0.76048623  0.81664862  1
  Al  Al26  1  0.22814210  0.87592172  0.56764746  1
  Al  Al27  1  0.77495168  0.77093507  0.39084854  1
  Al  Al28  1  0.88824664  0.87791350  0.06334966  1
  Al  Al29  1  0.44517672  0.76078565  0.88769278  1
  Al  Al30  1  0.56175948  0.87765004  0.63873120  1
  B  B31  1  0.83978094  0.23319627  0.64257259  1
  B  B32  1  0.49996853  0.23249696  0.14708302  1
  B  B33  1  0.17091644  0.22788079  0.55596263  1
  B  B34  1  0.85424544  0.07459954  0.42096933  1
  B  B35  1  0.50589870  0.22694237  0.64775452  1
  N  N36  1  0.20873372  0.21428227  0.40702893  1
  N  N37  1  0.11431129  0.09686017  0.13799899  1
  N  N38  1  0.87405811  0.21213856  0.79195014  1
  N  N39  1  0.83592174  0.10101610  0.56576314  1
  N  N40  1  0.51026508  0.22570004  0.29024042  1
  N  N41  1  0.45254614  0.11107605  0.07591347  1
  N  N42  1  0.21383440  0.20527990  0.88397276  1
  N  N43  1  0.16044656  0.09464698  0.62178460  1
  N  N44  1  0.88346198  0.18973185  0.33475290  1
  N  N45  1  0.77102398  0.10610739  0.05667899  1
  N  N46  1  0.54360107  0.21108895  0.79915970  1
  N  N47  1  0.49927495  0.09479140  0.57788234  1
  N  N48  1  0.21347076  0.54878734  0.38253236  1
  N  N49  1  0.11156928  0.42648757  0.13666370  1
  N  N50  1  0.88542468  0.53404892  0.82515850  1
  N  N51  1  0.77946300  0.40552257  0.58244967  1
  N  N52  1  0.55891149  0.53144363  0.32728287  1
  N  N53  1  0.44997627  0.40593391  0.07843978  1
  N  N54  1  0.21527631  0.53870921  0.87861235  1
  N  N55  1  0.11895106  0.40013595  0.62105383  1
  N  N56  1  0.87984916  0.54236628  0.33447180  1
  N  N57  1  0.77772785  0.42251753  0.07679737  1
  N  N58  1  0.55294389  0.53660945  0.82913812  1
  N  N59  1  0.45481905  0.39804375  0.58188685  1
  N  N60  1  0.22555143  0.87037138  0.37855278  1
  N  N61  1  0.10677152  0.76374209  0.12939736  1
  N  N62  1  0.88960119  0.86798518  0.85881016  1
  N  N63  1  0.78409081  0.75308958  0.58077991  1
  N  N64  1  0.55478450  0.87911284  0.32873185  1
  N  N65  1  0.44734041  0.76010635  0.07980226  1
  N  N66  1  0.21197463  0.88083686  0.87730496  1
  N  N67  1  0.12509346  0.75299223  0.63107593  1
  N  N68  1  0.89054474  0.89797243  0.38524147  1
  N  N69  1  0.77294401  0.75984779  0.07673716  1
  N  N70  1  0.55321682  0.87337305  0.82674842  1
  N  N71  1  0.46191369  0.75004049  0.57722445  1
