# generated using pymatgen
data_Al31B5N36
_symmetry_space_group_name_H-M   'P 1'
_cell_length_a   9.31730053
_cell_length_b   9.17303067
_cell_length_c   9.97726665
_cell_angle_alpha   90.15127932
_cell_angle_beta   89.89344204
_cell_angle_gamma   60.27384101
_symmetry_Int_Tables_number   1
_chemical_formula_structural   Al31B5N36
_chemical_formula_sum   'Al31 B5 N36'
_cell_volume   740.51276066
_cell_formula_units_Z   1
loop_
 _symmetry_equiv_pos_site_id
 _symmetry_equiv_pos_as_xyz
  1  'x, y, z'
loop_
 _atom_site_type_symbol
 _atom_site_label
 _atom_site_symmetry_multiplicity
 _atom_site_fract_x
 _atom_site_fract_y
 _atom_site_fract_z
 _atom_site_occupancy
  Al  Al0  1  0.09669211  0.09927064  0.33534995  1
  Al  Al1  1  0.22308380  0.20820709  0.07809084  1
  Al  Al2  1  0.79091861  0.09466670  0.80486904  1
  Al  Al3  1  0.45124465  0.10196937  0.40543661  1
  Al  Al4  1  0.11921827  0.09691985  0.81448712  1
  Al  Al5  1  0.88651332  0.20532776  0.07459364  1
  Al  Al6  1  0.46021828  0.09261578  0.89573719  1
  Al  Al7  1  0.10486849  0.42915150  0.32412657  1
  Al  Al8  1  0.22562072  0.53274495  0.07185372  1
  Al  Al9  1  0.78253600  0.41679004  0.81370224  1
  Al  Al10  1  0.88637064  0.52939858  0.56757978  1
  Al  Al11  1  0.44163571  0.42842615  0.31727444  1
  Al  Al12  1  0.55817359  0.53344926  0.07052417  1
  Al  Al13  1  0.11727872  0.41556030  0.81734793  1
  Al  Al14  1  0.22083091  0.52893175  0.56706418  1
  Al  Al15  1  0.76828285  0.42866035  0.32160127  1
  Al  Al16  1  0.88854131  0.53752834  0.06900844  1
  Al  Al17  1  0.44173561  0.43226418  0.82541818  1
  Al  Al18  1  0.55241824  0.52759100  0.56809014  1
  Al  Al19  1  0.10221106  0.76943799  0.31811139  1
  Al  Al20  1  0.21953864  0.87586176  0.07020966  1
  Al  Al21  1  0.78889817  0.75582676  0.82047328  1
  Al  Al22  1  0.89041168  0.88192563  0.56155030  1
  Al  Al23  1  0.43362000  0.76458731  0.32370331  1
  Al  Al24  1  0.55189727  0.88524721  0.14051936  1
  Al  Al25  1  0.10992512  0.76161880  0.81852529  1
  Al  Al26  1  0.22572854  0.87647048  0.57236725  1
  Al  Al27  1  0.77666973  0.76698988  0.32348496  1
  Al  Al28  1  0.88269602  0.87968401  0.07238691  1
  Al  Al29  1  0.44391592  0.75792924  0.82181721  1
  Al  Al30  1  0.55723618  0.88342232  0.63817118  1
  B  B31  1  0.83257361  0.22193515  0.54652734  1
  B  B32  1  0.55931163  0.20093753  0.15680754  1
  B  B33  1  0.16957924  0.22784699  0.56043446  1
  B  B34  1  0.77158368  0.09476847  0.31309299  1
  B  B35  1  0.50755420  0.22448184  0.65963864  1
  N  N36  1  0.20604771  0.21388162  0.40632954  1
  N  N37  1  0.10887522  0.09830183  0.14242633  1
  N  N38  1  0.89657619  0.20091270  0.88460995  1
  N  N39  1  0.82519253  0.09559920  0.62217039  1
  N  N40  1  0.56982062  0.19272006  0.31749049  1
  N  N41  1  0.46593312  0.11077038  0.08896244  1
  N  N42  1  0.22760380  0.20198068  0.89013569  1
  N  N43  1  0.15363528  0.09874089  0.62834101  1
  N  N44  1  0.85918190  0.20272389  0.38931174  1
  N  N45  1  0.76727831  0.10277742  0.14791509  1
  N  N46  1  0.55732769  0.20046488  0.80941193  1
  N  N47  1  0.48923399  0.10194879  0.58621748  1
  N  N48  1  0.21779198  0.54080197  0.37723817  1
  N  N49  1  0.10859403  0.42867880  0.13561617  1
  N  N50  1  0.89332171  0.53112545  0.87531484  1
  N  N51  1  0.78169324  0.39838902  0.61496508  1
  N  N52  1  0.54763154  0.54101350  0.37947197  1
  N  N53  1  0.45462258  0.40738578  0.12449119  1
  N  N54  1  0.22073637  0.53641370  0.87968737  1
  N  N55  1  0.11444509  0.40244336  0.62300883  1
  N  N56  1  0.88257106  0.54082515  0.37967895  1
  N  N57  1  0.77635018  0.42869768  0.13259542  1
  N  N58  1  0.56169676  0.53387004  0.87924993  1
  N  N59  1  0.44177432  0.41053295  0.62753346  1
  N  N60  1  0.21533741  0.87473725  0.38360249  1
  N  N61  1  0.10930453  0.76197677  0.12812797  1
  N  N62  1  0.88830715  0.87765048  0.88067525  1
  N  N63  1  0.79181954  0.75383231  0.62621462  1
  N  N64  1  0.54579747  0.88361061  0.33909123  1
  N  N65  1  0.43947794  0.76084972  0.12811727  1
  N  N66  1  0.22244869  0.87273878  0.87843732  1
  N  N67  1  0.11504700  0.75532759  0.62723540  1
  N  N68  1  0.87208368  0.90127845  0.36967155  1
  N  N69  1  0.78147530  0.75913532  0.12914522  1
  N  N70  1  0.55905103  0.87362838  0.83691963  1
  N  N71  1  0.44965327  0.75143327  0.62818037  1
