# generated using pymatgen
data_Al31B5N36
_symmetry_space_group_name_H-M   'P 1'
_cell_length_a   9.30415218
_cell_length_b   9.23082462
_cell_length_c   10.08631194
_cell_angle_alpha   89.50192690
_cell_angle_beta   90.29890751
_cell_angle_gamma   59.78050976
_symmetry_Int_Tables_number   1
_chemical_formula_structural   Al31B5N36
_chemical_formula_sum   'Al31 B5 N36'
_cell_volume   748.46649481
_cell_formula_units_Z   1
loop_
 _symmetry_equiv_pos_site_id
 _symmetry_equiv_pos_as_xyz
  1  'x, y, z'
loop_
 _atom_site_type_symbol
 _atom_site_label
 _atom_site_symmetry_multiplicity
 _atom_site_fract_x
 _atom_site_fract_y
 _atom_site_fract_z
 _atom_site_occupancy
  Al  Al0  1  0.10126506  0.09401260  0.32065790  1
  Al  Al1  1  0.22370592  0.20770857  0.07077895  1
  Al  Al2  1  0.78497740  0.09858215  0.80815800  1
  Al  Al3  1  0.45040813  0.10165134  0.40162294  1
  Al  Al4  1  0.10421196  0.10241915  0.82311694  1
  Al  Al5  1  0.88485268  0.20077491  0.09929886  1
  Al  Al6  1  0.45571235  0.09368954  0.88853570  1
  Al  Al7  1  0.11028063  0.42789617  0.32737197  1
  Al  Al8  1  0.22037242  0.53555479  0.07192466  1
  Al  Al9  1  0.77701227  0.42810332  0.89647831  1
  Al  Al10  1  0.88833778  0.53508678  0.59125328  1
  Al  Al11  1  0.45396303  0.41125208  0.38792749  1
  Al  Al12  1  0.55525080  0.52640938  0.14474099  1
  Al  Al13  1  0.11475656  0.41959780  0.81523004  1
  Al  Al14  1  0.21852946  0.53412911  0.56796419  1
  Al  Al15  1  0.77632190  0.40881968  0.38406856  1
  Al  Al16  1  0.88561050  0.53970989  0.12221335  1
  Al  Al17  1  0.45381131  0.41610677  0.89041962  1
  Al  Al18  1  0.56619380  0.51408546  0.63808138  1
  Al  Al19  1  0.10188881  0.76972614  0.31616044  1
  Al  Al20  1  0.22477153  0.87276490  0.06487983  1
  Al  Al21  1  0.77720156  0.75609434  0.88860484  1
  Al  Al22  1  0.89361810  0.89643100  0.55935849  1
  Al  Al23  1  0.43430797  0.76603635  0.32522886  1
  Al  Al24  1  0.55590631  0.88449432  0.14249486  1
  Al  Al25  1  0.10674753  0.76144970  0.81608914  1
  Al  Al26  1  0.22329864  0.87686740  0.56910828  1
  Al  Al27  1  0.76807753  0.77328254  0.38509450  1
  Al  Al28  1  0.88441738  0.88298677  0.06794100  1
  Al  Al29  1  0.44083568  0.76124174  0.81632013  1
  Al  Al30  1  0.56753329  0.88185969  0.64078740  1
  B  B31  1  0.90270563  0.20639977  0.60509336  1
  B  B32  1  0.55191231  0.20358111  0.14707790  1
  B  B33  1  0.15892717  0.23857113  0.55479692  1
  B  B34  1  0.77584618  0.09366246  0.29615988  1
  B  B35  1  0.50354130  0.22933408  0.65090617  1
  N  N36  1  0.20162939  0.21146819  0.40866745  1
  N  N37  1  0.12201958  0.09146910  0.13360642  1
  N  N38  1  0.89162555  0.19557208  0.89600846  1
  N  N39  1  0.83518701  0.10026720  0.63077899  1
  N  N40  1  0.55781594  0.20110765  0.30737061  1
  N  N41  1  0.46254413  0.10900310  0.08136311  1
  N  N42  1  0.22205734  0.20295848  0.88288675  1
  N  N43  1  0.09743051  0.12777221  0.61999407  1
  N  N44  1  0.86987026  0.19216399  0.32449268  1
  N  N45  1  0.75539254  0.09710657  0.13755106  1
  N  N46  1  0.54456922  0.21135343  0.80053179  1
  N  N47  1  0.48439481  0.10252012  0.58384742  1
  N  N48  1  0.21484333  0.54420962  0.38001805  1
  N  N49  1  0.11585351  0.42312056  0.13985025  1
  N  N50  1  0.88989156  0.53467203  0.84372834  1
  N  N51  1  0.79467254  0.39489472  0.57982352  1
  N  N52  1  0.55241848  0.53264249  0.33718917  1
  N  N53  1  0.46168254  0.39663497  0.08316506  1
  N  N54  1  0.21787444  0.53746591  0.87900950  1
  N  N55  1  0.12143801  0.40073027  0.61959869  1
  N  N56  1  0.88153912  0.53887150  0.35923185  1
  N  N57  1  0.77005946  0.43480550  0.08622980  1
  N  N58  1  0.56005965  0.52695149  0.82767868  1
  N  N59  1  0.45565316  0.39665117  0.58318895  1
  N  N60  1  0.21621790  0.87394075  0.38350192  1
  N  N61  1  0.11059241  0.76280563  0.12754630  1
  N  N62  1  0.88640012  0.87921406  0.87711822  1
  N  N63  1  0.78538666  0.76588170  0.57718290  1
  N  N64  1  0.54589587  0.88595127  0.33352595  1
  N  N65  1  0.44125628  0.76228140  0.12812745  1
  N  N66  1  0.22110430  0.87273208  0.87371400  1
  N  N67  1  0.11712726  0.75572492  0.62710385  1
  N  N68  1  0.87176933  0.90627586  0.36525610  1
  N  N69  1  0.77389288  0.76244233  0.08338484  1
  N  N70  1  0.55818542  0.87502705  0.83035688  1
  N  N71  1  0.44950824  0.75982865  0.62081262  1
