# generated using pymatgen
data_Al31B5N36
_symmetry_space_group_name_H-M   'P 1'
_cell_length_a   9.33652729
_cell_length_b   9.21045519
_cell_length_c   9.92879513
_cell_angle_alpha   89.91755821
_cell_angle_beta   89.92994752
_cell_angle_gamma   60.19259647
_symmetry_Int_Tables_number   1
_chemical_formula_structural   Al31B5N36
_chemical_formula_sum   'Al31 B5 N36'
_cell_volume   740.85412476
_cell_formula_units_Z   1
loop_
 _symmetry_equiv_pos_site_id
 _symmetry_equiv_pos_as_xyz
  1  'x, y, z'
loop_
 _atom_site_type_symbol
 _atom_site_label
 _atom_site_symmetry_multiplicity
 _atom_site_fract_x
 _atom_site_fract_y
 _atom_site_fract_z
 _atom_site_occupancy
  Al  Al0  1  0.09634837  0.09993283  0.33417000  1
  Al  Al1  1  0.22381145  0.20748139  0.07728457  1
  Al  Al2  1  0.78747503  0.09729436  0.80285550  1
  Al  Al3  1  0.45076299  0.09965756  0.40154298  1
  Al  Al4  1  0.11729872  0.09805528  0.81407221  1
  Al  Al5  1  0.88623582  0.20517662  0.07447550  1
  Al  Al6  1  0.45847345  0.09306582  0.89054255  1
  Al  Al7  1  0.10613039  0.42968514  0.32447132  1
  Al  Al8  1  0.22100781  0.53494914  0.07457050  1
  Al  Al9  1  0.78504902  0.41618498  0.81383703  1
  Al  Al10  1  0.88757763  0.52976722  0.56753559  1
  Al  Al11  1  0.44964554  0.41366695  0.38464308  1
  Al  Al12  1  0.55671849  0.53364932  0.09884784  1
  Al  Al13  1  0.11833427  0.41639789  0.81819736  1
  Al  Al14  1  0.21458874  0.53295651  0.57066454  1
  Al  Al15  1  0.77138870  0.42794639  0.32561526  1
  Al  Al16  1  0.88856707  0.53740175  0.06891508  1
  Al  Al17  1  0.45330017  0.41651194  0.88674233  1
  Al  Al18  1  0.55478299  0.52884744  0.59071640  1
  Al  Al19  1  0.10259298  0.76947041  0.31807458  1
  Al  Al20  1  0.21854978  0.87677036  0.06943576  1
  Al  Al21  1  0.78875197  0.75599872  0.82069249  1
  Al  Al22  1  0.88925524  0.88330548  0.56100608  1
  Al  Al23  1  0.43280819  0.76594173  0.32729846  1
  Al  Al24  1  0.55235644  0.88474086  0.13832459  1
  Al  Al25  1  0.11050621  0.76168420  0.81915123  1
  Al  Al26  1  0.22311967  0.87944603  0.57172499  1
  Al  Al27  1  0.77725498  0.76687943  0.32291440  1
  Al  Al28  1  0.88176686  0.88045162  0.07154312  1
  Al  Al29  1  0.44250335  0.75929322  0.82048691  1
  Al  Al30  1  0.55827463  0.88362414  0.63620643  1
  B  B31  1  0.83452429  0.22103595  0.54519571  1
  B  B32  1  0.55600421  0.20537232  0.15146852  1
  B  B33  1  0.16948100  0.22824149  0.56006653  1
  B  B34  1  0.77081779  0.09483546  0.30999991  1
  B  B35  1  0.50423415  0.22881571  0.65127201  1
  N  N36  1  0.20594148  0.21409607  0.40544904  1
  N  N37  1  0.10900488  0.09832245  0.14109337  1
  N  N38  1  0.89500531  0.20071241  0.88434714  1
  N  N39  1  0.82533337  0.09581535  0.62085232  1
  N  N40  1  0.56460632  0.19839912  0.31188141  1
  N  N41  1  0.46626856  0.10913705  0.08607911  1
  N  N42  1  0.22633567  0.20222587  0.88884517  1
  N  N43  1  0.15112229  0.10072019  0.62745260  1
  N  N44  1  0.85977201  0.20194603  0.38813337  1
  N  N45  1  0.76726903  0.10254901  0.14657207  1
  N  N46  1  0.54952974  0.20973849  0.80198043  1
  N  N47  1  0.49064858  0.09972539  0.58327839  1
  N  N48  1  0.21411997  0.54392366  0.37795221  1
  N  N49  1  0.10909776  0.42725079  0.13568469  1
  N  N50  1  0.89421633  0.53120701  0.87528606  1
  N  N51  1  0.78703149  0.39613272  0.61335390  1
  N  N52  1  0.54945185  0.54147645  0.37198092  1
  N  N53  1  0.46187735  0.39510928  0.08707331  1
  N  N54  1  0.22001320  0.53752667  0.87883036  1
  N  N55  1  0.11505566  0.40208190  0.62370564  1
  N  N56  1  0.88422696  0.54148303  0.37943757  1
  N  N57  1  0.77986505  0.42680066  0.13452268  1
  N  N58  1  0.56176180  0.53337167  0.85777096  1
  N  N59  1  0.44913968  0.39770546  0.58508752  1
  N  N60  1  0.21353526  0.87637388  0.38277580  1
  N  N61  1  0.10883237  0.76268021  0.12750303  1
  N  N62  1  0.88634205  0.87977954  0.87930371  1
  N  N63  1  0.79267680  0.75345081  0.62546401  1
  N  N64  1  0.54669339  0.88302059  0.33736600  1
  N  N65  1  0.43773777  0.76340414  0.12810440  1
  N  N66  1  0.22152670  0.87412778  0.87751795  1
  N  N67  1  0.11421167  0.75741548  0.62752437  1
  N  N68  1  0.87066398  0.90264608  0.36827549  1
  N  N69  1  0.78191821  0.75858259  0.12785314  1
  N  N70  1  0.55892079  0.87406196  0.83567741  1
  N  N71  1  0.44709987  0.75817168  0.62376717  1
