# generated using pymatgen
data_Al31B5N36
_symmetry_space_group_name_H-M   'P 1'
_cell_length_a   9.29488627
_cell_length_b   9.16547304
_cell_length_c   9.90281133
_cell_angle_alpha   90.05989325
_cell_angle_beta   89.58680514
_cell_angle_gamma   60.24771965
_symmetry_Int_Tables_number   1
_chemical_formula_structural   Al31B5N36
_chemical_formula_sum   'Al31 B5 N36'
_cell_volume   732.40166785
_cell_formula_units_Z   1
loop_
 _symmetry_equiv_pos_site_id
 _symmetry_equiv_pos_as_xyz
  1  'x, y, z'
loop_
 _atom_site_type_symbol
 _atom_site_label
 _atom_site_symmetry_multiplicity
 _atom_site_fract_x
 _atom_site_fract_y
 _atom_site_fract_z
 _atom_site_occupancy
  Al  Al0  1  0.09928129  0.09843038  0.32203779  1
  Al  Al1  1  0.23614929  0.20251515  0.06473979  1
  Al  Al2  1  0.78750898  0.09478467  0.80230207  1
  Al  Al3  1  0.44570547  0.10371758  0.37340371  1
  Al  Al4  1  0.11704717  0.09721667  0.80438696  1
  Al  Al5  1  0.88697126  0.20357515  0.06421443  1
  Al  Al6  1  0.44280213  0.09174372  0.79339020  1
  Al  Al7  1  0.10709618  0.42914482  0.30943250  1
  Al  Al8  1  0.22891755  0.53011666  0.05902083  1
  Al  Al9  1  0.78048296  0.41757960  0.80278971  1
  Al  Al10  1  0.88990073  0.52782004  0.55454255  1
  Al  Al11  1  0.44424642  0.43056421  0.31010218  1
  Al  Al12  1  0.55742668  0.53080259  0.05946317  1
  Al  Al13  1  0.11415202  0.41897833  0.80653479  1
  Al  Al14  1  0.22516130  0.52658034  0.55720815  1
  Al  Al15  1  0.77073132  0.42898588  0.30942818  1
  Al  Al16  1  0.88932609  0.53629976  0.05692311  1
  Al  Al17  1  0.44203063  0.43072232  0.80745581  1
  Al  Al18  1  0.55202547  0.53325724  0.55551158  1
  Al  Al19  1  0.10521588  0.76777199  0.30801959  1
  Al  Al20  1  0.22148661  0.87550774  0.05987560  1
  Al  Al21  1  0.78073283  0.76032588  0.80855988  1
  Al  Al22  1  0.88410381  0.88529552  0.55120027  1
  Al  Al23  1  0.44049409  0.76810006  0.30644062  1
  Al  Al24  1  0.55507533  0.88476676  0.06052309  1
  Al  Al25  1  0.11043504  0.76234543  0.80771617  1
  Al  Al26  1  0.22767456  0.87694289  0.55994941  1
  Al  Al27  1  0.77153617  0.77028951  0.30600776  1
  Al  Al28  1  0.88475444  0.87856275  0.06271782  1
  Al  Al29  1  0.44706275  0.75967886  0.81179177  1
  Al  Al30  1  0.56683053  0.86751607  0.56289984  1
  B  B31  1  0.82190042  0.22956380  0.53396304  1
  B  B32  1  0.55620702  0.19764246  0.15691743  1
  B  B33  1  0.16977673  0.22767192  0.54875554  1
  B  B34  1  0.77446904  0.09406256  0.30541294  1
  B  B35  1  0.55729583  0.20828821  0.63912875  1
  N  N36  1  0.20580999  0.21428462  0.39493210  1
  N  N37  1  0.10951568  0.09908883  0.12849143  1
  N  N38  1  0.89627939  0.20044445  0.87195564  1
  N  N39  1  0.77312341  0.11795717  0.60698173  1
  N  N40  1  0.57765710  0.19633390  0.32009368  1
  N  N41  1  0.45566603  0.10684700  0.12657732  1
  N  N42  1  0.23096937  0.20110402  0.87246146  1
  N  N43  1  0.14406386  0.10128606  0.61563762  1
  N  N44  1  0.86246194  0.20122486  0.38123286  1
  N  N45  1  0.76771466  0.10077678  0.13979925  1
  N  N46  1  0.56144315  0.20203035  0.80431867  1
  N  N47  1  0.48251820  0.09900124  0.59455247  1
  N  N48  1  0.21932333  0.53996505  0.36705873  1
  N  N49  1  0.10960014  0.42724114  0.11950119  1
  N  N50  1  0.88999616  0.53319078  0.86229916  1
  N  N51  1  0.78212607  0.39812754  0.60255314  1
  N  N52  1  0.55003753  0.54509338  0.36656648  1
  N  N53  1  0.45437367  0.40554809  0.11772283  1
  N  N54  1  0.22124476  0.53702058  0.86492641  1
  N  N55  1  0.11552289  0.40192392  0.61167293  1
  N  N56  1  0.88456999  0.54186323  0.36547865  1
  N  N57  1  0.77674618  0.42717334  0.11995761  1
  N  N58  1  0.55957709  0.53402342  0.86680329  1
  N  N59  1  0.45067228  0.40929112  0.61144488  1
  N  N60  1  0.22026581  0.87360516  0.36984109  1
  N  N61  1  0.11177379  0.75983672  0.11656890  1
  N  N62  1  0.88880274  0.87578998  0.86872649  1
  N  N63  1  0.79010285  0.75252715  0.61656445  1
  N  N64  1  0.55530203  0.87005871  0.37326192  1
  N  N65  1  0.44463911  0.76289065  0.11465908  1
  N  N66  1  0.22306811  0.87315000  0.86677433  1
  N  N67  1  0.11053840  0.76205251  0.61466678  1
  N  N68  1  0.87358348  0.89988920  0.35900426  1
  N  N69  1  0.77734896  0.76108550  0.11523748  1
  N  N70  1  0.55753800  0.87384015  0.86524565  1
  N  N71  1  0.45147696  0.75538124  0.62058309  1
