# generated using pymatgen
data_Al31B5N36
_symmetry_space_group_name_H-M   'P 1'
_cell_length_a   9.38934601
_cell_length_b   9.15111885
_cell_length_c   10.11005489
_cell_angle_alpha   89.82594151
_cell_angle_beta   90.32440846
_cell_angle_gamma   60.65078774
_symmetry_Int_Tables_number   1
_chemical_formula_structural   Al31B5N36
_chemical_formula_sum   'Al31 B5 N36'
_cell_volume   757.16037296
_cell_formula_units_Z   1
loop_
 _symmetry_equiv_pos_site_id
 _symmetry_equiv_pos_as_xyz
  1  'x, y, z'
loop_
 _atom_site_type_symbol
 _atom_site_label
 _atom_site_symmetry_multiplicity
 _atom_site_fract_x
 _atom_site_fract_y
 _atom_site_fract_z
 _atom_site_occupancy
  Al  Al0  1  0.12099341  0.09065619  0.32589353  1
  Al  Al1  1  0.21278762  0.21205383  0.06876734  1
  Al  Al2  1  0.77173707  0.09997262  0.86741524  1
  Al  Al3  1  0.44859702  0.10177348  0.39807563  1
  Al  Al4  1  0.11528924  0.09570997  0.80004549  1
  Al  Al5  1  0.87876132  0.19888131  0.14175863  1
  Al  Al6  1  0.44640876  0.09641413  0.88436547  1
  Al  Al7  1  0.11434713  0.42803576  0.32536121  1
  Al  Al8  1  0.21251211  0.54041877  0.06918784  1
  Al  Al9  1  0.77797214  0.42089545  0.88733748  1
  Al  Al10  1  0.88232096  0.53052725  0.63656021  1
  Al  Al11  1  0.44604302  0.41998524  0.38420090  1
  Al  Al12  1  0.55508081  0.52977030  0.13802266  1
  Al  Al13  1  0.11597115  0.41799213  0.81505791  1
  Al  Al14  1  0.21799161  0.53043673  0.56914866  1
  Al  Al15  1  0.77800758  0.41682035  0.39177518  1
  Al  Al16  1  0.87818047  0.54323936  0.14221230  1
  Al  Al17  1  0.44755589  0.41871845  0.88747961  1
  Al  Al18  1  0.55306966  0.52868136  0.64129371  1
  Al  Al19  1  0.10765814  0.76861420  0.31894217  1
  Al  Al20  1  0.21425405  0.88040561  0.06958952  1
  Al  Al21  1  0.77339090  0.75399551  0.88288819  1
  Al  Al22  1  0.90068625  0.87286431  0.58933986  1
  Al  Al23  1  0.45721868  0.75413755  0.38580470  1
  Al  Al24  1  0.55523335  0.88405948  0.14005334  1
  Al  Al25  1  0.11336313  0.75903862  0.81574325  1
  Al  Al26  1  0.22969749  0.87481358  0.56729299  1
  Al  Al27  1  0.77524506  0.77195881  0.39194075  1
  Al  Al28  1  0.89173536  0.87653413  0.06027744  1
  Al  Al29  1  0.44553426  0.76002914  0.88868234  1
  Al  Al30  1  0.56209092  0.87722838  0.63930415  1
  B  B31  1  0.84042762  0.23375023  0.64188314  1
  B  B32  1  0.48536563  0.23961420  0.14962990  1
  B  B33  1  0.16970865  0.22808777  0.55661181  1
  B  B34  1  0.85671809  0.07329086  0.42181007  1
  B  B35  1  0.50573569  0.22679741  0.64805407  1
  N  N36  1  0.20694807  0.21529584  0.40813034  1
  N  N37  1  0.11634415  0.09619893  0.13932533  1
  N  N38  1  0.87549547  0.21261107  0.79027530  1
  N  N39  1  0.83778117  0.10043394  0.56602751  1
  N  N40  1  0.49982221  0.23066621  0.29090191  1
  N  N41  1  0.44989340  0.11299930  0.07613357  1
  N  N42  1  0.21367682  0.20507875  0.88374350  1
  N  N43  1  0.16217893  0.09305684  0.62217915  1
  N  N44  1  0.88427481  0.18932467  0.33473021  1
  N  N45  1  0.78455694  0.10208963  0.05002415  1
  N  N46  1  0.54473097  0.21021187  0.79908408  1
  N  N47  1  0.49942417  0.09448628  0.57831483  1
  N  N48  1  0.21194316  0.54967687  0.38359846  1
  N  N49  1  0.11027821  0.42732413  0.13638235  1
  N  N50  1  0.88493107  0.53353659  0.82538936  1
  N  N51  1  0.77888413  0.40609556  0.58172790  1
  N  N52  1  0.55885284  0.53072797  0.32754934  1
  N  N53  1  0.44773820  0.40649001  0.07891598  1
  N  N54  1  0.21582493  0.53752865  0.87820798  1
  N  N55  1  0.11775801  0.40026039  0.62165577  1
  N  N56  1  0.87918224  0.54374602  0.33409970  1
  N  N57  1  0.77738765  0.42334875  0.07760446  1
  N  N58  1  0.55327608  0.53573354  0.82990835  1
  N  N59  1  0.45405804  0.39837316  0.58244473  1
  N  N60  1  0.22674426  0.86966101  0.37847144  1
  N  N61  1  0.10786229  0.76281991  0.12948210  1
  N  N62  1  0.89030926  0.86569990  0.85227315  1
  N  N63  1  0.78380352  0.75325263  0.58134232  1
  N  N64  1  0.55529296  0.87969350  0.32888427  1
  N  N65  1  0.44799594  0.75987667  0.08041924  1
  N  N66  1  0.21265849  0.87992636  0.87803192  1
  N  N67  1  0.12685184  0.75221272  0.63089967  1
  N  N68  1  0.89176254  0.89760485  0.38652345  1
  N  N69  1  0.77293797  0.76188275  0.07527329  1
  N  N70  1  0.55263805  0.87356560  0.82722674  1
  N  N71  1  0.46281323  0.74940026  0.57702511  1
