# generated using pymatgen
data_Al31B5N36
_symmetry_space_group_name_H-M   'P 1'
_cell_length_a   9.40265256
_cell_length_b   9.13312301
_cell_length_c   9.97600424
_cell_angle_alpha   90.05163563
_cell_angle_beta   90.55959657
_cell_angle_gamma   60.86303361
_symmetry_Int_Tables_number   1
_chemical_formula_structural   Al31B5N36
_chemical_formula_sum   'Al31 B5 N36'
_cell_volume   748.24450634
_cell_formula_units_Z   1
loop_
 _symmetry_equiv_pos_site_id
 _symmetry_equiv_pos_as_xyz
  1  'x, y, z'
loop_
 _atom_site_type_symbol
 _atom_site_label
 _atom_site_symmetry_multiplicity
 _atom_site_fract_x
 _atom_site_fract_y
 _atom_site_fract_z
 _atom_site_occupancy
  Al  Al0  1  0.11633061  0.09279399  0.34190057  1
  Al  Al1  1  0.21632896  0.20494623  0.08312900  1
  Al  Al2  1  0.77245844  0.09637356  0.88680653  1
  Al  Al3  1  0.45365657  0.09846858  0.40904551  1
  Al  Al4  1  0.10901891  0.10923085  0.80773416  1
  Al  Al5  1  0.87952601  0.20215037  0.15088713  1
  Al  Al6  1  0.44449694  0.09845723  0.89616326  1
  Al  Al7  1  0.10311671  0.43757999  0.40015584  1
  Al  Al8  1  0.21736020  0.54012827  0.15378772  1
  Al  Al9  1  0.77306133  0.42488646  0.89825538  1
  Al  Al10  1  0.88862776  0.52761070  0.65324972  1
  Al  Al11  1  0.44256334  0.42017822  0.39943603  1
  Al  Al12  1  0.55568178  0.52884927  0.15129243  1
  Al  Al13  1  0.10021566  0.43893072  0.90313885  1
  Al  Al14  1  0.22286528  0.52438047  0.65350576  1
  Al  Al15  1  0.77586629  0.41694742  0.40426028  1
  Al  Al16  1  0.88272709  0.54204045  0.15385052  1
  Al  Al17  1  0.43907150  0.42433385  0.90194706  1
  Al  Al18  1  0.55557542  0.52515290  0.65509656  1
  Al  Al19  1  0.11431655  0.76278788  0.40510331  1
  Al  Al20  1  0.22826827  0.86540875  0.15290192  1
  Al  Al21  1  0.77561286  0.76473512  0.90326818  1
  Al  Al22  1  0.89912291  0.87146080  0.64612011  1
  Al  Al23  1  0.45340321  0.75576029  0.40249915  1
  Al  Al24  1  0.55562204  0.88278221  0.15370056  1
  Al  Al25  1  0.10658024  0.76938417  0.89975974  1
  Al  Al26  1  0.23832559  0.86410537  0.64164718  1
  Al  Al27  1  0.77651636  0.77162271  0.40403764  1
  Al  Al28  1  0.88321513  0.88936319  0.15078161  1
  Al  Al29  1  0.43914566  0.76516896  0.90087946  1
  Al  Al30  1  0.56513767  0.87545706  0.65339395  1
  B  B31  1  0.84016309  0.22603235  0.65039039  1
  B  B32  1  0.49101243  0.23611488  0.16450883  1
  B  B33  1  0.17451057  0.22238185  0.55843097  1
  B  B34  1  0.85228063  0.06985309  0.42454312  1
  B  B35  1  0.50353906  0.22629592  0.66407683  1
  N  N36  1  0.21964816  0.20383085  0.40943688  1
  N  N37  1  0.11132257  0.09962931  0.14977205  1
  N  N38  1  0.87234861  0.21186818  0.80307359  1
  N  N39  1  0.83737500  0.08869576  0.57178428  1
  N  N40  1  0.51505463  0.22419095  0.30720581  1
  N  N41  1  0.44940203  0.11219149  0.09233488  1
  N  N42  1  0.21535044  0.20628239  0.89277168  1
  N  N43  1  0.15352014  0.09712496  0.62444627  1
  N  N44  1  0.88288642  0.19111976  0.34661365  1
  N  N45  1  0.78531274  0.09489876  0.06961485  1
  N  N46  1  0.54542026  0.21158392  0.81572286  1
  N  N47  1  0.49199291  0.09591843  0.59456193  1
  N  N48  1  0.21704942  0.54360317  0.34404503  1
  N  N49  1  0.09869508  0.43838534  0.09718076  1
  N  N50  1  0.88321641  0.53916552  0.84285565  1
  N  N51  1  0.77931364  0.40252952  0.59561260  1
  N  N52  1  0.55787752  0.53119221  0.34350345  1
  N  N53  1  0.44103938  0.40928140  0.09433946  1
  N  N54  1  0.21886537  0.54028848  0.84300913  1
  N  N55  1  0.10823446  0.40917334  0.59485422  1
  N  N56  1  0.88324215  0.53993711  0.34569415  1
  N  N57  1  0.77471148  0.42609606  0.09036741  1
  N  N58  1  0.55100169  0.53726864  0.84534957  1
  N  N59  1  0.44779545  0.40028493  0.59707696  1
  N  N60  1  0.23514784  0.86021761  0.34734355  1
  N  N61  1  0.10884156  0.76353346  0.09253657  1
  N  N62  1  0.88863109  0.87095676  0.83430203  1
  N  N63  1  0.78600297  0.75375081  0.59257312  1
  N  N64  1  0.55743786  0.87566498  0.34438163  1
  N  N65  1  0.44530035  0.76120933  0.09297680  1
  N  N66  1  0.22186370  0.87368964  0.83585422  1
  N  N67  1  0.12228082  0.74885916  0.59278733  1
  N  N68  1  0.88634825  0.90185267  0.35479800  1
  N  N69  1  0.77539036  0.76780218  0.09676915  1
  N  N70  1  0.55562080  0.87345428  0.84425239  1
  N  N71  1  0.46020707  0.74938512  0.59268274  1
