# generated using pymatgen
data_Al31B5N36
_symmetry_space_group_name_H-M   'P 1'
_cell_length_a   9.31958254
_cell_length_b   9.21213743
_cell_length_c   10.04882432
_cell_angle_alpha   89.65350871
_cell_angle_beta   90.16221745
_cell_angle_gamma   59.89479084
_symmetry_Int_Tables_number   1
_chemical_formula_structural   Al31B5N36
_chemical_formula_sum   'Al31 B5 N36'
_cell_volume   746.31717223
_cell_formula_units_Z   1
loop_
 _symmetry_equiv_pos_site_id
 _symmetry_equiv_pos_as_xyz
  1  'x, y, z'
loop_
 _atom_site_type_symbol
 _atom_site_label
 _atom_site_symmetry_multiplicity
 _atom_site_fract_x
 _atom_site_fract_y
 _atom_site_fract_z
 _atom_site_occupancy
  Al  Al0  1  0.09957732  0.09434790  0.32285058  1
  Al  Al1  1  0.22380885  0.20770253  0.07128680  1
  Al  Al2  1  0.78521884  0.09769170  0.80916786  1
  Al  Al3  1  0.45152674  0.10080566  0.40048065  1
  Al  Al4  1  0.10552164  0.10221845  0.82077378  1
  Al  Al5  1  0.88597804  0.19978505  0.09348960  1
  Al  Al6  1  0.45752548  0.09178727  0.88825958  1
  Al  Al7  1  0.10802511  0.42899517  0.32441270  1
  Al  Al8  1  0.22037622  0.53540866  0.07277300  1
  Al  Al9  1  0.77930552  0.42478565  0.86772816  1
  Al  Al10  1  0.88399892  0.53484035  0.56707531  1
  Al  Al11  1  0.45760195  0.41064158  0.38813075  1
  Al  Al12  1  0.54822879  0.53169861  0.13615277  1
  Al  Al13  1  0.11623801  0.41845066  0.81548032  1
  Al  Al14  1  0.21796213  0.53231792  0.56756158  1
  Al  Al15  1  0.77928237  0.41862509  0.32095492  1
  Al  Al16  1  0.89099016  0.54270638  0.07295753  1
  Al  Al17  1  0.45225296  0.41560927  0.88988306  1
  Al  Al18  1  0.56496791  0.51544735  0.63839707  1
  Al  Al19  1  0.10269931  0.76844106  0.31699517  1
  Al  Al20  1  0.22018187  0.87502526  0.06485562  1
  Al  Al21  1  0.78909577  0.75688316  0.81779804  1
  Al  Al22  1  0.88908129  0.89193209  0.56063341  1
  Al  Al23  1  0.43285188  0.76681719  0.32522509  1
  Al  Al24  1  0.55033481  0.88567512  0.13826598  1
  Al  Al25  1  0.10846234  0.76130019  0.81568750  1
  Al  Al26  1  0.21902374  0.87790444  0.56890117  1
  Al  Al27  1  0.77707235  0.76878045  0.32304685  1
  Al  Al28  1  0.88010604  0.87871837  0.06796614  1
  Al  Al29  1  0.43825538  0.76457941  0.81885069  1
  Al  Al30  1  0.55924451  0.88286438  0.63420299  1
  B  B31  1  0.89859013  0.21044410  0.61118500  1
  B  B32  1  0.55390053  0.20268666  0.14722427  1
  B  B33  1  0.15573491  0.23965512  0.55527552  1
  B  B34  1  0.77623215  0.09475204  0.29828049  1
  B  B35  1  0.50617108  0.22820471  0.65023424  1
  N  N36  1  0.20113753  0.21260405  0.40838878  1
  N  N37  1  0.12014375  0.09290639  0.13403851  1
  N  N38  1  0.89129685  0.19775604  0.89749130  1
  N  N39  1  0.83712717  0.09671000  0.63237913  1
  N  N40  1  0.56010184  0.19996427  0.30711039  1
  N  N41  1  0.46287693  0.10898284  0.08102651  1
  N  N42  1  0.22337006  0.20194109  0.88248646  1
  N  N43  1  0.09836963  0.12611884  0.62027769  1
  N  N44  1  0.87029430  0.18988778  0.33246682  1
  N  N45  1  0.75727355  0.09704401  0.13695283  1
  N  N46  1  0.54621060  0.21030815  0.80067749  1
  N  N47  1  0.48731914  0.10150385  0.58221623  1
  N  N48  1  0.21709782  0.54153681  0.37860950  1
  N  N49  1  0.11225689  0.42506970  0.13729236  1
  N  N50  1  0.89686632  0.53675432  0.88176003  1
  N  N51  1  0.79778854  0.39718939  0.61940691  1
  N  N52  1  0.55014665  0.53504045  0.33290761  1
  N  N53  1  0.46106686  0.39546876  0.08163689  1
  N  N54  1  0.21810619  0.53760734  0.87820173  1
  N  N55  1  0.11612745  0.40283774  0.62154878  1
  N  N56  1  0.88331691  0.54006577  0.37829843  1
  N  N57  1  0.77546406  0.43339786  0.11351469  1
  N  N58  1  0.55494390  0.53201428  0.83341472  1
  N  N59  1  0.45580296  0.39680309  0.58382876  1
  N  N60  1  0.21555744  0.87367040  0.38277251  1
  N  N61  1  0.10871623  0.76328374  0.12694326  1
  N  N62  1  0.88630887  0.87710127  0.87907719  1
  N  N63  1  0.79389297  0.75740502  0.62462197  1
  N  N64  1  0.54467700  0.88455070  0.33628477  1
  N  N65  1  0.43746297  0.76528548  0.12333257  1
  N  N66  1  0.21820958  0.87513274  0.87355047  1
  N  N67  1  0.11599708  0.75447186  0.62648935  1
  N  N68  1  0.87166767  0.90246438  0.36895961  1
  N  N69  1  0.78116320  0.76061367  0.13147738  1
  N  N70  1  0.55852946  0.87360372  0.83163877  1
  N  N71  1  0.44497864  0.76011461  0.62118360  1
