# generated using pymatgen
data_Al31B5N36
_symmetry_space_group_name_H-M   'P 1'
_cell_length_a   9.27302933
_cell_length_b   9.15225157
_cell_length_c   9.92260660
_cell_angle_alpha   89.98063844
_cell_angle_beta   89.50314191
_cell_angle_gamma   60.11692586
_symmetry_Int_Tables_number   1
_chemical_formula_structural   Al31B5N36
_chemical_formula_sum   'Al31 B5 N36'
_cell_volume   730.12222110
_cell_formula_units_Z   1
loop_
 _symmetry_equiv_pos_site_id
 _symmetry_equiv_pos_as_xyz
  1  'x, y, z'
loop_
 _atom_site_type_symbol
 _atom_site_label
 _atom_site_symmetry_multiplicity
 _atom_site_fract_x
 _atom_site_fract_y
 _atom_site_fract_z
 _atom_site_occupancy
  Al  Al0  1  0.09767896  0.09875634  0.32240154  1
  Al  Al1  1  0.23048494  0.20435661  0.06218004  1
  Al  Al2  1  0.77631027  0.10004041  0.80916994  1
  Al  Al3  1  0.44214340  0.09836481  0.32867252  1
  Al  Al4  1  0.11933743  0.09664344  0.80218997  1
  Al  Al5  1  0.88494624  0.20382120  0.06191049  1
  Al  Al6  1  0.45425274  0.09814824  0.80645762  1
  Al  Al7  1  0.10758600  0.42942334  0.30956943  1
  Al  Al8  1  0.22847695  0.53053830  0.05697763  1
  Al  Al9  1  0.78156617  0.41694712  0.80302889  1
  Al  Al10  1  0.89036478  0.52784624  0.55414164  1
  Al  Al11  1  0.44563138  0.42777048  0.31201568  1
  Al  Al12  1  0.55713565  0.53106759  0.05730860  1
  Al  Al13  1  0.11658437  0.41744693  0.80498705  1
  Al  Al14  1  0.22636706  0.52499840  0.55809967  1
  Al  Al15  1  0.77072273  0.42872472  0.30876823  1
  Al  Al16  1  0.88906283  0.53697331  0.05582090  1
  Al  Al17  1  0.45007409  0.41845999  0.81270528  1
  Al  Al18  1  0.55299182  0.53413849  0.55729627  1
  Al  Al19  1  0.10478258  0.76743573  0.30766023  1
  Al  Al20  1  0.22052204  0.87566843  0.05885151  1
  Al  Al21  1  0.78070614  0.76029561  0.80689138  1
  Al  Al22  1  0.88276407  0.88518970  0.55219409  1
  Al  Al23  1  0.44028585  0.76585164  0.30725913  1
  Al  Al24  1  0.55559752  0.88156878  0.05899556  1
  Al  Al25  1  0.11154700  0.76206904  0.80703072  1
  Al  Al26  1  0.22767154  0.87680651  0.55878912  1
  Al  Al27  1  0.77218354  0.76936546  0.30685894  1
  Al  Al28  1  0.88234381  0.88008789  0.06070887  1
  Al  Al29  1  0.44737309  0.76093855  0.81039523  1
  Al  Al30  1  0.56139920  0.87713014  0.56181034  1
  B  B31  1  0.82057078  0.23287139  0.53403403  1
  B  B32  1  0.55643402  0.20475639  0.14481856  1
  B  B33  1  0.17515099  0.22487612  0.54623766  1
  B  B34  1  0.77001079  0.09422246  0.30665082  1
  B  B35  1  0.56201156  0.20599525  0.60380003  1
  N  N36  1  0.21068272  0.21137419  0.39144076  1
  N  N37  1  0.10732533  0.09937713  0.12873616  1
  N  N38  1  0.89831665  0.19862961  0.86975193  1
  N  N39  1  0.76037497  0.12467062  0.60525437  1
  N  N40  1  0.57714204  0.19571734  0.32968198  1
  N  N41  1  0.45225000  0.10749929  0.13083432  1
  N  N42  1  0.23239780  0.20010983  0.87266213  1
  N  N43  1  0.14419166  0.10132988  0.61283250  1
  N  N44  1  0.86199172  0.20181838  0.38275420  1
  N  N45  1  0.76233597  0.10381942  0.14092280  1
  N  N46  1  0.56399794  0.20310657  0.86567892  1
  N  N47  1  0.48803644  0.09880408  0.61460930  1
  N  N48  1  0.22013970  0.53954553  0.36823833  1
  N  N49  1  0.10939669  0.42806790  0.11971818  1
  N  N50  1  0.89151504  0.53259987  0.86151146  1
  N  N51  1  0.78345643  0.39809493  0.60309174  1
  N  N52  1  0.55028222  0.54368325  0.36843863  1
  N  N53  1  0.45422138  0.40615247  0.12024093  1
  N  N54  1  0.22338166  0.53605435  0.86304107  1
  N  N55  1  0.11732558  0.40031945  0.60971314  1
  N  N56  1  0.88468752  0.54095939  0.36535359  1
  N  N57  1  0.77629956  0.42742204  0.11939408  1
  N  N58  1  0.55955174  0.53517127  0.86508887  1
  N  N59  1  0.45648835  0.40138678  0.61242186  1
  N  N60  1  0.21946582  0.87335821  0.36931537  1
  N  N61  1  0.11021324  0.76047361  0.11618772  1
  N  N62  1  0.88970187  0.87466525  0.86701073  1
  N  N63  1  0.78807152  0.75303176  0.61486413  1
  N  N64  1  0.55325079  0.87223798  0.37186807  1
  N  N65  1  0.44384036  0.76243259  0.11574841  1
  N  N66  1  0.22362174  0.87311179  0.86645330  1
  N  N67  1  0.11063314  0.76217576  0.61425145  1
  N  N68  1  0.87295048  0.89991702  0.35990212  1
  N  N69  1  0.77676157  0.76167003  0.11632292  1
  N  N70  1  0.55857087  0.87258896  0.86739162  1
  N  N71  1  0.45152512  0.75714354  0.61946843  1
