# generated using pymatgen
data_Al31B5N36
_symmetry_space_group_name_H-M   'P 1'
_cell_length_a   9.30720946
_cell_length_b   9.17763698
_cell_length_c   10.03358002
_cell_angle_alpha   89.91607165
_cell_angle_beta   90.55939379
_cell_angle_gamma   60.14523315
_symmetry_Int_Tables_number   1
_chemical_formula_structural   Al31B5N36
_chemical_formula_sum   'Al31 B5 N36'
_cell_volume   743.25592594
_cell_formula_units_Z   1
loop_
 _symmetry_equiv_pos_site_id
 _symmetry_equiv_pos_as_xyz
  1  'x, y, z'
loop_
 _atom_site_type_symbol
 _atom_site_label
 _atom_site_symmetry_multiplicity
 _atom_site_fract_x
 _atom_site_fract_y
 _atom_site_fract_z
 _atom_site_occupancy
  Al  Al0  1  0.11171882  0.09166315  0.32797719  1
  Al  Al1  1  0.22064741  0.20943078  0.07355311  1
  Al  Al2  1  0.76544831  0.10345404  0.86858107  1
  Al  Al3  1  0.46044286  0.09759185  0.39726910  1
  Al  Al4  1  0.11519872  0.09887598  0.80015618  1
  Al  Al5  1  0.87363559  0.20499303  0.13971176  1
  Al  Al6  1  0.45021427  0.09510246  0.88738782  1
  Al  Al7  1  0.11447570  0.42556787  0.32662851  1
  Al  Al8  1  0.21938600  0.53630167  0.07421836  1
  Al  Al9  1  0.77916934  0.42443274  0.88402821  1
  Al  Al10  1  0.88421895  0.53085445  0.63465438  1
  Al  Al11  1  0.45830935  0.41124545  0.38463998  1
  Al  Al12  1  0.55533618  0.53344319  0.13840592  1
  Al  Al13  1  0.12168831  0.41691903  0.81555690  1
  Al  Al14  1  0.21839084  0.53219601  0.56759817  1
  Al  Al15  1  0.77731239  0.41345977  0.39329592  1
  Al  Al16  1  0.88107206  0.53863540  0.14188727  1
  Al  Al17  1  0.44969814  0.42082953  0.88972959  1
  Al  Al18  1  0.55207866  0.53085087  0.64084974  1
  Al  Al19  1  0.10329495  0.76982603  0.31912723  1
  Al  Al20  1  0.21323614  0.88065879  0.06841599  1
  Al  Al21  1  0.77650271  0.75396567  0.88601599  1
  Al  Al22  1  0.89078649  0.88660182  0.57047918  1
  Al  Al23  1  0.45213297  0.75591711  0.38749480  1
  Al  Al24  1  0.55472654  0.88055367  0.14105733  1
  Al  Al25  1  0.10920977  0.76242891  0.81585558  1
  Al  Al26  1  0.22447518  0.87846015  0.56898957  1
  Al  Al27  1  0.77286397  0.76462831  0.38844899  1
  Al  Al28  1  0.88491497  0.87783120  0.06922739  1
  Al  Al29  1  0.44559133  0.76176809  0.88659373  1
  Al  Al30  1  0.56128925  0.87879079  0.63918805  1
  B  B31  1  0.82888904  0.23359510  0.64142880  1
  B  B32  1  0.56226866  0.20308577  0.13665160  1
  B  B33  1  0.17736317  0.22578322  0.55539070  1
  B  B34  1  0.78176162  0.10098782  0.38297544  1
  B  B35  1  0.51320829  0.22527061  0.64751055  1
  N  N36  1  0.21404292  0.21035321  0.40331941  1
  N  N37  1  0.11236534  0.09752127  0.13655897  1
  N  N38  1  0.87425945  0.21160040  0.79511621  1
  N  N39  1  0.79966273  0.11669305  0.56743626  1
  N  N40  1  0.58224580  0.19217462  0.31082978  1
  N  N41  1  0.46249638  0.10866389  0.08338401  1
  N  N42  1  0.21713009  0.20438855  0.88666111  1
  N  N43  1  0.15912412  0.09675338  0.62042810  1
  N  N44  1  0.87301519  0.19186052  0.32837002  1
  N  N45  1  0.74625274  0.11513525  0.06814278  1
  N  N46  1  0.54346442  0.21220801  0.80158684  1
  N  N47  1  0.49432242  0.09711882  0.58070256  1
  N  N48  1  0.21895106  0.54296479  0.37881492  1
  N  N49  1  0.11401876  0.42539703  0.13764133  1
  N  N50  1  0.88833265  0.53530766  0.82471157  1
  N  N51  1  0.77909135  0.40634804  0.58358440  1
  N  N52  1  0.55700169  0.53441971  0.32810722  1
  N  N53  1  0.45938003  0.40049032  0.08460022  1
  N  N54  1  0.21718378  0.54006750  0.88058784  1
  N  N55  1  0.12224604  0.39913644  0.61986545  1
  N  N56  1  0.87988135  0.53692790  0.33486388  1
  N  N57  1  0.77774699  0.42409799  0.07346087  1
  N  N58  1  0.55289423  0.53805891  0.82934303  1
  N  N59  1  0.45470460  0.39975973  0.58325044  1
  N  N60  1  0.22046650  0.87092270  0.37985094  1
  N  N61  1  0.10736950  0.76433501  0.12975127  1
  N  N62  1  0.89043000  0.87183394  0.87162173  1
  N  N63  1  0.78475453  0.75428552  0.57921236  1
  N  N64  1  0.55102320  0.87811806  0.32923784  1
  N  N65  1  0.44712030  0.76084999  0.07948129  1
  N  N66  1  0.21134957  0.88194601  0.87537085  1
  N  N67  1  0.11658053  0.75838217  0.62801178  1
  N  N68  1  0.87640730  0.89986752  0.37270102  1
  N  N69  1  0.77358322  0.75735451  0.07930065  1
  N  N70  1  0.55489996  0.87365920  0.82793212  1
  N  N71  1  0.45984656  0.75209170  0.57919438  1
