# generated using pymatgen
data_Al31B5N36
_symmetry_space_group_name_H-M   'P 1'
_cell_length_a   9.38588735
_cell_length_b   9.15193136
_cell_length_c   9.92076199
_cell_angle_alpha   89.94601140
_cell_angle_beta   90.52420481
_cell_angle_gamma   60.62569621
_symmetry_Int_Tables_number   1
_chemical_formula_structural   Al31B5N36
_chemical_formula_sum   'Al31 B5 N36'
_cell_volume   742.57608277
_cell_formula_units_Z   1
loop_
 _symmetry_equiv_pos_site_id
 _symmetry_equiv_pos_as_xyz
  1  'x, y, z'
loop_
 _atom_site_type_symbol
 _atom_site_label
 _atom_site_symmetry_multiplicity
 _atom_site_fract_x
 _atom_site_fract_y
 _atom_site_fract_z
 _atom_site_occupancy
  Al  Al0  1  0.11481939  0.09471897  0.33772051  1
  Al  Al1  1  0.21682336  0.20693453  0.10511620  1
  Al  Al2  1  0.77128079  0.09604620  0.88616369  1
  Al  Al3  1  0.44347517  0.10372879  0.39359819  1
  Al  Al4  1  0.11104642  0.10762409  0.81166461  1
  Al  Al5  1  0.87643740  0.20138229  0.14862644  1
  Al  Al6  1  0.44190328  0.09780465  0.90189421  1
  Al  Al7  1  0.10971775  0.42589578  0.39862529  1
  Al  Al8  1  0.21747771  0.53909680  0.15510724  1
  Al  Al9  1  0.77526061  0.42408714  0.89793575  1
  Al  Al10  1  0.89371729  0.52404534  0.65005352  1
  Al  Al11  1  0.44400484  0.41982258  0.39768691  1
  Al  Al12  1  0.55560102  0.52941691  0.15091625  1
  Al  Al13  1  0.10219311  0.43550632  0.90626376  1
  Al  Al14  1  0.22199043  0.53030514  0.65335135  1
  Al  Al15  1  0.77702391  0.41624410  0.40351401  1
  Al  Al16  1  0.88298907  0.54174995  0.15570460  1
  Al  Al17  1  0.43942523  0.42375431  0.90221520  1
  Al  Al18  1  0.55791072  0.52449355  0.65498913  1
  Al  Al19  1  0.11448657  0.76284658  0.40331109  1
  Al  Al20  1  0.22595973  0.86562042  0.15024186  1
  Al  Al21  1  0.77598772  0.76303707  0.90172664  1
  Al  Al22  1  0.89884206  0.87292737  0.64639141  1
  Al  Al23  1  0.45264100  0.75623552  0.40122429  1
  Al  Al24  1  0.55606856  0.88138933  0.15363489  1
  Al  Al25  1  0.10673564  0.76773812  0.90044044  1
  Al  Al26  1  0.23862566  0.86573576  0.64172376  1
  Al  Al27  1  0.77747851  0.77162085  0.40379617  1
  Al  Al28  1  0.88134467  0.88949038  0.15019942  1
  Al  Al29  1  0.43925541  0.76443577  0.90069462  1
  Al  Al30  1  0.55555085  0.87896364  0.65207300  1
  B  B31  1  0.84021932  0.22560693  0.65021303  1
  B  B32  1  0.50385615  0.23077310  0.16454738  1
  B  B33  1  0.23014830  0.20569754  0.59885723  1
  B  B34  1  0.84834646  0.07154982  0.42262865  1
  B  B35  1  0.48796139  0.23754770  0.66496567  1
  N  N36  1  0.22527388  0.20779853  0.35089046  1
  N  N37  1  0.10367752  0.09500182  0.13914712  1
  N  N38  1  0.87288505  0.21009465  0.80321947  1
  N  N39  1  0.83186407  0.09062436  0.57178556  1
  N  N40  1  0.52936165  0.22036281  0.30965294  1
  N  N41  1  0.45374332  0.11101635  0.09526312  1
  N  N42  1  0.21542074  0.20473065  0.89905319  1
  N  N43  1  0.16420179  0.09641088  0.62452815  1
  N  N44  1  0.88137631  0.19135985  0.34580225  1
  N  N45  1  0.77458398  0.09833198  0.07059795  1
  N  N46  1  0.54181668  0.20930990  0.81140166  1
  N  N47  1  0.43129688  0.12417190  0.59723938  1
  N  N48  1  0.21798898  0.54265746  0.34609976  1
  N  N49  1  0.09692821  0.44159831  0.09740398  1
  N  N50  1  0.88527686  0.53766324  0.84036047  1
  N  N51  1  0.78136722  0.40142297  0.59531521  1
  N  N52  1  0.55800585  0.53215050  0.34367970  1
  N  N53  1  0.44287561  0.40829912  0.09483039  1
  N  N54  1  0.21916201  0.53953351  0.84323926  1
  N  N55  1  0.12346886  0.40047675  0.59579120  1
  N  N56  1  0.88439792  0.53998058  0.34963654  1
  N  N57  1  0.77479452  0.42644867  0.09060221  1
  N  N58  1  0.55195780  0.53573681  0.84539094  1
  N  N59  1  0.44881876  0.40061785  0.59694515  1
  N  N60  1  0.23418168  0.86172076  0.34679524  1
  N  N61  1  0.10753120  0.76226997  0.09298983  1
  N  N62  1  0.88814664  0.87108039  0.83500196  1
  N  N63  1  0.78079660  0.76037923  0.59375357  1
  N  N64  1  0.55811290  0.87565203  0.34601183  1
  N  N65  1  0.44533657  0.76119941  0.09303440  1
  N  N66  1  0.22157962  0.87183539  0.83613217  1
  N  N67  1  0.12117781  0.75255576  0.59238311  1
  N  N68  1  0.88573914  0.90206947  0.35411288  1
  N  N69  1  0.77516129  0.76662376  0.09640821  1
  N  N70  1  0.55418872  0.87455188  0.84317431  1
  N  N71  1  0.46029289  0.74736512  0.59214451  1
