# generated using pymatgen
data_Al31B5N36
_symmetry_space_group_name_H-M   'P 1'
_cell_length_a   9.31725995
_cell_length_b   9.20990165
_cell_length_c   10.07307914
_cell_angle_alpha   89.56318380
_cell_angle_beta   90.16593905
_cell_angle_gamma   59.81726094
_symmetry_Int_Tables_number   1
_chemical_formula_structural   Al31B5N36
_chemical_formula_sum   'Al31 B5 N36'
_cell_volume   747.14972731
_cell_formula_units_Z   1
loop_
 _symmetry_equiv_pos_site_id
 _symmetry_equiv_pos_as_xyz
  1  'x, y, z'
loop_
 _atom_site_type_symbol
 _atom_site_label
 _atom_site_symmetry_multiplicity
 _atom_site_fract_x
 _atom_site_fract_y
 _atom_site_fract_z
 _atom_site_occupancy
  Al  Al0  1  0.10135559  0.09424302  0.32091465  1
  Al  Al1  1  0.22390861  0.20795692  0.07032251  1
  Al  Al2  1  0.78576741  0.09872154  0.80842675  1
  Al  Al3  1  0.45166376  0.10058116  0.40053460  1
  Al  Al4  1  0.10423386  0.10289308  0.82163767  1
  Al  Al5  1  0.88518133  0.20136261  0.10067442  1
  Al  Al6  1  0.45771071  0.09145966  0.88798435  1
  Al  Al7  1  0.10684117  0.42977845  0.32357592  1
  Al  Al8  1  0.22168398  0.53550142  0.07241782  1
  Al  Al9  1  0.77363769  0.42758416  0.89829261  1
  Al  Al10  1  0.88736059  0.53896476  0.56676681  1
  Al  Al11  1  0.45467637  0.41112138  0.38757054  1
  Al  Al12  1  0.55541260  0.52730274  0.14259194  1
  Al  Al13  1  0.11562854  0.41871844  0.81621247  1
  Al  Al14  1  0.21804320  0.53277011  0.56778711  1
  Al  Al15  1  0.77639766  0.41176602  0.37638391  1
  Al  Al16  1  0.89197336  0.54387952  0.07429938  1
  Al  Al17  1  0.45392228  0.41551239  0.88953713  1
  Al  Al18  1  0.56668514  0.51391950  0.63739034  1
  Al  Al19  1  0.10207744  0.76922541  0.31637053  1
  Al  Al20  1  0.22153467  0.87396474  0.06445332  1
  Al  Al21  1  0.78929549  0.75623859  0.81806777  1
  Al  Al22  1  0.88836988  0.89258792  0.56023448  1
  Al  Al23  1  0.43307596  0.76665873  0.32522943  1
  Al  Al24  1  0.54972338  0.88545555  0.13810107  1
  Al  Al25  1  0.10868238  0.76125184  0.81580776  1
  Al  Al26  1  0.21940047  0.87738449  0.56867224  1
  Al  Al27  1  0.77677433  0.76943070  0.32177560  1
  Al  Al28  1  0.87999205  0.87938530  0.06649872  1
  Al  Al29  1  0.43989077  0.76223045  0.81752123  1
  Al  Al30  1  0.55862369  0.88345524  0.63475534  1
  B  B31  1  0.89999966  0.20771442  0.60523524  1
  B  B32  1  0.55351465  0.20304805  0.14636641  1
  B  B33  1  0.15548551  0.24023591  0.55506856  1
  B  B34  1  0.77466763  0.09431349  0.29641286  1
  B  B35  1  0.50553919  0.22841688  0.65019092  1
  N  N36  1  0.20019570  0.21335971  0.40861420  1
  N  N37  1  0.12194586  0.09221517  0.13361134  1
  N  N38  1  0.89215030  0.19612279  0.89567242  1
  N  N39  1  0.83516739  0.09843626  0.63056405  1
  N  N40  1  0.55971336  0.20019793  0.30683850  1
  N  N41  1  0.46272688  0.10915441  0.08045676  1
  N  N42  1  0.22362353  0.20152844  0.88204226  1
  N  N43  1  0.09609427  0.12771482  0.61970614  1
  N  N44  1  0.87029448  0.19144907  0.32441656  1
  N  N45  1  0.75620958  0.09648733  0.13655361  1
  N  N46  1  0.54612605  0.20999205  0.80006489  1
  N  N47  1  0.48614624  0.10207606  0.58204648  1
  N  N48  1  0.21593011  0.54226256  0.37882673  1
  N  N49  1  0.11321755  0.42503782  0.13724150  1
  N  N50  1  0.89719502  0.53637767  0.87987370  1
  N  N51  1  0.79418650  0.39608962  0.58217853  1
  N  N52  1  0.55200719  0.53332043  0.33517621  1
  N  N53  1  0.46243471  0.39616200  0.08222154  1
  N  N54  1  0.21928516  0.53712971  0.87816750  1
  N  N55  1  0.11609353  0.40292612  0.62206086  1
  N  N56  1  0.88385052  0.54281657  0.37794505  1
  N  N57  1  0.77117941  0.43600693  0.08970648  1
  N  N58  1  0.56021778  0.52771550  0.82782438  1
  N  N59  1  0.45546162  0.39677712  0.58320832  1
  N  N60  1  0.21524790  0.87396473  0.38292035  1
  N  N61  1  0.10849622  0.76368115  0.12673519  1
  N  N62  1  0.88620568  0.87725589  0.87816069  1
  N  N63  1  0.79321735  0.75928607  0.62510507  1
  N  N64  1  0.54430213  0.88493862  0.33601348  1
  N  N65  1  0.43842119  0.76292954  0.12541451  1
  N  N66  1  0.21990819  0.87383404  0.87321974  1
  N  N67  1  0.11547496  0.75510795  0.62648955  1
  N  N68  1  0.87094870  0.90360040  0.36871289  1
  N  N69  1  0.78087437  0.76178049  0.13117522  1
  N  N70  1  0.55831408  0.87313800  0.83136045  1
  N  N71  1  0.44549754  0.75983180  0.62030066  1
