# generated using pymatgen
data_Al31B5N36
_symmetry_space_group_name_H-M   'P 1'
_cell_length_a   9.38562653
_cell_length_b   9.14830483
_cell_length_c   9.93366055
_cell_angle_alpha   89.98555595
_cell_angle_beta   90.54786902
_cell_angle_gamma   60.67871385
_symmetry_Int_Tables_number   1
_chemical_formula_structural   Al31B5N36
_chemical_formula_sum   'Al31 B5 N36'
_cell_volume   743.61270561
_cell_formula_units_Z   1
loop_
 _symmetry_equiv_pos_site_id
 _symmetry_equiv_pos_as_xyz
  1  'x, y, z'
loop_
 _atom_site_type_symbol
 _atom_site_label
 _atom_site_symmetry_multiplicity
 _atom_site_fract_x
 _atom_site_fract_y
 _atom_site_fract_z
 _atom_site_occupancy
  Al  Al0  1  0.11516780  0.09367341  0.34221578  1
  Al  Al1  1  0.21590098  0.20535638  0.08893493  1
  Al  Al2  1  0.77176602  0.09622994  0.88588141  1
  Al  Al3  1  0.45061360  0.10039054  0.39957575  1
  Al  Al4  1  0.11162144  0.10844720  0.80688361  1
  Al  Al5  1  0.87736403  0.20177154  0.14996139  1
  Al  Al6  1  0.44333802  0.09765029  0.89899112  1
  Al  Al7  1  0.10568071  0.43324323  0.40144086  1
  Al  Al8  1  0.21766637  0.53945405  0.15437313  1
  Al  Al9  1  0.77492883  0.42399449  0.89765242  1
  Al  Al10  1  0.89346300  0.52490272  0.65061302  1
  Al  Al11  1  0.44355769  0.42008527  0.39857745  1
  Al  Al12  1  0.55572916  0.52918653  0.15087032  1
  Al  Al13  1  0.10143774  0.43738152  0.90397830  1
  Al  Al14  1  0.22167149  0.52901370  0.65359275  1
  Al  Al15  1  0.77667575  0.41632063  0.40397100  1
  Al  Al16  1  0.88287448  0.54166947  0.15501752  1
  Al  Al17  1  0.43964363  0.42370620  0.90180916  1
  Al  Al18  1  0.55740816  0.52440348  0.65493147  1
  Al  Al19  1  0.11443788  0.76269934  0.40390921  1
  Al  Al20  1  0.22682292  0.86574053  0.15158507  1
  Al  Al21  1  0.77577019  0.76348638  0.90166270  1
  Al  Al22  1  0.89879717  0.87258534  0.64622484  1
  Al  Al23  1  0.45297136  0.75580070  0.40173773  1
  Al  Al24  1  0.55604804  0.88126135  0.15332912  1
  Al  Al25  1  0.10670896  0.76865109  0.90011048  1
  Al  Al26  1  0.23818238  0.86599826  0.64089877  1
  Al  Al27  1  0.77727479  0.77140555  0.40407990  1
  Al  Al28  1  0.88163568  0.88945289  0.15033136  1
  Al  Al29  1  0.43904494  0.76446833  0.90037347  1
  Al  Al30  1  0.55631087  0.87983200  0.65210599  1
  B  B31  1  0.84089516  0.22547812  0.64996099  1
  B  B32  1  0.49970768  0.23288635  0.16439026  1
  B  B33  1  0.21655635  0.20738549  0.56704627  1
  B  B34  1  0.84896028  0.07101751  0.42337288  1
  B  B35  1  0.49069665  0.23384936  0.66406997  1
  N  N36  1  0.22339475  0.20341400  0.39582587  1
  N  N37  1  0.10800918  0.09830164  0.14647277  1
  N  N38  1  0.87315082  0.21040742  0.80303846  1
  N  N39  1  0.83225408  0.09033997  0.57166469  1
  N  N40  1  0.52528926  0.22168109  0.30853834  1
  N  N41  1  0.45104108  0.11168351  0.09507725  1
  N  N42  1  0.21531540  0.20536568  0.89628949  1
  N  N43  1  0.16185987  0.09566129  0.62350254  1
  N  N44  1  0.88145085  0.19109347  0.34609377  1
  N  N45  1  0.77809422  0.09735395  0.07022794  1
  N  N46  1  0.54267002  0.20999457  0.81257431  1
  N  N47  1  0.44676763  0.11646623  0.59584409  1
  N  N48  1  0.21783406  0.54268506  0.34473821  1
  N  N49  1  0.09854067  0.43883623  0.09822592  1
  N  N50  1  0.88458623  0.53819391  0.84120843  1
  N  N51  1  0.78114926  0.40167694  0.59534460  1
  N  N52  1  0.55801985  0.53174752  0.34342393  1
  N  N53  1  0.44258023  0.40831658  0.09449537  1
  N  N54  1  0.21923463  0.54019657  0.84378707  1
  N  N55  1  0.11807468  0.40637326  0.59535117  1
  N  N56  1  0.88374147  0.53995809  0.34790468  1
  N  N57  1  0.77513192  0.42598298  0.09041062  1
  N  N58  1  0.55191284  0.53597334  0.84543041  1
  N  N59  1  0.44808382  0.40073464  0.59703763  1
  N  N60  1  0.23460651  0.86074762  0.34671411  1
  N  N61  1  0.10771723  0.76314957  0.09296397  1
  N  N62  1  0.88822229  0.87103407  0.83482249  1
  N  N63  1  0.78123773  0.75943904  0.59353495  1
  N  N64  1  0.55811776  0.87527529  0.34491955  1
  N  N65  1  0.44526869  0.76115177  0.09288370  1
  N  N66  1  0.22143999  0.87276211  0.83633983  1
  N  N67  1  0.12128506  0.75184095  0.59243024  1
  N  N68  1  0.88564268  0.90193878  0.35410332  1
  N  N69  1  0.77542519  0.76672928  0.09620699  1
  N  N70  1  0.55443655  0.87413506  0.84356753  1
  N  N71  1  0.46047834  0.74745530  0.59217990  1
