# generated using pymatgen
data_Al31B5N36
_symmetry_space_group_name_H-M   'P 1'
_cell_length_a   9.38692887
_cell_length_b   9.15563175
_cell_length_c   9.90402211
_cell_angle_alpha   89.93089140
_cell_angle_beta   90.49417839
_cell_angle_gamma   60.58330688
_symmetry_Int_Tables_number   1
_chemical_formula_structural   Al31B5N36
_chemical_formula_sum   'Al31 B5 N36'
_cell_volume   741.39942206
_cell_formula_units_Z   1
loop_
 _symmetry_equiv_pos_site_id
 _symmetry_equiv_pos_as_xyz
  1  'x, y, z'
loop_
 _atom_site_type_symbol
 _atom_site_label
 _atom_site_symmetry_multiplicity
 _atom_site_fract_x
 _atom_site_fract_y
 _atom_site_fract_z
 _atom_site_occupancy
  Al  Al0  1  0.11419950  0.09483031  0.33641614  1
  Al  Al1  1  0.21792161  0.20819987  0.11531847  1
  Al  Al2  1  0.76994953  0.09645631  0.88651102  1
  Al  Al3  1  0.44216907  0.10475784  0.39165293  1
  Al  Al4  1  0.11073337  0.10714791  0.81386363  1
  Al  Al5  1  0.87563517  0.20163429  0.14805381  1
  Al  Al6  1  0.44083764  0.09797931  0.90313463  1
  Al  Al7  1  0.11101975  0.42408847  0.39713220  1
  Al  Al8  1  0.21790281  0.53919830  0.15496120  1
  Al  Al9  1  0.77537782  0.42421357  0.89784183  1
  Al  Al10  1  0.89402334  0.52366906  0.64975367  1
  Al  Al11  1  0.44483421  0.41936034  0.39741531  1
  Al  Al12  1  0.55549731  0.52980675  0.15069831  1
  Al  Al13  1  0.10282461  0.43400990  0.90733897  1
  Al  Al14  1  0.22208267  0.53026905  0.65297120  1
  Al  Al15  1  0.77703231  0.41635581  0.40346637  1
  Al  Al16  1  0.88294942  0.54191427  0.15571255  1
  Al  Al17  1  0.43926722  0.42378415  0.90213925  1
  Al  Al18  1  0.55799397  0.52454331  0.65489613  1
  Al  Al19  1  0.11457088  0.76287224  0.40302234  1
  Al  Al20  1  0.22542393  0.86602426  0.14911415  1
  Al  Al21  1  0.77602490  0.76274965  0.90154553  1
  Al  Al22  1  0.89867084  0.87314596  0.64653290  1
  Al  Al23  1  0.45246902  0.75641415  0.40103407  1
  Al  Al24  1  0.55613779  0.88129149  0.15341602  1
  Al  Al25  1  0.10666458  0.76710344  0.90026588  1
  Al  Al26  1  0.23847870  0.86575038  0.64197475  1
  Al  Al27  1  0.77749333  0.77176644  0.40375610  1
  Al  Al28  1  0.88078158  0.88970848  0.15029427  1
  Al  Al29  1  0.43939033  0.76439863  0.90056158  1
  Al  Al30  1  0.55540140  0.87886933  0.65195633  1
  B  B31  1  0.84013933  0.22546272  0.65055694  1
  B  B32  1  0.50879524  0.22849469  0.16381521  1
  B  B33  1  0.23152356  0.20539531  0.60611930  1
  B  B34  1  0.84767055  0.07195076  0.42247094  1
  B  B35  1  0.48756983  0.23811860  0.66503857  1
  N  N36  1  0.22571767  0.20908587  0.33685589  1
  N  N37  1  0.10205406  0.09461523  0.13631368  1
  N  N38  1  0.87259688  0.20979554  0.80383618  1
  N  N39  1  0.83166547  0.09075569  0.57194612  1
  N  N40  1  0.53190809  0.21932855  0.31021230  1
  N  N41  1  0.45515511  0.11060258  0.09563795  1
  N  N42  1  0.21559705  0.20452002  0.89883636  1
  N  N43  1  0.16413491  0.09656100  0.62447757  1
  N  N44  1  0.88135818  0.19158125  0.34572120  1
  N  N45  1  0.77047612  0.10016408  0.07195973  1
  N  N46  1  0.54134234  0.20906964  0.81134204  1
  N  N47  1  0.42897888  0.12545231  0.59721263  1
  N  N48  1  0.21857625  0.54231286  0.34639811  1
  N  N49  1  0.09664506  0.44268048  0.09768610  1
  N  N50  1  0.88576891  0.53730868  0.84021214  1
  N  N51  1  0.78155981  0.40120853  0.59550368  1
  N  N52  1  0.55807720  0.53242146  0.34373104  1
  N  N53  1  0.44355631  0.40830497  0.09490684  1
  N  N54  1  0.21894051  0.53908923  0.84309215  1
  N  N55  1  0.12475484  0.39875610  0.59508250  1
  N  N56  1  0.88482644  0.53971574  0.35013831  1
  N  N57  1  0.77467427  0.42677662  0.09065768  1
  N  N58  1  0.55196359  0.53565897  0.84537999  1
  N  N59  1  0.44914988  0.40057980  0.59686859  1
  N  N60  1  0.23397990  0.86227468  0.34653080  1
  N  N61  1  0.10702518  0.76249233  0.09298234  1
  N  N62  1  0.88780286  0.87149487  0.83549171  1
  N  N63  1  0.78084713  0.76047037  0.59392293  1
  N  N64  1  0.55780995  0.87596135  0.34630160  1
  N  N65  1  0.44526866  0.76139022  0.09305482  1
  N  N66  1  0.22157297  0.87129907  0.83627356  1
  N  N67  1  0.12108103  0.75268656  0.59240213  1
  N  N68  1  0.88575252  0.90211927  0.35407269  1
  N  N69  1  0.77512677  0.76656519  0.09651620  1
  N  N70  1  0.55406656  0.87467860  0.84315231  1
  N  N71  1  0.46012656  0.74746291  0.59217216  1
