# generated using pymatgen
data_Al31B5N36
_symmetry_space_group_name_H-M   'P 1'
_cell_length_a   9.31624465
_cell_length_b   9.17318169
_cell_length_c   9.95381527
_cell_angle_alpha   90.27111075
_cell_angle_beta   89.91408051
_cell_angle_gamma   60.34824425
_symmetry_Int_Tables_number   1
_chemical_formula_structural   Al31B5N36
_chemical_formula_sum   'Al31 B5 N36'
_cell_volume   739.23975658
_cell_formula_units_Z   1
loop_
 _symmetry_equiv_pos_site_id
 _symmetry_equiv_pos_as_xyz
  1  'x, y, z'
loop_
 _atom_site_type_symbol
 _atom_site_label
 _atom_site_symmetry_multiplicity
 _atom_site_fract_x
 _atom_site_fract_y
 _atom_site_fract_z
 _atom_site_occupancy
  Al  Al0  1  0.09696526  0.09859171  0.33579323  1
  Al  Al1  1  0.22335947  0.20766157  0.07910573  1
  Al  Al2  1  0.79073161  0.09516370  0.80556042  1
  Al  Al3  1  0.44974655  0.10386933  0.40486623  1
  Al  Al4  1  0.11937130  0.09740135  0.81486291  1
  Al  Al5  1  0.88660434  0.20467617  0.07487244  1
  Al  Al6  1  0.45854877  0.09640275  0.89464752  1
  Al  Al7  1  0.10426037  0.42982024  0.32403933  1
  Al  Al8  1  0.22677236  0.53151630  0.07090181  1
  Al  Al9  1  0.78225294  0.41724622  0.81397590  1
  Al  Al10  1  0.88657389  0.52910923  0.56747899  1
  Al  Al11  1  0.44171671  0.42853345  0.31760438  1
  Al  Al12  1  0.55808488  0.53107401  0.06969669  1
  Al  Al13  1  0.11630794  0.41675294  0.81744357  1
  Al  Al14  1  0.22016598  0.52950514  0.56712409  1
  Al  Al15  1  0.76815132  0.42866381  0.32164638  1
  Al  Al16  1  0.88950336  0.53598592  0.06882296  1
  Al  Al17  1  0.44059141  0.43508078  0.82155815  1
  Al  Al18  1  0.55265434  0.52788954  0.56784375  1
  Al  Al19  1  0.10282585  0.76849914  0.31848694  1
  Al  Al20  1  0.21964144  0.87536909  0.07072468  1
  Al  Al21  1  0.78572646  0.75800782  0.82124230  1
  Al  Al22  1  0.89058912  0.88224716  0.56170967  1
  Al  Al23  1  0.43552066  0.76557620  0.32342959  1
  Al  Al24  1  0.55592809  0.87820646  0.11499432  1
  Al  Al25  1  0.10939463  0.76268514  0.81902893  1
  Al  Al26  1  0.22567933  0.87677264  0.57248431  1
  Al  Al27  1  0.77310388  0.76883987  0.32307438  1
  Al  Al28  1  0.88400058  0.87901537  0.07310840  1
  Al  Al29  1  0.44500131  0.76015827  0.82287563  1
  Al  Al30  1  0.55916198  0.87909278  0.61666371  1
  B  B31  1  0.83227481  0.22212555  0.54665607  1
  B  B32  1  0.55951434  0.19961753  0.15823837  1
  B  B33  1  0.16931311  0.22827536  0.56029736  1
  B  B34  1  0.77226501  0.09423557  0.31391553  1
  B  B35  1  0.50769795  0.22492029  0.66018463  1
  N  N36  1  0.20533826  0.21462107  0.40587951  1
  N  N37  1  0.10880813  0.09777641  0.14262207  1
  N  N38  1  0.89676076  0.20144755  0.88470808  1
  N  N39  1  0.82407086  0.09622258  0.62232793  1
  N  N40  1  0.57041215  0.19265036  0.31871828  1
  N  N41  1  0.46535784  0.11081402  0.09090763  1
  N  N42  1  0.22695101  0.20356821  0.89041239  1
  N  N43  1  0.15319942  0.09921291  0.62813952  1
  N  N44  1  0.85937981  0.20246419  0.38945850  1
  N  N45  1  0.76761089  0.10193519  0.14850829  1
  N  N46  1  0.55729988  0.20261249  0.80974103  1
  N  N47  1  0.48680209  0.10373300  0.58761515  1
  N  N48  1  0.21807482  0.54042925  0.37749802  1
  N  N49  1  0.10883330  0.42857627  0.13525866  1
  N  N50  1  0.89283395  0.53209014  0.87509323  1
  N  N51  1  0.78146390  0.39865256  0.61502630  1
  N  N52  1  0.54755583  0.54130278  0.37943441  1
  N  N53  1  0.45454810  0.40650099  0.12529469  1
  N  N54  1  0.22087200  0.53713287  0.87851126  1
  N  N55  1  0.11395180  0.40302070  0.62301090  1
  N  N56  1  0.88231065  0.54137857  0.37933310  1
  N  N57  1  0.77600138  0.42830418  0.13215444  1
  N  N58  1  0.56098469  0.53458531  0.87835593  1
  N  N59  1  0.44135447  0.41126788  0.62667754  1
  N  N60  1  0.21626347  0.87402224  0.38336053  1
  N  N61  1  0.11035232  0.76056324  0.12804996  1
  N  N62  1  0.88800664  0.87823319  0.88105857  1
  N  N63  1  0.79104399  0.75414376  0.62762044  1
  N  N64  1  0.54782236  0.87944176  0.35723152  1
  N  N65  1  0.44040250  0.75941434  0.12877968  1
  N  N66  1  0.22261100  0.87341151  0.87873801  1
  N  N67  1  0.11470117  0.75600023  0.62733311  1
  N  N68  1  0.87248828  0.90059134  0.36962551  1
  N  N69  1  0.78248755  0.75796250  0.12988253  1
  N  N70  1  0.56047370  0.87126261  0.85593796  1
  N  N71  1  0.44984230  0.75170805  0.63022826  1
