# generated using pymatgen
data_Al31B5N36
_symmetry_space_group_name_H-M   'P 1'
_cell_length_a   9.35997906
_cell_length_b   9.16360567
_cell_length_c   9.87793551
_cell_angle_alpha   89.95954471
_cell_angle_beta   90.38189208
_cell_angle_gamma   60.47744541
_symmetry_Int_Tables_number   1
_chemical_formula_structural   Al31B5N36
_chemical_formula_sum   'Al31 B5 N36'
_cell_volume   737.21344698
_cell_formula_units_Z   1
loop_
 _symmetry_equiv_pos_site_id
 _symmetry_equiv_pos_as_xyz
  1  'x, y, z'
loop_
 _atom_site_type_symbol
 _atom_site_label
 _atom_site_symmetry_multiplicity
 _atom_site_fract_x
 _atom_site_fract_y
 _atom_site_fract_z
 _atom_site_occupancy
  Al  Al0  1  0.11363620  0.09521866  0.33671504  1
  Al  Al1  1  0.22041217  0.20774907  0.11811905  1
  Al  Al2  1  0.76304952  0.10030017  0.88883326  1
  Al  Al3  1  0.44546534  0.10529256  0.38807948  1
  Al  Al4  1  0.10985517  0.10723510  0.81532992  1
  Al  Al5  1  0.87155079  0.20446585  0.15037199  1
  Al  Al6  1  0.44036353  0.09711419  0.90346814  1
  Al  Al7  1  0.11280909  0.42289941  0.39591309  1
  Al  Al8  1  0.22125237  0.53720296  0.15418435  1
  Al  Al9  1  0.77479234  0.42553805  0.89741856  1
  Al  Al10  1  0.89461185  0.52332287  0.64947921  1
  Al  Al11  1  0.44889038  0.41507601  0.39494611  1
  Al  Al12  1  0.55456817  0.53169439  0.14997390  1
  Al  Al13  1  0.10333729  0.43332656  0.90788116  1
  Al  Al14  1  0.22225108  0.53017855  0.65192631  1
  Al  Al15  1  0.77713682  0.41664996  0.40420567  1
  Al  Al16  1  0.88378820  0.54130449  0.15585109  1
  Al  Al17  1  0.43837285  0.42568067  0.90190161  1
  Al  Al18  1  0.55740845  0.52494105  0.65388325  1
  Al  Al19  1  0.11492141  0.76224780  0.40277367  1
  Al  Al20  1  0.22352820  0.86725180  0.14843842  1
  Al  Al21  1  0.77531001  0.76261854  0.90141453  1
  Al  Al22  1  0.89738363  0.87471296  0.64791572  1
  Al  Al23  1  0.45204678  0.75669130  0.40054580  1
  Al  Al24  1  0.55550394  0.88050424  0.15271836  1
  Al  Al25  1  0.10584875  0.76724046  0.90039673  1
  Al  Al26  1  0.23750493  0.86648217  0.64189105  1
  Al  Al27  1  0.77774998  0.77116698  0.40425724  1
  Al  Al28  1  0.87763195  0.88966026  0.15295555  1
  Al  Al29  1  0.43887334  0.76478823  0.89971933  1
  Al  Al30  1  0.55461936  0.87936987  0.65088481  1
  B  B31  1  0.83905094  0.22505716  0.65184666  1
  B  B32  1  0.54062404  0.21189290  0.15621699  1
  B  B33  1  0.23232178  0.20500666  0.60713124  1
  B  B34  1  0.84142321  0.07466048  0.42209355  1
  B  B35  1  0.48781890  0.23805936  0.66426884  1
  N  N36  1  0.22746870  0.20814496  0.33260129  1
  N  N37  1  0.09826537  0.09595718  0.13409904  1
  N  N38  1  0.87078753  0.20959403  0.80679817  1
  N  N39  1  0.82915455  0.09171478  0.57307265  1
  N  N40  1  0.54580001  0.21223823  0.31056050  1
  N  N41  1  0.45889548  0.10761798  0.09495098  1
  N  N42  1  0.21526670  0.20446964  0.89873667  1
  N  N43  1  0.16342346  0.09714413  0.62474002  1
  N  N44  1  0.88083075  0.19198173  0.34670279  1
  N  N45  1  0.74689773  0.11160448  0.08188911  1
  N  N46  1  0.53964404  0.20998850  0.81146608  1
  N  N47  1  0.42902693  0.12556666  0.59631700  1
  N  N48  1  0.22092339  0.54086465  0.34613447  1
  N  N49  1  0.09799898  0.44236348  0.09814091  1
  N  N50  1  0.88614393  0.53752127  0.84015200  1
  N  N51  1  0.78228139  0.40042091  0.59660162  1
  N  N52  1  0.55845793  0.53291841  0.34346144  1
  N  N53  1  0.44731818  0.40830302  0.09376285  1
  N  N54  1  0.21771640  0.53996132  0.84269414  1
  N  N55  1  0.12549889  0.39802609  0.59426930  1
  N  N56  1  0.88560553  0.53905257  0.35062969  1
  N  N57  1  0.77462839  0.42721293  0.09032072  1
  N  N58  1  0.55148005  0.53665392  0.84424149  1
  N  N59  1  0.44985003  0.39994485  0.59601505  1
  N  N60  1  0.23311741  0.86307572  0.34590549  1
  N  N61  1  0.10388278  0.76444683  0.09343935  1
  N  N62  1  0.88508538  0.87540896  0.83880189  1
  N  N63  1  0.78146698  0.76038301  0.59478155  1
  N  N64  1  0.55809283  0.87526009  0.34609309  1
  N  N65  1  0.44396467  0.76233104  0.09245010  1
  N  N66  1  0.22037136  0.87170276  0.83650652  1
  N  N67  1  0.12026849  0.75319258  0.59276540  1
  N  N68  1  0.88548200  0.90154838  0.35437648  1
  N  N69  1  0.77530128  0.76552089  0.09644835  1
  N  N70  1  0.55366665  0.87448028  0.84205011  1
  N  N71  1  0.45961808  0.74775792  0.59170851  1
