# generated using pymatgen
data_Al31B5N36
_symmetry_space_group_name_H-M   'P 1'
_cell_length_a   9.29347550
_cell_length_b   9.17469700
_cell_length_c   9.76719675
_cell_angle_alpha   90.01447493
_cell_angle_beta   89.30607189
_cell_angle_gamma   60.09916597
_symmetry_Int_Tables_number   1
_chemical_formula_structural   Al31B5N36
_chemical_formula_sum   'Al31 B5 N36'
_cell_volume   721.87213359
_cell_formula_units_Z   1
loop_
 _symmetry_equiv_pos_site_id
 _symmetry_equiv_pos_as_xyz
  1  'x, y, z'
loop_
 _atom_site_type_symbol
 _atom_site_label
 _atom_site_symmetry_multiplicity
 _atom_site_fract_x
 _atom_site_fract_y
 _atom_site_fract_z
 _atom_site_occupancy
  Al  Al0  1  0.09791917  0.09818151  0.32110835  1
  Al  Al1  1  0.22786123  0.20481587  0.05937736  1
  Al  Al2  1  0.77509871  0.10076042  0.80620693  1
  Al  Al3  1  0.44579570  0.10105984  0.32045704  1
  Al  Al4  1  0.11807703  0.09729360  0.79910342  1
  Al  Al5  1  0.88324583  0.20427294  0.06224773  1
  Al  Al6  1  0.45593178  0.09715769  0.80446663  1
  Al  Al7  1  0.10807886  0.42942691  0.30688205  1
  Al  Al8  1  0.22562100  0.53332879  0.05448163  1
  Al  Al9  1  0.78236098  0.41659204  0.80040178  1
  Al  Al10  1  0.89127662  0.52767526  0.55254826  1
  Al  Al11  1  0.45085960  0.41737718  0.30682738  1
  Al  Al12  1  0.55629589  0.53317446  0.05473764  1
  Al  Al13  1  0.11681343  0.41702375  0.80140092  1
  Al  Al14  1  0.22913530  0.52437806  0.55510098  1
  Al  Al15  1  0.77091783  0.42867986  0.30685312  1
  Al  Al16  1  0.88853715  0.53747893  0.05333685  1
  Al  Al17  1  0.45080791  0.41581850  0.80782663  1
  Al  Al18  1  0.55324579  0.53242331  0.55448468  1
  Al  Al19  1  0.10512862  0.76700148  0.30615287  1
  Al  Al20  1  0.21926329  0.87662439  0.05638711  1
  Al  Al21  1  0.78076308  0.76017995  0.80419446  1
  Al  Al22  1  0.88443013  0.88550913  0.55153808  1
  Al  Al23  1  0.44036514  0.76474377  0.30534295  1
  Al  Al24  1  0.55505343  0.88063876  0.05739234  1
  Al  Al25  1  0.11078234  0.76212670  0.80482776  1
  Al  Al26  1  0.22843872  0.87607345  0.55675116  1
  Al  Al27  1  0.77255953  0.76892171  0.30551477  1
  Al  Al28  1  0.87990626  0.88265753  0.06165338  1
  Al  Al29  1  0.44750200  0.76021524  0.80713567  1
  Al  Al30  1  0.56131854  0.87876355  0.55870715  1
  B  B31  1  0.82604694  0.23007886  0.53429544  1
  B  B32  1  0.55207291  0.20937202  0.06367657  1
  B  B33  1  0.17622170  0.22481388  0.54117516  1
  B  B34  1  0.76251427  0.09899051  0.31090139  1
  B  B35  1  0.56327269  0.20230087  0.55282615  1
  N  N36  1  0.21323014  0.21026515  0.38506876  1
  N  N37  1  0.10603145  0.09998692  0.12551028  1
  N  N38  1  0.89686503  0.19874467  0.86807918  1
  N  N39  1  0.77027845  0.12177133  0.60693738  1
  N  N40  1  0.57738413  0.19508648  0.38225742  1
  N  N41  1  0.45313678  0.11174589  0.12091070  1
  N  N42  1  0.23320893  0.19969347  0.86800638  1
  N  N43  1  0.14357159  0.10211807  0.60761724  1
  N  N44  1  0.86155067  0.20165664  0.37880938  1
  N  N45  1  0.75081165  0.11058348  0.13769718  1
  N  N46  1  0.56337893  0.20230035  0.89613343  1
  N  N47  1  0.49631385  0.09700503  0.61599089  1
  N  N48  1  0.22267262  0.53785922  0.36227439  1
  N  N49  1  0.10841389  0.42868847  0.11505206  1
  N  N50  1  0.89172503  0.53255271  0.85714136  1
  N  N51  1  0.78459658  0.39871116  0.60016839  1
  N  N52  1  0.54953717  0.54125485  0.36232879  1
  N  N53  1  0.45402987  0.40468917  0.11156421  1
  N  N54  1  0.22410326  0.53492335  0.85851682  1
  N  N55  1  0.11884171  0.39974428  0.60484144  1
  N  N56  1  0.88502302  0.54056889  0.36167498  1
  N  N57  1  0.77528955  0.42878112  0.11540270  1
  N  N58  1  0.55933760  0.53329879  0.86018716  1
  N  N59  1  0.45789807  0.39937728  0.60938079  1
  N  N60  1  0.21950608  0.87296009  0.36546427  1
  N  N61  1  0.10839051  0.76217083  0.11232621  1
  N  N62  1  0.88763754  0.87643487  0.86457591  1
  N  N63  1  0.78884421  0.75292255  0.61034364  1
  N  N64  1  0.55175469  0.87473996  0.36529575  1
  N  N65  1  0.44235040  0.76324394  0.11152721  1
  N  N66  1  0.22308808  0.87346918  0.86179955  1
  N  N67  1  0.11189474  0.76077552  0.61028488  1
  N  N68  1  0.87191338  0.90117713  0.35635391  1
  N  N69  1  0.77610458  0.76173595  0.11287069  1
  N  N70  1  0.55847050  0.87212321  0.86390552  1
  N  N71  1  0.45261946  0.75690074  0.61423022  1
