# generated using pymatgen
data_Al31B5N36
_symmetry_space_group_name_H-M   'P 1'
_cell_length_a   9.38230918
_cell_length_b   9.12349824
_cell_length_c   10.11008183
_cell_angle_alpha   90.18074344
_cell_angle_beta   90.50544124
_cell_angle_gamma   60.76746236
_symmetry_Int_Tables_number   1
_chemical_formula_structural   Al31B5N36
_chemical_formula_sum   'Al31 B5 N36'
_cell_volume   755.17233871
_cell_formula_units_Z   1
loop_
 _symmetry_equiv_pos_site_id
 _symmetry_equiv_pos_as_xyz
  1  'x, y, z'
loop_
 _atom_site_type_symbol
 _atom_site_label
 _atom_site_symmetry_multiplicity
 _atom_site_fract_x
 _atom_site_fract_y
 _atom_site_fract_z
 _atom_site_occupancy
  Al  Al0  1  0.12113441  0.09074263  0.33486491  1
  Al  Al1  1  0.21300171  0.21268475  0.07693547  1
  Al  Al2  1  0.77639506  0.09377527  0.88010352  1
  Al  Al3  1  0.44722884  0.10138348  0.40849118  1
  Al  Al4  1  0.11374514  0.09637660  0.80842748  1
  Al  Al5  1  0.88344145  0.20221225  0.14636370  1
  Al  Al6  1  0.44551209  0.09701223  0.89275705  1
  Al  Al7  1  0.11326270  0.42774156  0.33400534  1
  Al  Al8  1  0.21010327  0.54290065  0.07794869  1
  Al  Al9  1  0.77683715  0.42260634  0.89150367  1
  Al  Al10  1  0.88106951  0.53163319  0.64381024  1
  Al  Al11  1  0.44607868  0.41904713  0.39475376  1
  Al  Al12  1  0.55445692  0.52926933  0.14626154  1
  Al  Al13  1  0.11336044  0.41991992  0.82409290  1
  Al  Al14  1  0.21710123  0.53055768  0.57972611  1
  Al  Al15  1  0.77767221  0.41646905  0.39875867  1
  Al  Al16  1  0.87774381  0.54477699  0.14963565  1
  Al  Al17  1  0.44618364  0.41949312  0.89639890  1
  Al  Al18  1  0.55398201  0.52642517  0.65002638  1
  Al  Al19  1  0.11765172  0.76259258  0.33021073  1
  Al  Al20  1  0.21256139  0.87979655  0.07809226  1
  Al  Al21  1  0.77828485  0.76237986  0.89744981  1
  Al  Al22  1  0.89215178  0.87632101  0.63659927  1
  Al  Al23  1  0.45836463  0.75355704  0.39601189  1
  Al  Al24  1  0.55192280  0.88432846  0.14899096  1
  Al  Al25  1  0.11358927  0.76033706  0.82559344  1
  Al  Al26  1  0.23001250  0.87389421  0.57742198  1
  Al  Al27  1  0.77610221  0.77265980  0.39860452  1
  Al  Al28  1  0.87696657  0.89279012  0.14641587  1
  Al  Al29  1  0.44654219  0.76033447  0.89751387  1
  Al  Al30  1  0.56474344  0.87511567  0.64919800  1
  B  B31  1  0.84297664  0.22522469  0.64344678  1
  B  B32  1  0.48020513  0.24160300  0.15911344  1
  B  B33  1  0.16846410  0.22858166  0.56615671  1
  B  B34  1  0.85708388  0.06802466  0.41781596  1
  B  B35  1  0.50535762  0.22614518  0.65901641  1
  N  N36  1  0.20619903  0.21590057  0.41800722  1
  N  N37  1  0.11964097  0.09576205  0.14859130  1
  N  N38  1  0.87393489  0.20986711  0.79449142  1
  N  N39  1  0.84402680  0.08756725  0.56317644  1
  N  N40  1  0.49685151  0.23077707  0.30002661  1
  N  N41  1  0.44909532  0.11287739  0.08459800  1
  N  N42  1  0.21207819  0.20675691  0.89227383  1
  N  N43  1  0.16159874  0.09306414  0.63124240  1
  N  N44  1  0.88442123  0.19088550  0.33891850  1
  N  N45  1  0.79973397  0.08989271  0.05923126  1
  N  N46  1  0.54465522  0.21042523  0.80988264  1
  N  N47  1  0.49951180  0.09306241  0.58887678  1
  N  N48  1  0.21252918  0.54721125  0.39495291  1
  N  N49  1  0.10954806  0.42812554  0.14495336  1
  N  N50  1  0.88215379  0.53948344  0.83413108  1
  N  N51  1  0.77995373  0.40146859  0.58815043  1
  N  N52  1  0.55805756  0.53013682  0.33591393  1
  N  N53  1  0.44677835  0.40574868  0.08763061  1
  N  N54  1  0.21347456  0.53991704  0.88778619  1
  N  N55  1  0.11617190  0.40081956  0.63141061  1
  N  N56  1  0.87838021  0.54322689  0.34102957  1
  N  N57  1  0.77660706  0.42512413  0.08242457  1
  N  N58  1  0.55211956  0.53595603  0.83800085  1
  N  N59  1  0.45398942  0.39686095  0.59225638  1
  N  N60  1  0.22792721  0.87058721  0.38961137  1
  N  N61  1  0.11257853  0.76023493  0.14263765  1
  N  N62  1  0.88214233  0.87250531  0.82408042  1
  N  N63  1  0.78575526  0.75422006  0.58378851  1
  N  N64  1  0.55422809  0.87979021  0.33763849  1
  N  N65  1  0.44779375  0.75889164  0.08870229  1
  N  N66  1  0.21265856  0.88106841  0.88735899  1
  N  N67  1  0.12792754  0.75191243  0.63877704  1
  N  N68  1  0.88124035  0.90527865  0.34973234  1
  N  N69  1  0.77491976  0.76819745  0.08916975  1
  N  N70  1  0.55564611  0.87279336  0.83805570  1
  N  N71  1  0.46462490  0.74771594  0.58681382  1
