# generated using pymatgen
data_Al31B5N36
_symmetry_space_group_name_H-M   'P 1'
_cell_length_a   9.28919090
_cell_length_b   9.16179768
_cell_length_c   9.92427206
_cell_angle_alpha   90.05061574
_cell_angle_beta   89.56175566
_cell_angle_gamma   60.31457410
_symmetry_Int_Tables_number   1
_chemical_formula_structural   Al31B5N36
_chemical_formula_sum   'Al31 B5 N36'
_cell_volume   733.73094781
_cell_formula_units_Z   1
loop_
 _symmetry_equiv_pos_site_id
 _symmetry_equiv_pos_as_xyz
  1  'x, y, z'
loop_
 _atom_site_type_symbol
 _atom_site_label
 _atom_site_symmetry_multiplicity
 _atom_site_fract_x
 _atom_site_fract_y
 _atom_site_fract_z
 _atom_site_occupancy
  Al  Al0  1  0.09985484  0.09878908  0.32188255  1
  Al  Al1  1  0.23767851  0.20264919  0.06351141  1
  Al  Al2  1  0.78845726  0.09417806  0.80203614  1
  Al  Al3  1  0.44712779  0.10779386  0.39612906  1
  Al  Al4  1  0.11631502  0.09683463  0.80449101  1
  Al  Al5  1  0.88728982  0.20375733  0.06490073  1
  Al  Al6  1  0.44366109  0.09127444  0.79939804  1
  Al  Al7  1  0.10691191  0.42942013  0.30971412  1
  Al  Al8  1  0.22879976  0.53068146  0.05937010  1
  Al  Al9  1  0.78054692  0.41737575  0.80334158  1
  Al  Al10  1  0.88945199  0.52775183  0.55421940  1
  Al  Al11  1  0.44389400  0.43040468  0.30833706  1
  Al  Al12  1  0.55751801  0.53164388  0.05994615  1
  Al  Al13  1  0.11360692  0.41897626  0.80669337  1
  Al  Al14  1  0.22437200  0.52695239  0.55716426  1
  Al  Al15  1  0.77012882  0.42934874  0.30950558  1
  Al  Al16  1  0.88992566  0.53608904  0.05785915  1
  Al  Al17  1  0.44168050  0.43090425  0.80875020  1
  Al  Al18  1  0.55198582  0.53165798  0.55506561  1
  Al  Al19  1  0.10486930  0.76816652  0.30778620  1
  Al  Al20  1  0.22190100  0.87592180  0.06031883  1
  Al  Al21  1  0.78232216  0.75884123  0.80885250  1
  Al  Al22  1  0.88530455  0.88465331  0.55108663  1
  Al  Al23  1  0.44035272  0.77009431  0.30703837  1
  Al  Al24  1  0.55663502  0.88407155  0.05822393  1
  Al  Al25  1  0.11037528  0.76209378  0.80822404  1
  Al  Al26  1  0.22737841  0.87663832  0.55970215  1
  Al  Al27  1  0.76927691  0.77240325  0.30652914  1
  Al  Al28  1  0.88439875  0.87919003  0.06332142  1
  Al  Al29  1  0.44666619  0.75831946  0.81152763  1
  Al  Al30  1  0.56879946  0.86307402  0.56628245  1
  B  B31  1  0.82335489  0.22861918  0.53427576  1
  B  B32  1  0.55518185  0.19587303  0.15395857  1
  B  B33  1  0.16563428  0.22920718  0.54966886  1
  B  B34  1  0.77301393  0.09426837  0.30493801  1
  B  B35  1  0.55531662  0.20957890  0.64160980  1
  N  N36  1  0.20542249  0.21526219  0.39693370  1
  N  N37  1  0.11036730  0.09957997  0.12868533  1
  N  N38  1  0.89598233  0.20042914  0.87281154  1
  N  N39  1  0.77709693  0.11596114  0.60785801  1
  N  N40  1  0.57434581  0.19497373  0.31883302  1
  N  N41  1  0.46069176  0.10830740  0.10880387  1
  N  N42  1  0.22929861  0.20134452  0.87156570  1
  N  N43  1  0.14289864  0.10104641  0.61598829  1
  N  N44  1  0.86172339  0.20192115  0.38129377  1
  N  N45  1  0.76801512  0.10111180  0.14068876  1
  N  N46  1  0.56195819  0.20205933  0.80346051  1
  N  N47  1  0.48404860  0.09761036  0.59598569  1
  N  N48  1  0.21914263  0.54034596  0.36736478  1
  N  N49  1  0.11033533  0.42681328  0.12019757  1
  N  N50  1  0.89025017  0.53271787  0.86344938  1
  N  N51  1  0.78190693  0.39807934  0.60299685  1
  N  N52  1  0.54920824  0.54563369  0.36656125  1
  N  N53  1  0.45392024  0.40733603  0.11738461  1
  N  N54  1  0.22089572  0.53684970  0.86546048  1
  N  N55  1  0.11435475  0.40228998  0.61235517  1
  N  N56  1  0.88369437  0.54287102  0.36562760  1
  N  N57  1  0.77681610  0.42736582  0.12043376  1
  N  N58  1  0.55973521  0.53358901  0.86744101  1
  N  N59  1  0.44987499  0.40848362  0.61228590  1
  N  N60  1  0.21981808  0.87413030  0.37004778  1
  N  N61  1  0.11162329  0.76042669  0.11677728  1
  N  N62  1  0.88873517  0.87572424  0.86940603  1
  N  N63  1  0.79165794  0.75143112  0.61738480  1
  N  N64  1  0.55322292  0.87375580  0.37617875  1
  N  N65  1  0.44518005  0.76387116  0.11512839  1
  N  N66  1  0.22311445  0.87291482  0.86725343  1
  N  N67  1  0.11107259  0.76121292  0.61528464  1
  N  N68  1  0.87310391  0.90024555  0.35926596  1
  N  N69  1  0.77754442  0.76089823  0.11596323  1
  N  N70  1  0.55890603  0.87074636  0.86302966  1
  N  N71  1  0.45086612  0.75351184  0.62091730  1
