# generated using pymatgen
data_Al31B5N36
_symmetry_space_group_name_H-M   'P 1'
_cell_length_a   9.30101136
_cell_length_b   9.17516835
_cell_length_c   10.05622048
_cell_angle_alpha   89.80489308
_cell_angle_beta   90.45343740
_cell_angle_gamma   60.10884165
_symmetry_Int_Tables_number   1
_chemical_formula_structural   Al31B5N36
_chemical_formula_sum   'Al31 B5 N36'
_cell_volume   743.97047837
_cell_formula_units_Z   1
loop_
 _symmetry_equiv_pos_site_id
 _symmetry_equiv_pos_as_xyz
  1  'x, y, z'
loop_
 _atom_site_type_symbol
 _atom_site_label
 _atom_site_symmetry_multiplicity
 _atom_site_fract_x
 _atom_site_fract_y
 _atom_site_fract_z
 _atom_site_occupancy
  Al  Al0  1  0.11146992  0.09102964  0.32762267  1
  Al  Al1  1  0.22065145  0.20969020  0.07317551  1
  Al  Al2  1  0.76678360  0.10307419  0.86493477  1
  Al  Al3  1  0.46023137  0.09646423  0.39785145  1
  Al  Al4  1  0.11596928  0.09914074  0.80083620  1
  Al  Al5  1  0.87369947  0.20555565  0.13785169  1
  Al  Al6  1  0.45059082  0.09543280  0.88675993  1
  Al  Al7  1  0.11444760  0.42520308  0.32664665  1
  Al  Al8  1  0.21908495  0.53654503  0.07368044  1
  Al  Al9  1  0.77915018  0.42635227  0.88558372  1
  Al  Al10  1  0.88444249  0.53117388  0.63494268  1
  Al  Al11  1  0.45918437  0.41064895  0.38530190  1
  Al  Al12  1  0.55503768  0.53366478  0.13862923  1
  Al  Al13  1  0.12201476  0.41703548  0.81531032  1
  Al  Al14  1  0.21885009  0.53183335  0.56765136  1
  Al  Al15  1  0.77711944  0.41172178  0.39468786  1
  Al  Al16  1  0.88088835  0.53902541  0.14251504  1
  Al  Al17  1  0.45006218  0.42053370  0.88931407  1
  Al  Al18  1  0.55253569  0.53071869  0.64098573  1
  Al  Al19  1  0.10390416  0.76923117  0.31897004  1
  Al  Al20  1  0.21299911  0.88072157  0.06800582  1
  Al  Al21  1  0.77662299  0.75440844  0.88614246  1
  Al  Al22  1  0.88761394  0.89125207  0.57090709  1
  Al  Al23  1  0.45221886  0.75547518  0.38775826  1
  Al  Al24  1  0.55463820  0.88057174  0.14084696  1
  Al  Al25  1  0.10916263  0.76255331  0.81497549  1
  Al  Al26  1  0.22436241  0.87845350  0.56919801  1
  Al  Al27  1  0.77239098  0.76365760  0.38887989  1
  Al  Al28  1  0.88497089  0.87808964  0.06779274  1
  Al  Al29  1  0.44568103  0.76182403  0.88658122  1
  Al  Al30  1  0.56143203  0.87907709  0.63908883  1
  B  B31  1  0.82955435  0.23466383  0.64874594  1
  B  B32  1  0.56181923  0.20321871  0.13348136  1
  B  B33  1  0.17788341  0.22539476  0.55587370  1
  B  B34  1  0.77651149  0.09755828  0.36397669  1
  B  B35  1  0.52104078  0.22238347  0.64596847  1
  N  N36  1  0.21359750  0.20988080  0.40334833  1
  N  N37  1  0.11226821  0.09762947  0.13676495  1
  N  N38  1  0.87678134  0.21462091  0.80078860  1
  N  N39  1  0.79343581  0.11805572  0.58646228  1
  N  N40  1  0.58392070  0.19020327  0.30908546  1
  N  N41  1  0.46256429  0.10868972  0.08273716  1
  N  N42  1  0.21759636  0.20457475  0.88685503  1
  N  N43  1  0.15867137  0.09667932  0.62078733  1
  N  N44  1  0.87098545  0.18996929  0.32755614  1
  N  N45  1  0.74619012  0.11541370  0.06747622  1
  N  N46  1  0.54361470  0.21242347  0.80163395  1
  N  N47  1  0.49444934  0.09717012  0.58009530  1
  N  N48  1  0.21919565  0.54225792  0.37880115  1
  N  N49  1  0.11410149  0.42538498  0.13797710  1
  N  N50  1  0.88846758  0.53640574  0.82458922  1
  N  N51  1  0.78022188  0.40552657  0.58489336  1
  N  N52  1  0.55719658  0.53392462  0.32807339  1
  N  N53  1  0.45933909  0.40055186  0.08419934  1
  N  N54  1  0.21723841  0.54029245  0.88051952  1
  N  N55  1  0.12265703  0.39879257  0.61994644  1
  N  N56  1  0.87970361  0.53584913  0.33519614  1
  N  N57  1  0.77730147  0.42533305  0.07423299  1
  N  N58  1  0.55306295  0.53830412  0.82932746  1
  N  N59  1  0.45551727  0.39995612  0.58244281  1
  N  N60  1  0.22025228  0.87064205  0.38014279  1
  N  N61  1  0.10713897  0.76449797  0.13014082  1
  N  N62  1  0.89123917  0.87140649  0.87247921  1
  N  N63  1  0.78527381  0.75457850  0.57843127  1
  N  N64  1  0.55085518  0.87780906  0.32875545  1
  N  N65  1  0.44694319  0.76106468  0.07935170  1
  N  N66  1  0.21141124  0.88176242  0.87539367  1
  N  N67  1  0.11560929  0.75884972  0.62708102  1
  N  N68  1  0.87401105  0.90175229  0.37104114  1
  N  N69  1  0.77360473  0.75753682  0.07937447  1
  N  N70  1  0.55505091  0.87374385  0.82763944  1
  N  N71  1  0.46011406  0.75218189  0.57891872  1
