# generated using pymatgen
data_Al31B5N36
_symmetry_space_group_name_H-M   'P 1'
_cell_length_a   9.29346998
_cell_length_b   9.17468718
_cell_length_c   9.76721088
_cell_angle_alpha   90.01451849
_cell_angle_beta   89.30615686
_cell_angle_gamma   60.09920647
_symmetry_Int_Tables_number   1
_chemical_formula_structural   Al31B5N36
_chemical_formula_sum   'Al31 B5 N36'
_cell_volume   721.87228269
_cell_formula_units_Z   1
loop_
 _symmetry_equiv_pos_site_id
 _symmetry_equiv_pos_as_xyz
  1  'x, y, z'
loop_
 _atom_site_type_symbol
 _atom_site_label
 _atom_site_symmetry_multiplicity
 _atom_site_fract_x
 _atom_site_fract_y
 _atom_site_fract_z
 _atom_site_occupancy
  Al  Al0  1  0.09797668  0.09816103  0.31846723  1
  Al  Al1  1  0.22791877  0.20479421  0.05673468  1
  Al  Al2  1  0.77515687  0.10073947  0.80356446  1
  Al  Al3  1  0.44585322  0.10103915  0.31781536  1
  Al  Al4  1  0.11813387  0.09727320  0.79645572  1
  Al  Al5  1  0.88330453  0.20425163  0.05960599  1
  Al  Al6  1  0.45598848  0.09713743  0.80182201  1
  Al  Al7  1  0.10813576  0.42940652  0.30423535  1
  Al  Al8  1  0.22567905  0.53330796  0.05183826  1
  Al  Al9  1  0.78241874  0.41657089  0.79775600  1
  Al  Al10  1  0.89133413  0.52765531  0.54990669  1
  Al  Al11  1  0.45091759  0.41735601  0.30417990  1
  Al  Al12  1  0.55635316  0.53315445  0.05209176  1
  Al  Al13  1  0.11687126  0.41700307  0.79875798  1
  Al  Al14  1  0.22919211  0.52435797  0.55245477  1
  Al  Al15  1  0.77097552  0.42865915  0.30420654  1
  Al  Al16  1  0.88859449  0.53745816  0.05069420  1
  Al  Al17  1  0.45086523  0.41579792  0.80517945  1
  Al  Al18  1  0.55330379  0.53240188  0.55183816  1
  Al  Al19  1  0.10518633  0.76698076  0.30350486  1
  Al  Al20  1  0.21932122  0.87660480  0.05373867  1
  Al  Al21  1  0.78082142  0.76015908  0.80155360  1
  Al  Al22  1  0.88448861  0.88548753  0.54889476  1
  Al  Al23  1  0.44042318  0.76472276  0.30269598  1
  Al  Al24  1  0.55511012  0.88061871  0.05474385  1
  Al  Al25  1  0.11083979  0.76210564  0.80218474  1
  Al  Al26  1  0.22849636  0.87605171  0.55410254  1
  Al  Al27  1  0.77261682  0.76890076  0.30286878  1
  Al  Al28  1  0.87996357  0.88263778  0.05901246  1
  Al  Al29  1  0.44755962  0.76019395  0.80448516  1
  Al  Al30  1  0.56137761  0.87874233  0.55606117  1
  B  B31  1  0.82610448  0.23005781  0.53165209  1
  B  B32  1  0.55212932  0.20935170  0.06103209  1
  B  B33  1  0.17627945  0.22479418  0.53853103  1
  B  B34  1  0.76257196  0.09897001  0.30825827  1
  B  B35  1  0.56332871  0.20228096  0.55018159  1
  N  N36  1  0.21328765  0.21024576  0.38242532  1
  N  N37  1  0.10608952  0.09996563  0.12286872  1
  N  N38  1  0.89692317  0.19872408  0.86543688  1
  N  N39  1  0.77033679  0.12174995  0.60429472  1
  N  N40  1  0.57744163  0.19506618  0.37961395  1
  N  N41  1  0.45319454  0.11172507  0.11826757  1
  N  N42  1  0.23326608  0.19967192  0.86536327  1
  N  N43  1  0.14362870  0.10209712  0.60497040  1
  N  N44  1  0.86160779  0.20163605  0.37616617  1
  N  N45  1  0.75086955  0.11056316  0.13505502  1
  N  N46  1  0.56343606  0.20227966  0.89348929  1
  N  N47  1  0.49636949  0.09698508  0.61334588  1
  N  N48  1  0.22273017  0.53783857  0.35962819  1
  N  N49  1  0.10847134  0.42866781  0.11240698  1
  N  N50  1  0.89178270  0.53253153  0.85449886  1
  N  N51  1  0.78465394  0.39869057  0.59752435  1
  N  N52  1  0.54959507  0.54123357  0.35968270  1
  N  N53  1  0.45408773  0.40466854  0.10891859  1
  N  N54  1  0.22416156  0.53490222  0.85587407  1
  N  N55  1  0.11889944  0.39972383  0.60219861  1
  N  N56  1  0.88508059  0.54054823  0.35903218  1
  N  N57  1  0.77534666  0.42876069  0.11275758  1
  N  N58  1  0.55939495  0.53327837  0.85754151  1
  N  N59  1  0.45795497  0.39935699  0.60673511  1
  N  N60  1  0.21956419  0.87293824  0.36281748  1
  N  N61  1  0.10844884  0.76215059  0.10967995  1
  N  N62  1  0.88769542  0.87641448  0.86193498  1
  N  N63  1  0.78890188  0.75290238  0.60770263  1
  N  N64  1  0.55181279  0.87471859  0.36265071  1
  N  N65  1  0.44240785  0.76322372  0.10888107  1
  N  N66  1  0.22314639  0.87344877  0.85915227  1
  N  N67  1  0.11195289  0.76075434  0.60764165  1
  N  N68  1  0.87197145  0.90115562  0.35370999  1
  N  N69  1  0.77616103  0.76171576  0.11022561  1
  N  N70  1  0.55852725  0.87210235  0.86125864  1
  N  N71  1  0.45267716  0.75687978  0.61158158  1
