# generated using pymatgen
data_Al31B5N36
_symmetry_space_group_name_H-M   'P 1'
_cell_length_a   9.32092080
_cell_length_b   9.21343739
_cell_length_c   10.05485794
_cell_angle_alpha   89.60507093
_cell_angle_beta   90.16340521
_cell_angle_gamma   59.85618637
_symmetry_Int_Tables_number   1
_chemical_formula_structural   Al31B5N36
_chemical_formula_sum   'Al31 B5 N36'
_cell_volume   746.67910397
_cell_formula_units_Z   1
loop_
 _symmetry_equiv_pos_site_id
 _symmetry_equiv_pos_as_xyz
  1  'x, y, z'
loop_
 _atom_site_type_symbol
 _atom_site_label
 _atom_site_symmetry_multiplicity
 _atom_site_fract_x
 _atom_site_fract_y
 _atom_site_fract_z
 _atom_site_occupancy
  Al  Al0  1  0.10134360  0.09382906  0.32194986  1
  Al  Al1  1  0.22396806  0.20776863  0.07065915  1
  Al  Al2  1  0.78557162  0.09855711  0.80883717  1
  Al  Al3  1  0.45162136  0.10068469  0.40060615  1
  Al  Al4  1  0.10413332  0.10317841  0.82094204  1
  Al  Al5  1  0.88637062  0.19891614  0.09799012  1
  Al  Al6  1  0.45748127  0.09165990  0.88790122  1
  Al  Al7  1  0.10846263  0.42907683  0.32408972  1
  Al  Al8  1  0.22098554  0.53551342  0.07235582  1
  Al  Al9  1  0.77418565  0.42761250  0.89501170  1
  Al  Al10  1  0.88521752  0.53619525  0.56664199  1
  Al  Al11  1  0.45653432  0.41064075  0.38841622  1
  Al  Al12  1  0.55055010  0.53010079  0.13867755  1
  Al  Al13  1  0.11519843  0.41868287  0.81575920  1
  Al  Al14  1  0.21815903  0.53244273  0.56800472  1
  Al  Al15  1  0.77787771  0.41619202  0.34669698  1
  Al  Al16  1  0.89255927  0.54405700  0.07434505  1
  Al  Al17  1  0.45260208  0.41563942  0.88928263  1
  Al  Al18  1  0.56778643  0.51358131  0.63878113  1
  Al  Al19  1  0.10252277  0.76874732  0.31678703  1
  Al  Al20  1  0.22071836  0.87468437  0.06431904  1
  Al  Al21  1  0.78922939  0.75614304  0.81776941  1
  Al  Al22  1  0.88873259  0.89233523  0.56071806  1
  Al  Al23  1  0.43271812  0.76714882  0.32505804  1
  Al  Al24  1  0.54997131  0.88570317  0.13796926  1
  Al  Al25  1  0.10835911  0.76145028  0.81562906  1
  Al  Al26  1  0.21929986  0.87766529  0.56916557  1
  Al  Al27  1  0.77678727  0.76984881  0.32243692  1
  Al  Al28  1  0.87999031  0.87900007  0.06687814  1
  Al  Al29  1  0.43898175  0.76341927  0.81812389  1
  Al  Al30  1  0.55902536  0.88291308  0.63440962  1
  B  B31  1  0.89827483  0.21041835  0.60798660  1
  B  B32  1  0.55350541  0.20279362  0.14666642  1
  B  B33  1  0.15552235  0.23980397  0.55537683  1
  B  B34  1  0.77517313  0.09398916  0.29691623  1
  B  B35  1  0.50614488  0.22819498  0.65022531  1
  N  N36  1  0.20081342  0.21291927  0.40843267  1
  N  N37  1  0.12161646  0.09236365  0.13396503  1
  N  N38  1  0.89170980  0.19666155  0.89740287  1
  N  N39  1  0.83646622  0.09742318  0.63155846  1
  N  N40  1  0.56010113  0.20005610  0.30706034  1
  N  N41  1  0.46265825  0.10913529  0.08080911  1
  N  N42  1  0.22336001  0.20182079  0.88221030  1
  N  N43  1  0.09762273  0.12668246  0.62007140  1
  N  N44  1  0.87105942  0.18977255  0.32629898  1
  N  N45  1  0.75631902  0.09636896  0.13656950  1
  N  N46  1  0.54619700  0.21009720  0.80044274  1
  N  N47  1  0.48701242  0.10163379  0.58214785  1
  N  N48  1  0.21699419  0.54182595  0.37880656  1
  N  N49  1  0.11321324  0.42484340  0.13745981  1
  N  N50  1  0.89685550  0.53662012  0.88152459  1
  N  N51  1  0.79580372  0.39641452  0.59720705  1
  N  N52  1  0.55045685  0.53443306  0.33266623  1
  N  N53  1  0.46147079  0.39572734  0.08169913  1
  N  N54  1  0.21832002  0.53744961  0.87798789  1
  N  N55  1  0.11594353  0.40296360  0.62158395  1
  N  N56  1  0.88417583  0.54185879  0.37693495  1
  N  N57  1  0.77267884  0.43497425  0.09795424  1
  N  N58  1  0.55800299  0.52973680  0.83153379  1
  N  N59  1  0.45583455  0.39689982  0.58384826  1
  N  N60  1  0.21553703  0.87363610  0.38294720  1
  N  N61  1  0.10856298  0.76353834  0.12679620  1
  N  N62  1  0.88608857  0.87711049  0.87839244  1
  N  N63  1  0.79364537  0.75790339  0.62442354  1
  N  N64  1  0.54452007  0.88471324  0.33616733  1
  N  N65  1  0.43776756  0.76445549  0.12409129  1
  N  N66  1  0.21880453  0.87473845  0.87318512  1
  N  N67  1  0.11574309  0.75472497  0.62637291  1
  N  N68  1  0.87137940  0.90322987  0.36882049  1
  N  N69  1  0.78085966  0.76157557  0.13153719  1
  N  N70  1  0.55844703  0.87331465  0.83158879  1
  N  N71  1  0.44548551  0.75952912  0.62082615  1
