# generated using pymatgen
data_Al31B5N36
_symmetry_space_group_name_H-M   'P 1'
_cell_length_a   9.32182748
_cell_length_b   9.23728212
_cell_length_c   10.05571404
_cell_angle_alpha   89.51633030
_cell_angle_beta   90.26658035
_cell_angle_gamma   59.78349819
_symmetry_Int_Tables_number   1
_chemical_formula_structural   Al31B5N36
_chemical_formula_sum   'Al31 B5 N36'
_cell_volume   748.16725199
_cell_formula_units_Z   1
loop_
 _symmetry_equiv_pos_site_id
 _symmetry_equiv_pos_as_xyz
  1  'x, y, z'
loop_
 _atom_site_type_symbol
 _atom_site_label
 _atom_site_symmetry_multiplicity
 _atom_site_fract_x
 _atom_site_fract_y
 _atom_site_fract_z
 _atom_site_occupancy
  Al  Al0  1  0.10152289  0.09425719  0.32041314  1
  Al  Al1  1  0.22502879  0.20679560  0.07032385  1
  Al  Al2  1  0.78541750  0.09905974  0.80676109  1
  Al  Al3  1  0.44921071  0.10260315  0.40092667  1
  Al  Al4  1  0.10492577  0.10212444  0.82171789  1
  Al  Al5  1  0.88510716  0.20127762  0.10080238  1
  Al  Al6  1  0.45612615  0.09354192  0.88767586  1
  Al  Al7  1  0.10598125  0.42970490  0.32289735  1
  Al  Al8  1  0.22187532  0.53535542  0.07207113  1
  Al  Al9  1  0.77390818  0.42527180  0.89686736  1
  Al  Al10  1  0.88892691  0.53665380  0.56745351  1
  Al  Al11  1  0.45275052  0.41143778  0.38682293  1
  Al  Al12  1  0.55643934  0.52661126  0.14429597  1
  Al  Al13  1  0.11543752  0.41904804  0.81541336  1
  Al  Al14  1  0.21701460  0.53393632  0.56740393  1
  Al  Al15  1  0.77584829  0.40858744  0.38156031  1
  Al  Al16  1  0.89354562  0.53780238  0.07867886  1
  Al  Al17  1  0.45404431  0.41601986  0.88945596  1
  Al  Al18  1  0.56581940  0.51438108  0.63558561  1
  Al  Al19  1  0.10252178  0.76935106  0.31534021  1
  Al  Al20  1  0.22439704  0.87293193  0.06443372  1
  Al  Al21  1  0.77940432  0.76041360  0.86746081  1
  Al  Al22  1  0.89128621  0.89451956  0.55890994  1
  Al  Al23  1  0.43357583  0.76611412  0.32533150  1
  Al  Al24  1  0.55460486  0.88396766  0.14088912  1
  Al  Al25  1  0.10848991  0.76110333  0.81510002  1
  Al  Al26  1  0.22128991  0.87739292  0.56835134  1
  Al  Al27  1  0.77103569  0.77233312  0.36158022  1
  Al  Al28  1  0.88319786  0.88180870  0.06903086  1
  Al  Al29  1  0.44019680  0.76128132  0.81519605  1
  Al  Al30  1  0.56502951  0.88191519  0.63620185  1
  B  B31  1  0.90147770  0.20691324  0.60464665  1
  B  B32  1  0.55282394  0.20326471  0.14624070  1
  B  B33  1  0.15711255  0.23965158  0.55485150  1
  B  B34  1  0.77556387  0.09416862  0.29536997  1
  B  B35  1  0.50294483  0.22956248  0.65019775  1
  N  N36  1  0.20017168  0.21339973  0.40793794  1
  N  N37  1  0.12243841  0.09157067  0.13287331  1
  N  N38  1  0.89272115  0.19488682  0.89441849  1
  N  N39  1  0.83517043  0.09938915  0.62899533  1
  N  N40  1  0.55845517  0.20066035  0.30692016  1
  N  N41  1  0.46302294  0.10875775  0.08055053  1
  N  N42  1  0.22322354  0.20188836  0.88157414  1
  N  N43  1  0.09670733  0.12780531  0.61919805  1
  N  N44  1  0.87037339  0.19165241  0.32356546  1
  N  N45  1  0.75545752  0.09784169  0.13636106  1
  N  N46  1  0.54564869  0.21074152  0.80007285  1
  N  N47  1  0.48222841  0.10369060  0.58344244  1
  N  N48  1  0.21372742  0.54332394  0.37830235  1
  N  N49  1  0.11507174  0.42345959  0.13685966  1
  N  N50  1  0.89791267  0.53177876  0.87685724  1
  N  N51  1  0.79443561  0.39517263  0.58129466  1
  N  N52  1  0.55186508  0.53283779  0.33747101  1
  N  N53  1  0.46231944  0.39676702  0.08263032  1
  N  N54  1  0.21895955  0.53724279  0.87767615  1
  N  N55  1  0.11670181  0.40284827  0.62143102  1
  N  N56  1  0.88373106  0.53762275  0.37389546  1
  N  N57  1  0.77021519  0.43418292  0.08762827  1
  N  N58  1  0.56027702  0.52723493  0.82605653  1
  N  N59  1  0.45418792  0.39710368  0.58264453  1
  N  N60  1  0.21558091  0.87413247  0.38247570  1
  N  N61  1  0.11091813  0.76301198  0.12631494  1
  N  N62  1  0.88779098  0.87959062  0.87732641  1
  N  N63  1  0.78769888  0.76465718  0.59036363  1
  N  N64  1  0.54333615  0.88675699  0.33475189  1
  N  N65  1  0.44066789  0.76212582  0.12707736  1
  N  N66  1  0.22126686  0.87288951  0.87269706  1
  N  N67  1  0.11655569  0.75570265  0.62593607  1
  N  N68  1  0.87226087  0.90601811  0.36486077  1
  N  N69  1  0.77734141  0.76293038  0.10294849  1
  N  N70  1  0.55713296  0.87474884  0.82951976  1
  N  N71  1  0.44753653  0.76020604  0.61943825  1
