# generated using pymatgen
data_Al31B5N36
_symmetry_space_group_name_H-M   'P 1'
_cell_length_a   9.28629438
_cell_length_b   9.16305914
_cell_length_c   10.14781906
_cell_angle_alpha   89.47747048
_cell_angle_beta   90.24534558
_cell_angle_gamma   59.97397819
_symmetry_Int_Tables_number   1
_chemical_formula_structural   Al31B5N36
_chemical_formula_sum   'Al31 B5 N36'
_cell_volume   747.53514598
_cell_formula_units_Z   1
loop_
 _symmetry_equiv_pos_site_id
 _symmetry_equiv_pos_as_xyz
  1  'x, y, z'
loop_
 _atom_site_type_symbol
 _atom_site_label
 _atom_site_symmetry_multiplicity
 _atom_site_fract_x
 _atom_site_fract_y
 _atom_site_fract_z
 _atom_site_occupancy
  Al  Al0  1  0.11020844  0.09046491  0.32644440  1
  Al  Al1  1  0.22007028  0.21051334  0.07300362  1
  Al  Al2  1  0.77537472  0.09402333  0.81941986  1
  Al  Al3  1  0.45890131  0.09556224  0.39828792  1
  Al  Al4  1  0.12020749  0.09874309  0.80299244  1
  Al  Al5  1  0.87191827  0.20683990  0.13561664  1
  Al  Al6  1  0.45298637  0.09490712  0.88901978  1
  Al  Al7  1  0.11397067  0.42478148  0.32637572  1
  Al  Al8  1  0.21751118  0.53825879  0.07245972  1
  Al  Al9  1  0.77950627  0.42977452  0.89007519  1
  Al  Al10  1  0.88511230  0.53114442  0.63630916  1
  Al  Al11  1  0.45825129  0.41075628  0.38505215  1
  Al  Al12  1  0.55380856  0.53452726  0.13957030  1
  Al  Al13  1  0.12329730  0.41705339  0.81545425  1
  Al  Al14  1  0.21869632  0.53160012  0.56686055  1
  Al  Al15  1  0.77638249  0.41037955  0.39553752  1
  Al  Al16  1  0.88016682  0.54117194  0.14383585  1
  Al  Al17  1  0.45338810  0.41789963  0.89134590  1
  Al  Al18  1  0.55393233  0.52895821  0.64212310  1
  Al  Al19  1  0.10324168  0.76950632  0.31707592  1
  Al  Al20  1  0.21164414  0.88147628  0.06700046  1
  Al  Al21  1  0.77709462  0.75495090  0.88717187  1
  Al  Al22  1  0.88669483  0.89364878  0.56800292  1
  Al  Al23  1  0.45159864  0.75509244  0.38827646  1
  Al  Al24  1  0.55453214  0.88093154  0.14081725  1
  Al  Al25  1  0.11040535  0.76130800  0.81406929  1
  Al  Al26  1  0.22450081  0.87777609  0.56943404  1
  Al  Al27  1  0.77067147  0.76294391  0.38938047  1
  Al  Al28  1  0.88076685  0.88534446  0.06241808  1
  Al  Al29  1  0.44659036  0.76119326  0.88752716  1
  Al  Al30  1  0.56165851  0.87859549  0.63956772  1
  B  B31  1  0.83917281  0.23541322  0.65961921  1
  B  B32  1  0.56161094  0.20303187  0.13101153  1
  B  B33  1  0.17697293  0.22498034  0.55677869  1
  B  B34  1  0.77214576  0.09389008  0.33846609  1
  B  B35  1  0.51725778  0.22379257  0.64549100  1
  N  N36  1  0.21112763  0.20949128  0.40484269  1
  N  N37  1  0.11125868  0.09815767  0.13761251  1
  N  N38  1  0.88394543  0.22223650  0.80907728  1
  N  N39  1  0.80053778  0.10713090  0.62711461  1
  N  N40  1  0.57992032  0.19065289  0.30826634  1
  N  N41  1  0.46165691  0.10897793  0.08232048  1
  N  N42  1  0.21934114  0.20467862  0.88830402  1
  N  N43  1  0.15821328  0.09588807  0.62247757  1
  N  N44  1  0.86726848  0.18874302  0.32794555  1
  N  N45  1  0.74424118  0.11562306  0.07927341  1
  N  N46  1  0.53888658  0.21437250  0.79976611  1
  N  N47  1  0.49571366  0.09655675  0.57850024  1
  N  N48  1  0.21751779  0.54249566  0.37937847  1
  N  N49  1  0.11421548  0.42569573  0.13934743  1
  N  N50  1  0.88869765  0.53863609  0.82392064  1
  N  N51  1  0.78390992  0.40121754  0.58548008  1
  N  N52  1  0.55636461  0.53387919  0.32811784  1
  N  N53  1  0.45833981  0.40214587  0.08402609  1
  N  N54  1  0.21850148  0.53965327  0.88101642  1
  N  N55  1  0.12388195  0.39748054  0.62080922  1
  N  N56  1  0.87860332  0.53544525  0.33527664  1
  N  N57  1  0.77626140  0.42858448  0.07631726  1
  N  N58  1  0.55428727  0.53779413  0.82916941  1
  N  N59  1  0.45709440  0.39923774  0.58054524  1
  N  N60  1  0.21866626  0.87042284  0.38153861  1
  N  N61  1  0.10435323  0.76664592  0.12998056  1
  N  N62  1  0.89224848  0.87114183  0.87294405  1
  N  N63  1  0.78603720  0.75468274  0.57669560  1
  N  N64  1  0.54958920  0.87778709  0.32788463  1
  N  N65  1  0.44634978  0.76206256  0.07899249  1
  N  N66  1  0.21206463  0.88069684  0.87572000  1
  N  N67  1  0.11535086  0.75816423  0.62654743  1
  N  N68  1  0.86941804  0.90578187  0.37043924  1
  N  N69  1  0.77349201  0.75893151  0.07837598  1
  N  N70  1  0.55539877  0.87384879  0.82683377  1
  N  N71  1  0.46157660  0.75093060  0.57803287  1
