
#======================================================================
# CRYSTAL DATA
#----------------------------------------------------------------------
data_VESTA_phase_1

_chemical_name_common                  'Al   Hf   Mg   N                      '
_cell_length_a                         9.842512
_cell_length_b                         9.792230
_cell_length_c                         10.139067
_cell_angle_alpha                      90.256477
_cell_angle_beta                       90.060844
_cell_angle_gamma                      59.996624
_cell_volume                           846.246009
_space_group_name_H-M_alt              'P 1'
_space_group_IT_number                 1

loop_
_space_group_symop_operation_xyz
   'x, y, z'

loop_
   _atom_site_label
   _atom_site_occupancy
   _atom_site_fract_x
   _atom_site_fract_y
   _atom_site_fract_z
   _atom_site_adp_type
   _atom_site_U_iso_or_equiv
   _atom_site_type_symbol
   Al1        1.0     0.106147     0.095314     0.381816    Uiso  ? Al
   Al2        1.0     0.211989     0.214895     0.131941    Uiso  ? Al
   Al3        1.0     0.786797     0.100137     0.826054    Uiso  ? Al
   Al4        1.0     0.889577     0.208696     0.571648    Uiso  ? Al
   Al5        1.0     0.560061     0.203247     0.064338    Uiso  ? Al
   Al6        1.0     0.111470     0.102188     0.888764    Uiso  ? Al
   Al7        1.0     0.211205     0.203657     0.637252    Uiso  ? Al
   Al8        1.0     0.784188     0.094708     0.319554    Uiso  ? Al
   Al9        1.0     0.101524     0.421132     0.386142    Uiso  ? Al
   Al10       1.0     0.229431     0.523183     0.062809    Uiso  ? Al
   Al11       1.0     0.784015     0.422870     0.819087    Uiso  ? Al
   Al12       1.0     0.883782     0.538166     0.576338    Uiso  ? Al
   Al13       1.0     0.106851     0.423014     0.855781    Uiso  ? Al
   Al14       1.0     0.215346     0.540912     0.582073    Uiso  ? Al
   Al15       1.0     0.784991     0.430575     0.316707    Uiso  ? Al
   Al16       1.0     0.886806     0.542139     0.067479    Uiso  ? Al
   Al17       1.0     0.449494     0.431668     0.821729    Uiso  ? Al
   Al18       1.0     0.237366     0.883169     0.123788    Uiso  ? Al
   Al19       1.0     0.775374     0.758950     0.818608    Uiso  ? Al
   Al20       1.0     0.891451     0.870149     0.573231    Uiso  ? Al
   Al21       1.0     0.444371     0.761603     0.389029    Uiso  ? Al
   Al22       1.0     0.557789     0.864935     0.129228    Uiso  ? Al
   Al23       1.0     0.224519     0.881997     0.633391    Uiso  ? Al
   Al24       1.0     0.867085     0.880930     0.066447    Uiso  ? Al
   Al25       1.0     0.450939     0.763052     0.881064    Uiso  ? Al
   Al26       1.0     0.546883     0.869509     0.635979    Uiso  ? Al
   Hf1        1.0     0.441395     0.089159     0.355423    Uiso  ? Hf
   Hf2        1.0     0.558282     0.196532     0.610100    Uiso  ? Hf
   Hf3        1.0     0.452878     0.425155     0.327921    Uiso  ? Hf
   Hf4        1.0     0.103815     0.759898     0.308952    Uiso  ? Hf
   Hf5        1.0     0.109721     0.764964     0.842940    Uiso  ? Hf
   Mg1        1.0     0.886533     0.210692     0.081561    Uiso  ? Mg
   Mg2        1.0     0.434801     0.088374     0.886921    Uiso  ? Mg
   Mg3        1.0     0.567091     0.535102     0.071297    Uiso  ? Mg
   Mg4        1.0     0.561216     0.542419     0.597226    Uiso  ? Mg
   Mg5        1.0     0.783268     0.749597     0.325399    Uiso  ? Mg
   N1         1.0     0.199524     0.213784     0.324320    Uiso  ? N
   N2         1.0     0.129548     0.090456     0.074899    Uiso  ? N
   N3         1.0     0.890554     0.206503     0.872299    Uiso  ? N
   N4         1.0     0.802437     0.082509     0.635923    Uiso  ? N
   N5         1.0     0.579503     0.195471     0.395100    Uiso  ? N
   N6         1.0     0.444566     0.099120     0.109951    Uiso  ? N
   N7         1.0     0.208044     0.209764     0.822038    Uiso  ? N
   N8         1.0     0.113391     0.091159     0.571009    Uiso  ? N
   N9         1.0     0.882329     0.208677     0.374760    Uiso  ? N
   N10        1.0     0.766881     0.089168     0.132915    Uiso  ? N
   N11        1.0     0.564284     0.210240     0.861197    Uiso  ? N
   N12        1.0     0.428261     0.085838     0.574098    Uiso  ? N
   N13        1.0     0.216181     0.532077     0.386643    Uiso  ? N
   N14        1.0     0.110149     0.428949     0.087844    Uiso  ? N
   N15        1.0     0.886023     0.543368     0.872062    Uiso  ? N
   N16        1.0     0.797228     0.416122     0.633563    Uiso  ? N
   N17        1.0     0.566280     0.541764     0.371371    Uiso  ? N
   N18        1.0     0.440091     0.417997     0.122355    Uiso  ? N
   N19        1.0     0.234284     0.521824     0.873156    Uiso  ? N
   N20        1.0     0.110490     0.425455     0.598952    Uiso  ? N
   N21        1.0     0.889587     0.527586     0.390257    Uiso  ? N
   N22        1.0     0.789589     0.438235     0.134728    Uiso  ? N
   N23        1.0     0.558362     0.538856     0.855133    Uiso  ? N
   N24        1.0     0.426369     0.435739     0.629952    Uiso  ? N
   N25        1.0     0.228227     0.878291     0.319345    Uiso  ? N
   N26        1.0     0.111355     0.761234     0.096158    Uiso  ? N
   N27        1.0     0.868267     0.884507     0.878494    Uiso  ? N
   N28        1.0     0.780676     0.762580     0.623815    Uiso  ? N
   N29        1.0     0.546623     0.858385     0.319003    Uiso  ? N
   N30        1.0     0.440910     0.776483     0.066484    Uiso  ? N
   N31        1.0     0.231306     0.885741     0.825063    Uiso  ? N
   N32        1.0     0.109402     0.760161     0.627381    Uiso  ? N
   N33        1.0     0.884896     0.886187     0.385332    Uiso  ? N
   N34        1.0     0.780789     0.759678     0.114933    Uiso  ? N
   N35        1.0     0.557316     0.862665     0.821964    Uiso  ? N
   N36        1.0     0.429980     0.780773     0.573275    Uiso  ? N
