
#======================================================================
# CRYSTAL DATA
#----------------------------------------------------------------------
data_VESTA_phase_1

_chemical_name_common                  'Al   Hf   Mg   N                      '
_cell_length_a                         9.886323
_cell_length_b                         9.836401
_cell_length_c                         10.056068
_cell_angle_alpha                      90.224190
_cell_angle_beta                       90.031021
_cell_angle_gamma                      59.874790
_cell_volume                           845.817422
_space_group_name_H-M_alt              'P 1'
_space_group_IT_number                 1

loop_
_space_group_symop_operation_xyz
   'x, y, z'

loop_
   _atom_site_label
   _atom_site_occupancy
   _atom_site_fract_x
   _atom_site_fract_y
   _atom_site_fract_z
   _atom_site_adp_type
   _atom_site_U_iso_or_equiv
   _atom_site_type_symbol
   Al1        1.0     0.105736     0.097535     0.380846    Uiso  ? Al
   Al2        1.0     0.211999     0.212570     0.131647    Uiso  ? Al
   Al3        1.0     0.788437     0.097247     0.824471    Uiso  ? Al
   Al4        1.0     0.887758     0.209697     0.571754    Uiso  ? Al
   Al5        1.0     0.562606     0.194551     0.072950    Uiso  ? Al
   Al6        1.0     0.112764     0.100334     0.885772    Uiso  ? Al
   Al7        1.0     0.208888     0.207615     0.637302    Uiso  ? Al
   Al8        1.0     0.783366     0.094058     0.319722    Uiso  ? Al
   Al9        1.0     0.098978     0.421573     0.388097    Uiso  ? Al
   Al10       1.0     0.223577     0.527822     0.077087    Uiso  ? Al
   Al11       1.0     0.787214     0.420470     0.821993    Uiso  ? Al
   Al12       1.0     0.881004     0.537982     0.574753    Uiso  ? Al
   Al13       1.0     0.110743     0.418375     0.880017    Uiso  ? Al
   Al14       1.0     0.211622     0.542818     0.586818    Uiso  ? Al
   Al15       1.0     0.788270     0.427626     0.313399    Uiso  ? Al
   Al16       1.0     0.883817     0.543343     0.065986    Uiso  ? Al
   Al17       1.0     0.457224     0.427275     0.891567    Uiso  ? Al
   Al18       1.0     0.238875     0.885208     0.124532    Uiso  ? Al
   Al19       1.0     0.777267     0.756460     0.817654    Uiso  ? Al
   Al20       1.0     0.887808     0.872497     0.572760    Uiso  ? Al
   Al21       1.0     0.447944     0.760409     0.386279    Uiso  ? Al
   Al22       1.0     0.558749     0.866869     0.130839    Uiso  ? Al
   Al23       1.0     0.226357     0.882264     0.631238    Uiso  ? Al
   Al24       1.0     0.868773     0.878345     0.065261    Uiso  ? Al
   Al25       1.0     0.453897     0.760310     0.883753    Uiso  ? Al
   Al26       1.0     0.548214     0.869432     0.634979    Uiso  ? Al
   Hf1        1.0     0.439318     0.090582     0.360309    Uiso  ? Hf
   Hf2        1.0     0.551293     0.207200     0.617566    Uiso  ? Hf
   Hf3        1.0     0.449920     0.427933     0.351157    Uiso  ? Hf
   Hf4        1.0     0.102155     0.767239     0.310722    Uiso  ? Hf
   Hf5        1.0     0.113258     0.762227     0.843734    Uiso  ? Hf
   Mg1        1.0     0.887749     0.206969     0.079374    Uiso  ? Mg
   Mg2        1.0     0.434874     0.086482     0.884776    Uiso  ? Mg
   Mg3        1.0     0.564922     0.545329     0.109618    Uiso  ? Mg
   Mg4        1.0     0.552066     0.547482     0.629063    Uiso  ? Mg
   Mg5        1.0     0.784608     0.749719     0.327611    Uiso  ? Mg
   N1         1.0     0.197369     0.215677     0.322429    Uiso  ? N
   N2         1.0     0.129911     0.089813     0.073096    Uiso  ? N
   N3         1.0     0.892317     0.202846     0.869225    Uiso  ? N
   N4         1.0     0.797289     0.085562     0.633100    Uiso  ? N
   N5         1.0     0.580793     0.190171     0.389889    Uiso  ? N
   N6         1.0     0.443682     0.097430     0.109364    Uiso  ? N
   N7         1.0     0.206492     0.212166     0.822428    Uiso  ? N
   N8         1.0     0.112790     0.092887     0.571970    Uiso  ? N
   N9         1.0     0.881909     0.208055     0.373448    Uiso  ? N
   N10        1.0     0.770072     0.085222     0.131184    Uiso  ? N
   N11        1.0     0.564752     0.208056     0.856663    Uiso  ? N
   N12        1.0     0.428677     0.088567     0.579187    Uiso  ? N
   N13        1.0     0.204439     0.533238     0.351985    Uiso  ? N
   N14        1.0     0.111529     0.423668     0.075246    Uiso  ? N
   N15        1.0     0.887712     0.541895     0.870459    Uiso  ? N
   N16        1.0     0.794096     0.417386     0.633386    Uiso  ? N
   N17        1.0     0.563028     0.548665     0.337119    Uiso  ? N
   N18        1.0     0.443753     0.416137     0.100447    Uiso  ? N
   N19        1.0     0.236357     0.520618     0.869989    Uiso  ? N
   N20        1.0     0.113038     0.423742     0.583826    Uiso  ? N
   N21        1.0     0.886592     0.526953     0.387794    Uiso  ? N
   N22        1.0     0.796846     0.431993     0.129584    Uiso  ? N
   N23        1.0     0.557288     0.538213     0.849361    Uiso  ? N
   N24        1.0     0.425461     0.441826     0.572399    Uiso  ? N
   N25        1.0     0.230658     0.881655     0.320068    Uiso  ? N
   N26        1.0     0.110454     0.763045     0.095235    Uiso  ? N
   N27        1.0     0.870651     0.881689     0.875748    Uiso  ? N
   N28        1.0     0.781154     0.761497     0.622113    Uiso  ? N
   N29        1.0     0.548766     0.861016     0.321654    Uiso  ? N
   N30        1.0     0.442292     0.778228     0.068703    Uiso  ? N
   N31        1.0     0.234157     0.883249     0.824504    Uiso  ? N
   N32        1.0     0.108943     0.761448     0.623328    Uiso  ? N
   N33        1.0     0.882908     0.886921     0.384946    Uiso  ? N
   N34        1.0     0.781386     0.758884     0.114425    Uiso  ? N
   N35        1.0     0.559337     0.859663     0.822607    Uiso  ? N
   N36        1.0     0.433207     0.778108     0.571897    Uiso  ? N
