
#======================================================================
# CRYSTAL DATA
#----------------------------------------------------------------------
data_VESTA_phase_1

_chemical_name_common                  'Al   Hf   Mg   N                      '
_cell_length_a                         9.836387
_cell_length_b                         9.845069
_cell_length_c                         9.990216
_cell_angle_alpha                      90.003120
_cell_angle_beta                       89.977463
_cell_angle_gamma                      59.872654
_cell_volume                           836.760354
_space_group_name_H-M_alt              'P 1'
_space_group_IT_number                 1

loop_
_space_group_symop_operation_xyz
   'x, y, z'

loop_
   _atom_site_label
   _atom_site_occupancy
   _atom_site_fract_x
   _atom_site_fract_y
   _atom_site_fract_z
   _atom_site_adp_type
   _atom_site_U_iso_or_equiv
   _atom_site_type_symbol
   Al1        1.0     0.099544     0.103281     0.389815    Uiso  ? Al
   Al2        1.0     0.213081     0.210368     0.136044    Uiso  ? Al
   Al3        1.0     0.785136     0.095978     0.838054    Uiso  ? Al
   Al4        1.0     0.898171     0.209618     0.642007    Uiso  ? Al
   Al5        1.0     0.558918     0.197475     0.074976    Uiso  ? Al
   Al6        1.0     0.110615     0.103692     0.891241    Uiso  ? Al
   Al7        1.0     0.211272     0.208762     0.641152    Uiso  ? Al
   Al8        1.0     0.785154     0.093225     0.321215    Uiso  ? Al
   Al9        1.0     0.098190     0.424991     0.390679    Uiso  ? Al
   Al10       1.0     0.216302     0.530266     0.133047    Uiso  ? Al
   Al11       1.0     0.778718     0.432118     0.891529    Uiso  ? Al
   Al12       1.0     0.887740     0.540572     0.641256    Uiso  ? Al
   Al13       1.0     0.105266     0.423203     0.888477    Uiso  ? Al
   Al14       1.0     0.217568     0.533675     0.641120    Uiso  ? Al
   Al15       1.0     0.787995     0.422214     0.393237    Uiso  ? Al
   Al16       1.0     0.889034     0.534628     0.140127    Uiso  ? Al
   Al17       1.0     0.447363     0.432613     0.898902    Uiso  ? Al
   Al18       1.0     0.230657     0.882747     0.137037    Uiso  ? Al
   Al19       1.0     0.772349     0.753971     0.889094    Uiso  ? Al
   Al20       1.0     0.881571     0.875011     0.586067    Uiso  ? Al
   Al21       1.0     0.450351     0.760851     0.392738    Uiso  ? Al
   Al22       1.0     0.557230     0.865044     0.134819    Uiso  ? Al
   Al23       1.0     0.229128     0.882414     0.638516    Uiso  ? Al
   Al24       1.0     0.878261     0.875265     0.085910    Uiso  ? Al
   Al25       1.0     0.450409     0.760308     0.891116    Uiso  ? Al
   Al26       1.0     0.557473     0.863727     0.644630    Uiso  ? Al
   Hf1        1.0     0.442212     0.087855     0.364917    Uiso  ? Hf
   Hf2        1.0     0.552504     0.206700     0.624478    Uiso  ? Hf
   Hf3        1.0     0.451914     0.425731     0.363059    Uiso  ? Hf
   Hf4        1.0     0.116282     0.761974     0.381882    Uiso  ? Hf
   Hf5        1.0     0.116409     0.761701     0.877124    Uiso  ? Hf
   Mg1        1.0     0.892229     0.212348     0.128547    Uiso  ? Mg
   Mg2        1.0     0.433639     0.086433     0.889047    Uiso  ? Mg
   Mg3        1.0     0.563490     0.546091     0.126849    Uiso  ? Mg
   Mg4        1.0     0.557088     0.545534     0.638019    Uiso  ? Mg
   Mg5        1.0     0.778414     0.748492     0.384320    Uiso  ? Mg
   N1         1.0     0.200276     0.214387     0.330058    Uiso  ? N
   N2         1.0     0.126215     0.089530     0.077629    Uiso  ? N
   N3         1.0     0.893846     0.209710     0.838830    Uiso  ? N
   N4         1.0     0.796423     0.083468     0.642528    Uiso  ? N
   N5         1.0     0.583218     0.188709     0.395706    Uiso  ? N
   N6         1.0     0.442999     0.096622     0.114473    Uiso  ? N
   N7         1.0     0.205112     0.215825     0.828245    Uiso  ? N
   N8         1.0     0.110843     0.095170     0.581489    Uiso  ? N
   N9         1.0     0.887781     0.206264     0.343272    Uiso  ? N
   N10        1.0     0.767509     0.087057     0.129949    Uiso  ? N
   N11        1.0     0.561135     0.211074     0.863522    Uiso  ? N
   N12        1.0     0.431642     0.086406     0.586873    Uiso  ? N
   N13        1.0     0.207929     0.527541     0.324609    Uiso  ? N
   N14        1.0     0.109254     0.427127     0.078565    Uiso  ? N
   N15        1.0     0.891407     0.540731     0.831544    Uiso  ? N
   N16        1.0     0.795009     0.420566     0.585242    Uiso  ? N
   N17        1.0     0.567355     0.546519     0.343618    Uiso  ? N
   N18        1.0     0.437443     0.419903     0.099400    Uiso  ? N
   N19        1.0     0.231323     0.520202     0.834565    Uiso  ? N
   N20        1.0     0.109598     0.428797     0.582397    Uiso  ? N
   N21        1.0     0.895825     0.521879     0.329009    Uiso  ? N
   N22        1.0     0.788303     0.436464     0.073936    Uiso  ? N
   N23        1.0     0.551199     0.540413     0.848952    Uiso  ? N
   N24        1.0     0.422403     0.443138     0.575611    Uiso  ? N
   N25        1.0     0.230049     0.884471     0.330687    Uiso  ? N
   N26        1.0     0.114920     0.760121     0.096585    Uiso  ? N
   N27        1.0     0.874903     0.880991     0.882855    Uiso  ? N
   N28        1.0     0.775695     0.761240     0.596540    Uiso  ? N
   N29        1.0     0.553752     0.857650     0.323722    Uiso  ? N
   N30        1.0     0.436106     0.778372     0.077371    Uiso  ? N
   N31        1.0     0.229708     0.885302     0.829181    Uiso  ? N
   N32        1.0     0.112919     0.760219     0.603385    Uiso  ? N
   N33        1.0     0.882954     0.886568     0.381181    Uiso  ? N
   N34        1.0     0.776851     0.755727     0.086327    Uiso  ? N
   N35        1.0     0.562892     0.856571     0.833019    Uiso  ? N
   N36        1.0     0.436678     0.777582     0.579601    Uiso  ? N
