
#======================================================================
# CRYSTAL DATA
#----------------------------------------------------------------------
data_VESTA_phase_1

_chemical_name_common                  'Al   Hf   Mg   N                      '
_cell_length_a                         9.843605
_cell_length_b                         9.814347
_cell_length_c                         10.077095
_cell_angle_alpha                      90.238838
_cell_angle_beta                       90.163620
_cell_angle_gamma                      60.011147
_cell_volume                           843.191869
_space_group_name_H-M_alt              'P 1'
_space_group_IT_number                 1

loop_
_space_group_symop_operation_xyz
   'x, y, z'

loop_
   _atom_site_label
   _atom_site_occupancy
   _atom_site_fract_x
   _atom_site_fract_y
   _atom_site_fract_z
   _atom_site_adp_type
   _atom_site_U_iso_or_equiv
   _atom_site_type_symbol
   Al1        1.0     0.106308     0.097390     0.382778    Uiso  ? Al
   Al2        1.0     0.218252     0.207420     0.119565    Uiso  ? Al
   Al3        1.0     0.787428     0.099542     0.826346    Uiso  ? Al
   Al4        1.0     0.890036     0.208951     0.573439    Uiso  ? Al
   Al5        1.0     0.559947     0.204548     0.063549    Uiso  ? Al
   Al6        1.0     0.110995     0.100344     0.888200    Uiso  ? Al
   Al7        1.0     0.213682     0.201926     0.639021    Uiso  ? Al
   Al8        1.0     0.782771     0.096640     0.319684    Uiso  ? Al
   Al9        1.0     0.094900     0.429414     0.316200    Uiso  ? Al
   Al10       1.0     0.226986     0.524230     0.067054    Uiso  ? Al
   Al11       1.0     0.785198     0.422733     0.819933    Uiso  ? Al
   Al12       1.0     0.893066     0.532494     0.571653    Uiso  ? Al
   Al13       1.0     0.104646     0.427733     0.821388    Uiso  ? Al
   Al14       1.0     0.210888     0.538413     0.577523    Uiso  ? Al
   Al15       1.0     0.784920     0.430527     0.318357    Uiso  ? Al
   Al16       1.0     0.885889     0.543190     0.068240    Uiso  ? Al
   Al17       1.0     0.446855     0.432625     0.821940    Uiso  ? Al
   Al18       1.0     0.236570     0.881868     0.125952    Uiso  ? Al
   Al19       1.0     0.778037     0.755401     0.818993    Uiso  ? Al
   Al20       1.0     0.890222     0.870504     0.573882    Uiso  ? Al
   Al21       1.0     0.444097     0.762976     0.389516    Uiso  ? Al
   Al22       1.0     0.557894     0.864284     0.128415    Uiso  ? Al
   Al23       1.0     0.224790     0.881126     0.633005    Uiso  ? Al
   Al24       1.0     0.867132     0.880712     0.067943    Uiso  ? Al
   Al25       1.0     0.450819     0.762145     0.881128    Uiso  ? Al
   Al26       1.0     0.549512     0.867759     0.635429    Uiso  ? Al
   Hf1        1.0     0.439324     0.092102     0.353553    Uiso  ? Hf
   Hf2        1.0     0.558498     0.198582     0.609384    Uiso  ? Hf
   Hf3        1.0     0.450385     0.428436     0.331378    Uiso  ? Hf
   Hf4        1.0     0.102150     0.762425     0.314208    Uiso  ? Hf
   Hf5        1.0     0.110148     0.762582     0.842524    Uiso  ? Hf
   Mg1        1.0     0.886115     0.210688     0.082337    Uiso  ? Mg
   Mg2        1.0     0.440971     0.085899     0.881228    Uiso  ? Mg
   Mg3        1.0     0.566146     0.534892     0.073248    Uiso  ? Mg
   Mg4        1.0     0.561491     0.543638     0.600020    Uiso  ? Mg
   Mg5        1.0     0.780839     0.751182     0.329239    Uiso  ? Mg
   N1         1.0     0.201474     0.209851     0.323031    Uiso  ? N
   N2         1.0     0.127872     0.088005     0.075074    Uiso  ? N
   N3         1.0     0.890367     0.206560     0.871440    Uiso  ? N
   N4         1.0     0.802650     0.082295     0.635812    Uiso  ? N
   N5         1.0     0.577982     0.198253     0.393993    Uiso  ? N
   N6         1.0     0.446302     0.098188     0.105884    Uiso  ? N
   N7         1.0     0.209888     0.209159     0.831498    Uiso  ? N
   N8         1.0     0.113707     0.091878     0.574024    Uiso  ? N
   N9         1.0     0.882267     0.208959     0.375535    Uiso  ? N
   N10        1.0     0.766430     0.089560     0.131997    Uiso  ? N
   N11        1.0     0.564875     0.211323     0.859703    Uiso  ? N
   N12        1.0     0.429883     0.086208     0.577275    Uiso  ? N
   N13        1.0     0.210488     0.530342     0.384353    Uiso  ? N
   N14        1.0     0.107255     0.435560     0.123984    Uiso  ? N
   N15        1.0     0.890884     0.540455     0.876451    Uiso  ? N
   N16        1.0     0.799151     0.417129     0.632672    Uiso  ? N
   N17        1.0     0.566542     0.543564     0.371468    Uiso  ? N
   N18        1.0     0.439405     0.417500     0.124488    Uiso  ? N
   N19        1.0     0.232045     0.519659     0.879077    Uiso  ? N
   N20        1.0     0.108111     0.430862     0.630199    Uiso  ? N
   N21        1.0     0.897694     0.523736     0.386545    Uiso  ? N
   N22        1.0     0.789863     0.437856     0.134726    Uiso  ? N
   N23        1.0     0.557938     0.538358     0.854212    Uiso  ? N
   N24        1.0     0.423117     0.437971     0.627629    Uiso  ? N
   N25        1.0     0.227696     0.879073     0.322393    Uiso  ? N
   N26        1.0     0.110358     0.761239     0.099799    Uiso  ? N
   N27        1.0     0.869146     0.883576     0.878302    Uiso  ? N
   N28        1.0     0.782859     0.759219     0.622073    Uiso  ? N
   N29        1.0     0.544826     0.860990     0.319517    Uiso  ? N
   N30        1.0     0.440041     0.775807     0.067706    Uiso  ? N
   N31        1.0     0.230948     0.883821     0.825518    Uiso  ? N
   N32        1.0     0.109742     0.758893     0.624829    Uiso  ? N
   N33        1.0     0.881232     0.888956     0.385421    Uiso  ? N
   N34        1.0     0.780242     0.759866     0.115746    Uiso  ? N
   N35        1.0     0.560389     0.858700     0.822648    Uiso  ? N
   N36        1.0     0.430456     0.781142     0.574539    Uiso  ? N
