
#======================================================================
# CRYSTAL DATA
#----------------------------------------------------------------------
data_VESTA_phase_1

_chemical_name_common                  'Al   Hf   Mg   N                      '
_cell_length_a                         9.857356
_cell_length_b                         9.820709
_cell_length_c                         10.038609
_cell_angle_alpha                      90.271469
_cell_angle_beta                       90.156349
_cell_angle_gamma                      60.007782
_cell_volume                           841.659804
_space_group_name_H-M_alt              'P 1'
_space_group_IT_number                 1

loop_
_space_group_symop_operation_xyz
   'x, y, z'

loop_
   _atom_site_label
   _atom_site_occupancy
   _atom_site_fract_x
   _atom_site_fract_y
   _atom_site_fract_z
   _atom_site_adp_type
   _atom_site_U_iso_or_equiv
   _atom_site_type_symbol
   Al1        1.0     0.101652     0.101686     0.325631    Uiso  ? Al
   Al2        1.0     0.216276     0.213915     0.076621    Uiso  ? Al
   Al3        1.0     0.787530     0.098859     0.826159    Uiso  ? Al
   Al4        1.0     0.895936     0.205222     0.567758    Uiso  ? Al
   Al5        1.0     0.558852     0.204594     0.063225    Uiso  ? Al
   Al6        1.0     0.105966     0.103324     0.866698    Uiso  ? Al
   Al7        1.0     0.208847     0.207073     0.567082    Uiso  ? Al
   Al8        1.0     0.782806     0.096106     0.318736    Uiso  ? Al
   Al9        1.0     0.096346     0.428620     0.319220    Uiso  ? Al
   Al10       1.0     0.226675     0.523258     0.068163    Uiso  ? Al
   Al11       1.0     0.785528     0.422313     0.820056    Uiso  ? Al
   Al12       1.0     0.892590     0.531389     0.573397    Uiso  ? Al
   Al13       1.0     0.108177     0.419787     0.820755    Uiso  ? Al
   Al14       1.0     0.211700     0.537141     0.580396    Uiso  ? Al
   Al15       1.0     0.783003     0.433609     0.318369    Uiso  ? Al
   Al16       1.0     0.886686     0.542979     0.068841    Uiso  ? Al
   Al17       1.0     0.446988     0.431806     0.821867    Uiso  ? Al
   Al18       1.0     0.237932     0.876708     0.126183    Uiso  ? Al
   Al19       1.0     0.779063     0.754230     0.819077    Uiso  ? Al
   Al20       1.0     0.891053     0.870406     0.575248    Uiso  ? Al
   Al21       1.0     0.443579     0.763673     0.392413    Uiso  ? Al
   Al22       1.0     0.558609     0.862705     0.128177    Uiso  ? Al
   Al23       1.0     0.224083     0.882884     0.633902    Uiso  ? Al
   Al24       1.0     0.866700     0.880658     0.067965    Uiso  ? Al
   Al25       1.0     0.451857     0.761937     0.880278    Uiso  ? Al
   Al26       1.0     0.550014     0.868214     0.634653    Uiso  ? Al
   Hf1        1.0     0.441629     0.094139     0.340542    Uiso  ? Hf
   Hf2        1.0     0.560065     0.197932     0.606107    Uiso  ? Hf
   Hf3        1.0     0.450134     0.430388     0.332654    Uiso  ? Hf
   Hf4        1.0     0.101973     0.760686     0.316067    Uiso  ? Hf
   Hf5        1.0     0.110437     0.760910     0.844746    Uiso  ? Hf
   Mg1        1.0     0.883185     0.212721     0.084255    Uiso  ? Mg
   Mg2        1.0     0.441419     0.087610     0.867930    Uiso  ? Mg
   Mg3        1.0     0.564994     0.535713     0.072617    Uiso  ? Mg
   Mg4        1.0     0.562261     0.542835     0.601648    Uiso  ? Mg
   Mg5        1.0     0.780410     0.751647     0.331042    Uiso  ? Mg
   N1         1.0     0.201569     0.216852     0.371703    Uiso  ? N
   N2         1.0     0.121806     0.094115     0.121889    Uiso  ? N
   N3         1.0     0.890033     0.205883     0.876917    Uiso  ? N
   N4         1.0     0.803404     0.082457     0.635533    Uiso  ? N
   N5         1.0     0.578542     0.199052     0.391895    Uiso  ? N
   N6         1.0     0.444588     0.099993     0.113433    Uiso  ? N
   N7         1.0     0.206372     0.216811     0.887393    Uiso  ? N
   N8         1.0     0.109822     0.093153     0.596156    Uiso  ? N
   N9         1.0     0.883757     0.208687     0.370567    Uiso  ? N
   N10        1.0     0.765102     0.089199     0.131032    Uiso  ? N
   N11        1.0     0.565368     0.210987     0.860892    Uiso  ? N
   N12        1.0     0.433997     0.084768     0.580256    Uiso  ? N
   N13        1.0     0.211028     0.530144     0.387001    Uiso  ? N
   N14        1.0     0.108362     0.433916     0.130213    Uiso  ? N
   N15        1.0     0.892725     0.539015     0.875599    Uiso  ? N
   N16        1.0     0.799854     0.414272     0.632141    Uiso  ? N
   N17        1.0     0.567000     0.544247     0.372910    Uiso  ? N
   N18        1.0     0.439089     0.418089     0.124765    Uiso  ? N
   N19        1.0     0.232074     0.517710     0.878897    Uiso  ? N
   N20        1.0     0.112175     0.422642     0.631126    Uiso  ? N
   N21        1.0     0.897390     0.524484     0.387340    Uiso  ? N
   N22        1.0     0.787579     0.440714     0.134064    Uiso  ? N
   N23        1.0     0.558073     0.537972     0.853676    Uiso  ? N
   N24        1.0     0.423856     0.437241     0.627611    Uiso  ? N
   N25        1.0     0.231244     0.871188     0.324572    Uiso  ? N
   N26        1.0     0.110287     0.760380     0.099428    Uiso  ? N
   N27        1.0     0.869565     0.882927     0.877986    Uiso  ? N
   N28        1.0     0.784399     0.757703     0.622313    Uiso  ? N
   N29        1.0     0.544432     0.860961     0.320702    Uiso  ? N
   N30        1.0     0.439675     0.776969     0.066741    Uiso  ? N
   N31        1.0     0.230291     0.884066     0.832470    Uiso  ? N
   N32        1.0     0.110356     0.757619     0.627162    Uiso  ? N
   N33        1.0     0.880636     0.889496     0.385959    Uiso  ? N
   N34        1.0     0.780311     0.759763     0.115797    Uiso  ? N
   N35        1.0     0.561571     0.858187     0.823182    Uiso  ? N
   N36        1.0     0.430744     0.780496     0.578057    Uiso  ? N
