
#======================================================================
# CRYSTAL DATA
#----------------------------------------------------------------------
data_VESTA_phase_1

_chemical_name_common                  'Al   Hf   Mg   N                      '
_cell_length_a                         9.812025
_cell_length_b                         9.813528
_cell_length_c                         10.051952
_cell_angle_alpha                      90.103218
_cell_angle_beta                       89.769745
_cell_angle_gamma                      59.875572
_cell_volume                           837.165340
_space_group_name_H-M_alt              'P 1'
_space_group_IT_number                 1

loop_
_space_group_symop_operation_xyz
   'x, y, z'

loop_
   _atom_site_label
   _atom_site_occupancy
   _atom_site_fract_x
   _atom_site_fract_y
   _atom_site_fract_z
   _atom_site_adp_type
   _atom_site_U_iso_or_equiv
   _atom_site_type_symbol
   Al1        1.0     0.100147     0.102495     0.393750    Uiso  ? Al
   Al2        1.0     0.214180     0.210129     0.140361    Uiso  ? Al
   Al3        1.0     0.782828     0.099507     0.847491    Uiso  ? Al
   Al4        1.0     0.898406     0.209410     0.646686    Uiso  ? Al
   Al5        1.0     0.557848     0.198567     0.076559    Uiso  ? Al
   Al6        1.0     0.112082     0.102845     0.895435    Uiso  ? Al
   Al7        1.0     0.212026     0.208388     0.644774    Uiso  ? Al
   Al8        1.0     0.782288     0.098253     0.317972    Uiso  ? Al
   Al9        1.0     0.097553     0.426372     0.394635    Uiso  ? Al
   Al10       1.0     0.215929     0.532048     0.138000    Uiso  ? Al
   Al11       1.0     0.778975     0.432898     0.895763    Uiso  ? Al
   Al12       1.0     0.888209     0.539523     0.645229    Uiso  ? Al
   Al13       1.0     0.105481     0.423255     0.892939    Uiso  ? Al
   Al14       1.0     0.217289     0.534093     0.646176    Uiso  ? Al
   Al15       1.0     0.788351     0.422368     0.396802    Uiso  ? Al
   Al16       1.0     0.888950     0.536015     0.144220    Uiso  ? Al
   Al17       1.0     0.446518     0.433389     0.902473    Uiso  ? Al
   Al18       1.0     0.230006     0.881617     0.142078    Uiso  ? Al
   Al19       1.0     0.773550     0.754317     0.895090    Uiso  ? Al
   Al20       1.0     0.883268     0.866768     0.652709    Uiso  ? Al
   Al21       1.0     0.449492     0.760191     0.396616    Uiso  ? Al
   Al22       1.0     0.557708     0.864757     0.138447    Uiso  ? Al
   Al23       1.0     0.228611     0.882158     0.643690    Uiso  ? Al
   Al24       1.0     0.881435     0.869156     0.137539    Uiso  ? Al
   Al25       1.0     0.450742     0.759769     0.895631    Uiso  ? Al
   Al26       1.0     0.557221     0.863220     0.648520    Uiso  ? Al
   Hf1        1.0     0.442839     0.087161     0.369172    Uiso  ? Hf
   Hf2        1.0     0.554341     0.206041     0.627364    Uiso  ? Hf
   Hf3        1.0     0.449696     0.427933     0.368993    Uiso  ? Hf
   Hf4        1.0     0.105865     0.767258     0.393326    Uiso  ? Hf
   Hf5        1.0     0.115437     0.761960     0.886940    Uiso  ? Hf
   Mg1        1.0     0.893707     0.213354     0.129552    Uiso  ? Mg
   Mg2        1.0     0.433809     0.085799     0.892784    Uiso  ? Mg
   Mg3        1.0     0.563421     0.545345     0.131601    Uiso  ? Mg
   Mg4        1.0     0.557682     0.545344     0.642725    Uiso  ? Mg
   Mg5        1.0     0.778819     0.751838     0.392904    Uiso  ? Mg
   N1         1.0     0.200671     0.214656     0.333513    Uiso  ? N
   N2         1.0     0.128158     0.088616     0.080899    Uiso  ? N
   N3         1.0     0.895156     0.209579     0.842838    Uiso  ? N
   N4         1.0     0.796010     0.086559     0.643857    Uiso  ? N
   N5         1.0     0.583913     0.188890     0.397113    Uiso  ? N
   N6         1.0     0.443734     0.096147     0.118007    Uiso  ? N
   N7         1.0     0.205788     0.215596     0.831011    Uiso  ? N
   N8         1.0     0.111300     0.094769     0.584579    Uiso  ? N
   N9         1.0     0.889182     0.205570     0.344453    Uiso  ? N
   N10        1.0     0.768475     0.090803     0.120796    Uiso  ? N
   N11        1.0     0.558856     0.211665     0.865741    Uiso  ? N
   N12        1.0     0.432820     0.085336     0.589388    Uiso  ? N
   N13        1.0     0.205158     0.533508     0.329127    Uiso  ? N
   N14        1.0     0.109875     0.427398     0.082521    Uiso  ? N
   N15        1.0     0.891856     0.540356     0.834637    Uiso  ? N
   N16        1.0     0.795624     0.420070     0.587832    Uiso  ? N
   N17        1.0     0.568220     0.545284     0.346919    Uiso  ? N
   N18        1.0     0.436198     0.421293     0.101639    Uiso  ? N
   N19        1.0     0.230901     0.521455     0.837869    Uiso  ? N
   N20        1.0     0.110147     0.428590     0.585517    Uiso  ? N
   N21        1.0     0.895112     0.523912     0.332462    Uiso  ? N
   N22        1.0     0.788275     0.438301     0.077036    Uiso  ? N
   N23        1.0     0.552226     0.539603     0.852136    Uiso  ? N
   N24        1.0     0.422244     0.443862     0.579452    Uiso  ? N
   N25        1.0     0.228245     0.881179     0.335048    Uiso  ? N
   N26        1.0     0.113918     0.760394     0.097150    Uiso  ? N
   N27        1.0     0.876902     0.873480     0.847970    Uiso  ? N
   N28        1.0     0.777197     0.761702     0.598926    Uiso  ? N
   N29        1.0     0.554183     0.856332     0.326709    Uiso  ? N
   N30        1.0     0.436224     0.777839     0.081139    Uiso  ? N
   N31        1.0     0.230123     0.883986     0.832854    Uiso  ? N
   N32        1.0     0.108227     0.762177     0.608465    Uiso  ? N
   N33        1.0     0.883264     0.879278     0.329831    Uiso  ? N
   N34        1.0     0.778531     0.758067     0.086527    Uiso  ? N
   N35        1.0     0.563843     0.855396     0.836080    Uiso  ? N
   N36        1.0     0.436370     0.777082     0.582713    Uiso  ? N
