
#======================================================================
# CRYSTAL DATA
#----------------------------------------------------------------------
data_VESTA_phase_1

_chemical_name_common                  'Al   Hf   Mg   N                      '
_cell_length_a                         9.880314
_cell_length_b                         9.875514
_cell_length_c                         9.934424
_cell_angle_alpha                      89.807915
_cell_angle_beta                       89.843285
_cell_angle_gamma                      59.965675
_cell_volume                           839.171472
_space_group_name_H-M_alt              'P 1'
_space_group_IT_number                 1

loop_
_space_group_symop_operation_xyz
   'x, y, z'

loop_
   _atom_site_label
   _atom_site_occupancy
   _atom_site_fract_x
   _atom_site_fract_y
   _atom_site_fract_z
   _atom_site_adp_type
   _atom_site_U_iso_or_equiv
   _atom_site_type_symbol
   Al1        1.0     0.106745     0.099741     0.378023    Uiso  ? Al
   Al2        1.0     0.212621     0.210661     0.128412    Uiso  ? Al
   Al3        1.0     0.788245     0.098067     0.826411    Uiso  ? Al
   Al4        1.0     0.888253     0.209944     0.571414    Uiso  ? Al
   Al5        1.0     0.561499     0.195257     0.069429    Uiso  ? Al
   Al6        1.0     0.111700     0.101093     0.885605    Uiso  ? Al
   Al7        1.0     0.209140     0.207946     0.636009    Uiso  ? Al
   Al8        1.0     0.786406     0.093224     0.316942    Uiso  ? Al
   Al9        1.0     0.101328     0.424378     0.386331    Uiso  ? Al
   Al10       1.0     0.216333     0.531296     0.124672    Uiso  ? Al
   Al11       1.0     0.783408     0.420663     0.823463    Uiso  ? Al
   Al12       1.0     0.890907     0.537313     0.626541    Uiso  ? Al
   Al13       1.0     0.104915     0.422948     0.881979    Uiso  ? Al
   Al14       1.0     0.218541     0.531746     0.635773    Uiso  ? Al
   Al15       1.0     0.785406     0.424376     0.313381    Uiso  ? Al
   Al16       1.0     0.893793     0.539651     0.134452    Uiso  ? Al
   Al17       1.0     0.447901     0.430046     0.891411    Uiso  ? Al
   Al18       1.0     0.232394     0.880071     0.128689    Uiso  ? Al
   Al19       1.0     0.774564     0.758482     0.841315    Uiso  ? Al
   Al20       1.0     0.881317     0.877919     0.578873    Uiso  ? Al
   Al21       1.0     0.449191     0.761416     0.385299    Uiso  ? Al
   Al22       1.0     0.559709     0.863882     0.128603    Uiso  ? Al
   Al23       1.0     0.227275     0.884670     0.632155    Uiso  ? Al
   Al24       1.0     0.875204     0.875130     0.072869    Uiso  ? Al
   Al25       1.0     0.451272     0.761017     0.883816    Uiso  ? Al
   Al26       1.0     0.550137     0.869098     0.634949    Uiso  ? Al
   Hf1        1.0     0.440973     0.090920     0.356135    Uiso  ? Hf
   Hf2        1.0     0.551310     0.207002     0.617924    Uiso  ? Hf
   Hf3        1.0     0.452230     0.425379     0.352863    Uiso  ? Hf
   Hf4        1.0     0.117588     0.760717     0.377191    Uiso  ? Hf
   Hf5        1.0     0.115927     0.761558     0.866738    Uiso  ? Hf
   Mg1        1.0     0.887765     0.206103     0.078871    Uiso  ? Mg
   Mg2        1.0     0.433164     0.087124     0.883674    Uiso  ? Mg
   Mg3        1.0     0.562116     0.544960     0.102477    Uiso  ? Mg
   Mg4        1.0     0.551053     0.547594     0.623996    Uiso  ? Mg
   Mg5        1.0     0.779549     0.756378     0.359472    Uiso  ? Mg
   N1         1.0     0.199768     0.216353     0.322136    Uiso  ? N
   N2         1.0     0.129497     0.086970     0.075315    Uiso  ? N
   N3         1.0     0.892056     0.203709     0.866966    Uiso  ? N
   N4         1.0     0.796696     0.087158     0.633393    Uiso  ? N
   N5         1.0     0.583704     0.188724     0.388641    Uiso  ? N
   N6         1.0     0.443874     0.096608     0.108390    Uiso  ? N
   N7         1.0     0.204369     0.215025     0.823922    Uiso  ? N
   N8         1.0     0.112718     0.094265     0.572053    Uiso  ? N
   N9         1.0     0.883372     0.207436     0.371708    Uiso  ? N
   N10        1.0     0.769403     0.084857     0.128017    Uiso  ? N
   N11        1.0     0.562918     0.209423     0.855658    Uiso  ? N
   N12        1.0     0.428772     0.089248     0.579741    Uiso  ? N
   N13        1.0     0.208495     0.528377     0.317802    Uiso  ? N
   N14        1.0     0.109908     0.427245     0.072625    Uiso  ? N
   N15        1.0     0.894609     0.539616     0.826364    Uiso  ? N
   N16        1.0     0.791085     0.417244     0.626146    Uiso  ? N
   N17        1.0     0.562473     0.549069     0.340131    Uiso  ? N
   N18        1.0     0.437984     0.417410     0.093269    Uiso  ? N
   N19        1.0     0.232560     0.519166     0.829459    Uiso  ? N
   N20        1.0     0.112304     0.426293     0.577753    Uiso  ? N
   N21        1.0     0.898620     0.527140     0.336741    Uiso  ? N
   N22        1.0     0.791376     0.429373     0.122962    Uiso  ? N
   N23        1.0     0.552378     0.539541     0.848566    Uiso  ? N
   N24        1.0     0.420920     0.441801     0.568766    Uiso  ? N
   N25        1.0     0.229783     0.882824     0.323171    Uiso  ? N
   N26        1.0     0.115186     0.760018     0.086747    Uiso  ? N
   N27        1.0     0.873316     0.882571     0.873570    Uiso  ? N
   N28        1.0     0.776066     0.765608     0.609143    Uiso  ? N
   N29        1.0     0.550463     0.861220     0.321159    Uiso  ? N
   N30        1.0     0.437811     0.778988     0.070902    Uiso  ? N
   N31        1.0     0.230696     0.884200     0.823509    Uiso  ? N
   N32        1.0     0.113302     0.759396     0.600254    Uiso  ? N
   N33        1.0     0.884844     0.889203     0.383279    Uiso  ? N
   N34        1.0     0.779151     0.757650     0.097196    Uiso  ? N
   N35        1.0     0.558538     0.860178     0.824529    Uiso  ? N
   N36        1.0     0.433569     0.779221     0.573000    Uiso  ? N
