
#======================================================================
# CRYSTAL DATA
#----------------------------------------------------------------------
data_VESTA_phase_1

_chemical_name_common                  'Al   Hf   Mg   N '
_cell_length_a                         9.808986
_cell_length_b                         9.804797
_cell_length_c                         10.153984
_cell_angle_alpha                      89.986786
_cell_angle_beta                       90.002312
_cell_angle_gamma                      59.939140
_cell_volume                           845.207113
_space_group_name_H-M_alt              'P 1'
_space_group_IT_number                 1

loop_
_space_group_symop_operation_xyz
   'x, y, z'

loop_
   _atom_site_label
   _atom_site_occupancy
   _atom_site_fract_x
   _atom_site_fract_y
   _atom_site_fract_z
   _atom_site_adp_type
   _atom_site_U_iso_or_equiv
   _atom_site_type_symbol
   Al1        1.0     0.105883     0.100570     0.380090    Uiso  ? Al
   Al2        1.0     0.212669     0.211487     0.130100    Uiso  ? Al
   Al3        1.0     0.788076     0.097410     0.824850    Uiso  ? Al
   Al4        1.0     0.886870     0.211189     0.570140    Uiso  ? Al
   Al5        1.0     0.560568     0.196537     0.073586    Uiso  ? Al
   Al6        1.0     0.112240     0.100735     0.886958    Uiso  ? Al
   Al7        1.0     0.208014     0.208619     0.637192    Uiso  ? Al
   Al8        1.0     0.786112     0.092807     0.317734    Uiso  ? Al
   Al9        1.0     0.103074     0.423610     0.388069    Uiso  ? Al
   Al10       1.0     0.216565     0.531947     0.126171    Uiso  ? Al
   Al11       1.0     0.785514     0.421160     0.820906    Uiso  ? Al
   Al12       1.0     0.882111     0.538092     0.573188    Uiso  ? Al
   Al13       1.0     0.112538     0.419428     0.880549    Uiso  ? Al
   Al14       1.0     0.217412     0.533989     0.637421    Uiso  ? Al
   Al15       1.0     0.789318     0.428558     0.312774    Uiso  ? Al
   Al16       1.0     0.884122     0.542940     0.063330    Uiso  ? Al
   Al17       1.0     0.449197     0.429630     0.892832    Uiso  ? Al
   Al18       1.0     0.231875     0.880170     0.129795    Uiso  ? Al
   Al19       1.0     0.777494     0.755881     0.820153    Uiso  ? Al
   Al20       1.0     0.879616     0.875984     0.576262    Uiso  ? Al
   Al21       1.0     0.451127     0.760451     0.386212    Uiso  ? Al
   Al22       1.0     0.556894     0.866755     0.130128    Uiso  ? Al
   Al23       1.0     0.226704     0.884198     0.633667    Uiso  ? Al
   Al24       1.0     0.874216     0.876733     0.070214    Uiso  ? Al
   Al25       1.0     0.452555     0.760020     0.886325    Uiso  ? Al
   Al26       1.0     0.548209     0.868608     0.637349    Uiso  ? Al
   Hf1        1.0     0.441049     0.088858     0.362048    Uiso  ? Hf
   Hf2        1.0     0.549587     0.207869     0.621733    Uiso  ? Hf
   Hf3        1.0     0.450804     0.426539     0.361112    Uiso  ? Hf
   Hf4        1.0     0.118266     0.761535     0.382724    Uiso  ? Hf
   Hf5        1.0     0.116589     0.761799     0.871029    Uiso  ? Hf
   Mg1        1.0     0.886841     0.208347     0.078218    Uiso  ? Mg
   Mg2        1.0     0.434503     0.086030     0.886163    Uiso  ? Mg
   Mg3        1.0     0.561833     0.544441     0.111308    Uiso  ? Mg
   Mg4        1.0     0.550249     0.549110     0.631729    Uiso  ? Mg
   Mg5        1.0     0.790510     0.747666     0.319837    Uiso  ? Mg
   N1         1.0     0.198047     0.217902     0.320049    Uiso  ? N
   N2         1.0     0.130467     0.087018     0.072837    Uiso  ? N
   N3         1.0     0.890371     0.204504     0.870379    Uiso  ? N
   N4         1.0     0.796632     0.086228     0.634481    Uiso  ? N
   N5         1.0     0.583110     0.188399     0.390576    Uiso  ? N
   N6         1.0     0.443817     0.096438     0.107395    Uiso  ? N
   N7         1.0     0.205378     0.213100     0.820825    Uiso  ? N
   N8         1.0     0.112896     0.093874     0.570324    Uiso  ? N
   N9         1.0     0.881173     0.209679     0.374464    Uiso  ? N
   N10        1.0     0.769789     0.085783     0.131768    Uiso  ? N
   N11        1.0     0.562009     0.209312     0.852184    Uiso  ? N
   N12        1.0     0.429901     0.086871     0.578685    Uiso  ? N
   N13        1.0     0.205855     0.530345     0.315860    Uiso  ? N
   N14        1.0     0.115406     0.424651     0.069260    Uiso  ? N
   N15        1.0     0.886848     0.540999     0.870888    Uiso  ? N
   N16        1.0     0.793983     0.417856     0.633628    Uiso  ? N
   N17        1.0     0.562087     0.548663     0.335873    Uiso  ? N
   N18        1.0     0.437935     0.418902     0.088753    Uiso  ? N
   N19        1.0     0.232695     0.520206     0.826262    Uiso  ? N
   N20        1.0     0.117191     0.424266     0.579129    Uiso  ? N
   N21        1.0     0.888047     0.527976     0.388361    Uiso  ? N
   N22        1.0     0.796824     0.432661     0.131019    Uiso  ? N
   N23        1.0     0.552884     0.539308     0.846992    Uiso  ? N
   N24        1.0     0.421524     0.444046     0.569293    Uiso  ? N
   N25        1.0     0.229065     0.883816     0.321071    Uiso  ? N
   N26        1.0     0.115935     0.760470     0.083564    Uiso  ? N
   N27        1.0     0.871609     0.881726     0.876212    Uiso  ? N
   N28        1.0     0.781463     0.760057     0.625981    Uiso  ? N
   N29        1.0     0.551949     0.859966     0.319487    Uiso  ? N
   N30        1.0     0.438427     0.778257     0.069584    Uiso  ? N
   N31        1.0     0.231037     0.884089     0.821306    Uiso  ? N
   N32        1.0     0.113001     0.760554     0.598075    Uiso  ? N
   N33        1.0     0.882780     0.886680     0.385714    Uiso  ? N
   N34        1.0     0.781777     0.758490     0.111746    Uiso  ? N
   N35        1.0     0.557740     0.859693     0.823019    Uiso  ? N
   N36        1.0     0.433667     0.778217     0.570391    Uiso  ? N
