
#======================================================================
# CRYSTAL DATA
#----------------------------------------------------------------------
data_VESTA_phase_1

_chemical_name_common                  'Al   Hf   Mg   N                      '
_cell_length_a                         9.810205
_cell_length_b                         9.774870
_cell_length_c                         10.094702
_cell_angle_alpha                      90.216431
_cell_angle_beta                       90.054649
_cell_angle_gamma                      60.147381
_cell_volume                           839.562217
_space_group_name_H-M_alt              'P 1'
_space_group_IT_number                 1

loop_
_space_group_symop_operation_xyz
   'x, y, z'

loop_
   _atom_site_label
   _atom_site_occupancy
   _atom_site_fract_x
   _atom_site_fract_y
   _atom_site_fract_z
   _atom_site_adp_type
   _atom_site_U_iso_or_equiv
   _atom_site_type_symbol
   Al1        1.0     0.106592     0.099602     0.314512    Uiso  ? Al
   Al2        1.0     0.212368     0.209214     0.058497    Uiso  ? Al
   Al3        1.0     0.786379     0.099047     0.816763    Uiso  ? Al
   Al4        1.0     0.895170     0.206600     0.562984    Uiso  ? Al
   Al5        1.0     0.560781     0.203064     0.048934    Uiso  ? Al
   Al6        1.0     0.101400     0.107126     0.810210    Uiso  ? Al
   Al7        1.0     0.212168     0.208565     0.566985    Uiso  ? Al
   Al8        1.0     0.784395     0.094642     0.310423    Uiso  ? Al
   Al9        1.0     0.098919     0.425565     0.312899    Uiso  ? Al
   Al10       1.0     0.225981     0.524287     0.060991    Uiso  ? Al
   Al11       1.0     0.785536     0.421875     0.812170    Uiso  ? Al
   Al12       1.0     0.890457     0.534507     0.564110    Uiso  ? Al
   Al13       1.0     0.105321     0.422757     0.813174    Uiso  ? Al
   Al14       1.0     0.211840     0.536791     0.568825    Uiso  ? Al
   Al15       1.0     0.785311     0.431054     0.312320    Uiso  ? Al
   Al16       1.0     0.888128     0.539627     0.062094    Uiso  ? Al
   Al17       1.0     0.446467     0.429366     0.813884    Uiso  ? Al
   Al18       1.0     0.227652     0.884531     0.058946    Uiso  ? Al
   Al19       1.0     0.782072     0.753572     0.815198    Uiso  ? Al
   Al20       1.0     0.887087     0.870094     0.563372    Uiso  ? Al
   Al21       1.0     0.450251     0.762506     0.397922    Uiso  ? Al
   Al22       1.0     0.563515     0.867983     0.050510    Uiso  ? Al
   Al23       1.0     0.215326     0.882927     0.572323    Uiso  ? Al
   Al24       1.0     0.873267     0.879086     0.060814    Uiso  ? Al
   Al25       1.0     0.449616     0.756294     0.865306    Uiso  ? Al
   Al26       1.0     0.552092     0.869932     0.620739    Uiso  ? Al
   Hf1        1.0     0.441714     0.090513     0.308219    Uiso  ? Hf
   Hf2        1.0     0.559665     0.197833     0.592112    Uiso  ? Hf
   Hf3        1.0     0.450896     0.428763     0.321816    Uiso  ? Hf
   Hf4        1.0     0.107550     0.766326     0.309798    Uiso  ? Hf
   Hf5        1.0     0.109953     0.760711     0.825463    Uiso  ? Hf
   Mg1        1.0     0.892359     0.207302     0.069088    Uiso  ? Mg
   Mg2        1.0     0.430879     0.100400     0.831101    Uiso  ? Mg
   Mg3        1.0     0.567127     0.534499     0.065634    Uiso  ? Mg
   Mg4        1.0     0.562895     0.538870     0.598849    Uiso  ? Mg
   Mg5        1.0     0.774970     0.753599     0.310862    Uiso  ? Mg
   N1         1.0     0.206788     0.213138     0.375785    Uiso  ? N
   N2         1.0     0.128733     0.087062     0.129792    Uiso  ? N
   N3         1.0     0.890729     0.205511     0.864443    Uiso  ? N
   N4         1.0     0.803189     0.081081     0.626358    Uiso  ? N
   N5         1.0     0.574499     0.194438     0.380301    Uiso  ? N
   N6         1.0     0.445274     0.095116     0.093534    Uiso  ? N
   N7         1.0     0.198007     0.217148     0.874016    Uiso  ? N
   N8         1.0     0.108383     0.097596     0.620161    Uiso  ? N
   N9         1.0     0.888768     0.205118     0.369545    Uiso  ? N
   N10        1.0     0.766811     0.089262     0.123231    Uiso  ? N
   N11        1.0     0.566676     0.211603     0.854358    Uiso  ? N
   N12        1.0     0.428013     0.092138     0.615067    Uiso  ? N
   N13        1.0     0.211629     0.532616     0.376913    Uiso  ? N
   N14        1.0     0.111375     0.428031     0.123168    Uiso  ? N
   N15        1.0     0.891770     0.538517     0.870129    Uiso  ? N
   N16        1.0     0.800274     0.415486     0.624834    Uiso  ? N
   N17        1.0     0.566936     0.544314     0.368558    Uiso  ? N
   N18        1.0     0.439892     0.415563     0.116345    Uiso  ? N
   N19        1.0     0.230779     0.518804     0.872398    Uiso  ? N
   N20        1.0     0.108634     0.427781     0.624018    Uiso  ? N
   N21        1.0     0.897322     0.526846     0.378618    Uiso  ? N
   N22        1.0     0.791116     0.434476     0.128587    Uiso  ? N
   N23        1.0     0.558994     0.534455     0.844664    Uiso  ? N
   N24        1.0     0.422457     0.436164     0.620424    Uiso  ? N
   N25        1.0     0.221844     0.881948     0.377400    Uiso  ? N
   N26        1.0     0.111832     0.761525     0.096839    Uiso  ? N
   N27        1.0     0.872658     0.882635     0.871249    Uiso  ? N
   N28        1.0     0.782330     0.758907     0.622550    Uiso  ? N
   N29        1.0     0.550039     0.870953     0.364029    Uiso  ? N
   N30        1.0     0.442267     0.772413     0.060196    Uiso  ? N
   N31        1.0     0.220035     0.888417     0.862641    Uiso  ? N
   N32        1.0     0.108643     0.759616     0.614008    Uiso  ? N
   N33        1.0     0.882738     0.885682     0.375208    Uiso  ? N
   N34        1.0     0.778348     0.761049     0.102481    Uiso  ? N
   N35        1.0     0.565523     0.859719     0.843042    Uiso  ? N
   N36        1.0     0.432146     0.775724     0.591235    Uiso  ? N
