
#======================================================================
# CRYSTAL DATA
#----------------------------------------------------------------------
data_VESTA_phase_1

_chemical_name_common                  'Al   Hf   Mg   N                      '
_cell_length_a                         9.756570
_cell_length_b                         9.744638
_cell_length_c                         10.140512
_cell_angle_alpha                      89.969231
_cell_angle_beta                       89.903503
_cell_angle_gamma                      60.009689
_cell_volume                           835.016649
_space_group_name_H-M_alt              'P 1'
_space_group_IT_number                 1

loop_
_space_group_symop_operation_xyz
   'x, y, z'

loop_
   _atom_site_label
   _atom_site_occupancy
   _atom_site_fract_x
   _atom_site_fract_y
   _atom_site_fract_z
   _atom_site_adp_type
   _atom_site_U_iso_or_equiv
   _atom_site_type_symbol
   Al1        1.0     0.102349     0.102147     0.400328    Uiso  ? Al
   Al2        1.0     0.212460     0.209369     0.144625    Uiso  ? Al
   Al3        1.0     0.776735     0.100335     0.903292    Uiso  ? Al
   Al4        1.0     0.896459     0.206725     0.649350    Uiso  ? Al
   Al5        1.0     0.561786     0.198169     0.140506    Uiso  ? Al
   Al6        1.0     0.108982     0.102514     0.899470    Uiso  ? Al
   Al7        1.0     0.213470     0.207941     0.651293    Uiso  ? Al
   Al8        1.0     0.791383     0.094133     0.397840    Uiso  ? Al
   Al9        1.0     0.097333     0.426608     0.399420    Uiso  ? Al
   Al10       1.0     0.215491     0.533042     0.141725    Uiso  ? Al
   Al11       1.0     0.779118     0.429183     0.900287    Uiso  ? Al
   Al12       1.0     0.888230     0.539570     0.650761    Uiso  ? Al
   Al13       1.0     0.105756     0.422661     0.897828    Uiso  ? Al
   Al14       1.0     0.219217     0.532396     0.651546    Uiso  ? Al
   Al15       1.0     0.788543     0.424585     0.402562    Uiso  ? Al
   Al16       1.0     0.889228     0.535254     0.146914    Uiso  ? Al
   Al17       1.0     0.449652     0.426964     0.912378    Uiso  ? Al
   Al18       1.0     0.229329     0.881097     0.145593    Uiso  ? Al
   Al19       1.0     0.772936     0.757345     0.898485    Uiso  ? Al
   Al20       1.0     0.882017     0.870454     0.652558    Uiso  ? Al
   Al21       1.0     0.450216     0.760516     0.402232    Uiso  ? Al
   Al22       1.0     0.557481     0.865205     0.143811    Uiso  ? Al
   Al23       1.0     0.229504     0.880490     0.649427    Uiso  ? Al
   Al24       1.0     0.878681     0.876994     0.145485    Uiso  ? Al
   Al25       1.0     0.450887     0.760097     0.901012    Uiso  ? Al
   Al26       1.0     0.558052     0.863887     0.654150    Uiso  ? Al
   Hf1        1.0     0.441343     0.087637     0.375539    Uiso  ? Hf
   Hf2        1.0     0.556732     0.204885     0.650285    Uiso  ? Hf
   Hf3        1.0     0.447732     0.431699     0.375145    Uiso  ? Hf
   Hf4        1.0     0.106613     0.767044     0.397604    Uiso  ? Hf
   Hf5        1.0     0.111842     0.763154     0.890991    Uiso  ? Hf
   Mg1        1.0     0.889930     0.207995     0.146116    Uiso  ? Mg
   Mg2        1.0     0.438297     0.091078     0.908488    Uiso  ? Mg
   Mg3        1.0     0.564784     0.544403     0.135859    Uiso  ? Mg
   Mg4        1.0     0.558544     0.544383     0.650826    Uiso  ? Mg
   Mg5        1.0     0.779317     0.752066     0.396790    Uiso  ? Mg
   N1         1.0     0.199936     0.215120     0.336773    Uiso  ? N
   N2         1.0     0.123695     0.089188     0.084433    Uiso  ? N
   N3         1.0     0.889867     0.202896     0.839930    Uiso  ? N
   N4         1.0     0.794709     0.084769     0.589030    Uiso  ? N
   N5         1.0     0.580162     0.193088     0.339548    Uiso  ? N
   N6         1.0     0.441608     0.095545     0.123830    Uiso  ? N
   N7         1.0     0.207240     0.213786     0.836175    Uiso  ? N
   N8         1.0     0.112644     0.093748     0.589741    Uiso  ? N
   N9         1.0     0.889809     0.206234     0.352578    Uiso  ? N
   N10        1.0     0.772428     0.086931     0.086456    Uiso  ? N
   N11        1.0     0.559362     0.214162     0.852423    Uiso  ? N
   N12        1.0     0.436405     0.087999     0.590693    Uiso  ? N
   N13        1.0     0.204450     0.534728     0.331815    Uiso  ? N
   N14        1.0     0.109849     0.427220     0.085961    Uiso  ? N
   N15        1.0     0.891127     0.540550     0.839035    Uiso  ? N
   N16        1.0     0.795238     0.419924     0.591969    Uiso  ? N
   N17        1.0     0.568985     0.546596     0.350461    Uiso  ? N
   N18        1.0     0.436357     0.420785     0.106338    Uiso  ? N
   N19        1.0     0.231438     0.521278     0.841795    Uiso  ? N
   N20        1.0     0.110437     0.428220     0.589261    Uiso  ? N
   N21        1.0     0.895409     0.524820     0.334686    Uiso  ? N
   N22        1.0     0.791280     0.432117     0.080750    Uiso  ? N
   N23        1.0     0.552054     0.538684     0.858256    Uiso  ? N
   N24        1.0     0.427045     0.435242     0.582037    Uiso  ? N
   N25        1.0     0.229206     0.881015     0.338607    Uiso  ? N
   N26        1.0     0.111893     0.761787     0.100213    Uiso  ? N
   N27        1.0     0.872388     0.881737     0.840920    Uiso  ? N
   N28        1.0     0.777315     0.761443     0.601300    Uiso  ? N
   N29        1.0     0.554507     0.856768     0.330765    Uiso  ? N
   N30        1.0     0.436262     0.777764     0.085063    Uiso  ? N
   N31        1.0     0.230064     0.882078     0.837002    Uiso  ? N
   N32        1.0     0.110374     0.760815     0.610575    Uiso  ? N
   N33        1.0     0.881419     0.886367     0.333672    Uiso  ? N
   N34        1.0     0.779484     0.759814     0.090090    Uiso  ? N
   N35        1.0     0.562137     0.859166     0.840201    Uiso  ? N
   N36        1.0     0.437050     0.776791     0.587119    Uiso  ? N
