
#======================================================================
# CRYSTAL DATA
#----------------------------------------------------------------------
data_VESTA_phase_1

_chemical_name_common                  'Al   Hf   Mg   N                      '
_cell_length_a                         9.835120
_cell_length_b                         9.848022
_cell_length_c                         9.975197
_cell_angle_alpha                      90.057922
_cell_angle_beta                       89.929352
_cell_angle_gamma                      59.868732
_cell_volume                           835.610191
_space_group_name_H-M_alt              'P 1'
_space_group_IT_number                 1

loop_
_space_group_symop_operation_xyz
   'x, y, z'

loop_
   _atom_site_label
   _atom_site_occupancy
   _atom_site_fract_x
   _atom_site_fract_y
   _atom_site_fract_z
   _atom_site_adp_type
   _atom_site_U_iso_or_equiv
   _atom_site_type_symbol
   Al1        1.0     0.099730     0.103004     0.389533    Uiso  ? Al
   Al2        1.0     0.213261     0.210372     0.135945    Uiso  ? Al
   Al3        1.0     0.784240     0.097540     0.841629    Uiso  ? Al
   Al4        1.0     0.898155     0.209735     0.641995    Uiso  ? Al
   Al5        1.0     0.558250     0.198071     0.073483    Uiso  ? Al
   Al6        1.0     0.110923     0.103405     0.891121    Uiso  ? Al
   Al7        1.0     0.211558     0.208644     0.640961    Uiso  ? Al
   Al8        1.0     0.783722     0.096066     0.318223    Uiso  ? Al
   Al9        1.0     0.098046     0.425246     0.390582    Uiso  ? Al
   Al10       1.0     0.216467     0.530026     0.133344    Uiso  ? Al
   Al11       1.0     0.778607     0.432734     0.891348    Uiso  ? Al
   Al12       1.0     0.887955     0.539754     0.641148    Uiso  ? Al
   Al13       1.0     0.105027     0.423418     0.888365    Uiso  ? Al
   Al14       1.0     0.217694     0.533382     0.641389    Uiso  ? Al
   Al15       1.0     0.787813     0.422535     0.392951    Uiso  ? Al
   Al16       1.0     0.888992     0.535043     0.140287    Uiso  ? Al
   Al17       1.0     0.446815     0.433121     0.898443    Uiso  ? Al
   Al18       1.0     0.230770     0.882827     0.137752    Uiso  ? Al
   Al19       1.0     0.773432     0.754768     0.890364    Uiso  ? Al
   Al20       1.0     0.884552     0.868848     0.625464    Uiso  ? Al
   Al21       1.0     0.449761     0.760841     0.392522    Uiso  ? Al
   Al22       1.0     0.557455     0.864950     0.134538    Uiso  ? Al
   Al23       1.0     0.228895     0.882773     0.638777    Uiso  ? Al
   Al24       1.0     0.881220     0.871188     0.118632    Uiso  ? Al
   Al25       1.0     0.450315     0.760339     0.890937    Uiso  ? Al
   Al26       1.0     0.556990     0.863943     0.644548    Uiso  ? Al
   Hf1        1.0     0.442590     0.087626     0.364378    Uiso  ? Hf
   Hf2        1.0     0.553298     0.206447     0.623887    Uiso  ? Hf
   Hf3        1.0     0.451341     0.426309     0.362941    Uiso  ? Hf
   Hf4        1.0     0.111745     0.763821     0.383310    Uiso  ? Hf
   Hf5        1.0     0.115801     0.761865     0.880965    Uiso  ? Hf
   Mg1        1.0     0.892534     0.213134     0.126984    Uiso  ? Mg
   Mg2        1.0     0.433660     0.086178     0.888514    Uiso  ? Mg
   Mg3        1.0     0.563303     0.546124     0.126676    Uiso  ? Mg
   Mg4        1.0     0.556990     0.545526     0.637912    Uiso  ? Mg
   Mg5        1.0     0.779151     0.750081     0.385912    Uiso  ? Mg
   N1         1.0     0.200417     0.214396     0.330179    Uiso  ? N
   N2         1.0     0.126725     0.089317     0.077758    Uiso  ? N
   N3         1.0     0.894002     0.209902     0.839105    Uiso  ? N
   N4         1.0     0.796269     0.085432     0.640212    Uiso  ? N
   N5         1.0     0.583548     0.188709     0.394521    Uiso  ? N
   N6         1.0     0.443275     0.096543     0.114457    Uiso  ? N
   N7         1.0     0.205124     0.215851     0.828286    Uiso  ? N
   N8         1.0     0.110935     0.095252     0.581451    Uiso  ? N
   N9         1.0     0.888012     0.206314     0.342666    Uiso  ? N
   N10        1.0     0.767423     0.090313     0.122456    Uiso  ? N
   N11        1.0     0.559939     0.211625     0.862509    Uiso  ? N
   N12        1.0     0.432090     0.086152     0.586743    Uiso  ? N
   N13        1.0     0.207375     0.528774     0.325040    Uiso  ? N
   N14        1.0     0.109278     0.427131     0.078771    Uiso  ? N
   N15        1.0     0.891182     0.540964     0.831493    Uiso  ? N
   N16        1.0     0.794935     0.420566     0.585191    Uiso  ? N
   N17        1.0     0.567334     0.546364     0.343660    Uiso  ? N
   N18        1.0     0.437062     0.420242     0.099245    Uiso  ? N
   N19        1.0     0.230824     0.520916     0.834659    Uiso  ? N
   N20        1.0     0.109689     0.428673     0.582513    Uiso  ? N
   N21        1.0     0.895447     0.522573     0.329402    Uiso  ? N
   N22        1.0     0.788112     0.437429     0.073988    Uiso  ? N
   N23        1.0     0.551234     0.540365     0.848979    Uiso  ? N
   N24        1.0     0.422360     0.443166     0.575788    Uiso  ? N
   N25        1.0     0.229360     0.883616     0.331273    Uiso  ? N
   N26        1.0     0.115187     0.759723     0.096166    Uiso  ? N
   N27        1.0     0.876533     0.876590     0.859556    Uiso  ? N
   N28        1.0     0.776367     0.761496     0.595372    Uiso  ? N
   N29        1.0     0.553868     0.857236     0.323862    Uiso  ? N
   N30        1.0     0.436178     0.778347     0.077546    Uiso  ? N
   N31        1.0     0.229423     0.885023     0.829267    Uiso  ? N
   N32        1.0     0.110892     0.760920     0.602598    Uiso  ? N
   N33        1.0     0.883850     0.881106     0.343066    Uiso  ? N
   N34        1.0     0.777813     0.756935     0.085091    Uiso  ? N
   N35        1.0     0.563469     0.856076     0.833138    Uiso  ? N
   N36        1.0     0.436561     0.777468     0.579762    Uiso  ? N
