
#======================================================================
# CRYSTAL DATA
#----------------------------------------------------------------------
data_VESTA_phase_1

_chemical_name_common                  'Al   Hf   Mg   N                      '
_cell_length_a                         9.833817
_cell_length_b                         9.792173
_cell_length_c                         10.133637
_cell_angle_alpha                      90.244301
_cell_angle_beta                       90.050278
_cell_angle_gamma                      60.022728
_cell_volume                           845.263755
_space_group_name_H-M_alt              'P 1'
_space_group_IT_number                 1

loop_
_space_group_symop_operation_xyz
   'x, y, z'

loop_
   _atom_site_label
   _atom_site_occupancy
   _atom_site_fract_x
   _atom_site_fract_y
   _atom_site_fract_z
   _atom_site_adp_type
   _atom_site_U_iso_or_equiv
   _atom_site_type_symbol
   Al1        1.0     0.106127     0.094917     0.382480    Uiso  ? Al
   Al2        1.0     0.214168     0.211831     0.131567    Uiso  ? Al
   Al3        1.0     0.786950     0.100062     0.826082    Uiso  ? Al
   Al4        1.0     0.889478     0.208978     0.571982    Uiso  ? Al
   Al5        1.0     0.560079     0.203549     0.064323    Uiso  ? Al
   Al6        1.0     0.111408     0.102419     0.888856    Uiso  ? Al
   Al7        1.0     0.212164     0.201948     0.636891    Uiso  ? Al
   Al8        1.0     0.784146     0.094816     0.319618    Uiso  ? Al
   Al9        1.0     0.097614     0.427729     0.342192    Uiso  ? Al
   Al10       1.0     0.227815     0.522061     0.064008    Uiso  ? Al
   Al11       1.0     0.784454     0.422808     0.819581    Uiso  ? Al
   Al12       1.0     0.888033     0.536095     0.574992    Uiso  ? Al
   Al13       1.0     0.104689     0.427125     0.822891    Uiso  ? Al
   Al14       1.0     0.213546     0.540209     0.580870    Uiso  ? Al
   Al15       1.0     0.784799     0.430328     0.317336    Uiso  ? Al
   Al16       1.0     0.888449     0.541738     0.067947    Uiso  ? Al
   Al17       1.0     0.448564     0.431752     0.822390    Uiso  ? Al
   Al18       1.0     0.237028     0.882971     0.123723    Uiso  ? Al
   Al19       1.0     0.775971     0.758258     0.819076    Uiso  ? Al
   Al20       1.0     0.891609     0.870037     0.573557    Uiso  ? Al
   Al21       1.0     0.444240     0.761616     0.389187    Uiso  ? Al
   Al22       1.0     0.557916     0.864801     0.129174    Uiso  ? Al
   Al23       1.0     0.224381     0.881583     0.633739    Uiso  ? Al
   Al24       1.0     0.867084     0.881094     0.066617    Uiso  ? Al
   Al25       1.0     0.450821     0.763084     0.881171    Uiso  ? Al
   Al26       1.0     0.547488     0.868980     0.636118    Uiso  ? Al
   Hf1        1.0     0.441554     0.088933     0.356287    Uiso  ? Hf
   Hf2        1.0     0.558164     0.196979     0.610591    Uiso  ? Hf
   Hf3        1.0     0.452536     0.425251     0.328579    Uiso  ? Hf
   Hf4        1.0     0.103871     0.759645     0.309151    Uiso  ? Hf
   Hf5        1.0     0.110038     0.764098     0.843734    Uiso  ? Hf
   Mg1        1.0     0.886282     0.210922     0.081641    Uiso  ? Mg
   Mg2        1.0     0.434919     0.088352     0.886830    Uiso  ? Mg
   Mg3        1.0     0.567039     0.535161     0.071555    Uiso  ? Mg
   Mg4        1.0     0.561319     0.542521     0.597813    Uiso  ? Mg
   Mg5        1.0     0.782894     0.749805     0.325975    Uiso  ? Mg
   N1         1.0     0.201305     0.209784     0.325244    Uiso  ? N
   N2         1.0     0.129138     0.090470     0.074981    Uiso  ? N
   N3         1.0     0.890374     0.206626     0.872422    Uiso  ? N
   N4         1.0     0.802419     0.082579     0.635934    Uiso  ? N
   N5         1.0     0.579541     0.195808     0.395285    Uiso  ? N
   N6         1.0     0.444649     0.099239     0.109422    Uiso  ? N
   N7         1.0     0.208668     0.208865     0.823845    Uiso  ? N
   N8         1.0     0.113272     0.090912     0.571454    Uiso  ? N
   N9         1.0     0.882265     0.208724     0.375013    Uiso  ? N
   N10        1.0     0.766785     0.089297     0.132959    Uiso  ? N
   N11        1.0     0.564334     0.210269     0.861130    Uiso  ? N
   N12        1.0     0.428508     0.085767     0.574443    Uiso  ? N
   N13        1.0     0.214662     0.530800     0.388151    Uiso  ? N
   N14        1.0     0.107633     0.435153     0.119745    Uiso  ? N
   N15        1.0     0.889450     0.541721     0.874646    Uiso  ? N
   N16        1.0     0.797916     0.416562     0.633610    Uiso  ? N
   N17        1.0     0.566371     0.541744     0.371642    Uiso  ? N
   N18        1.0     0.439834     0.418043     0.122865    Uiso  ? N
   N19        1.0     0.232519     0.519852     0.876247    Uiso  ? N
   N20        1.0     0.107961     0.430674     0.622573    Uiso  ? N
   N21        1.0     0.892889     0.525778     0.390597    Uiso  ? N
   N22        1.0     0.789917     0.438393     0.135113    Uiso  ? N
   N23        1.0     0.558187     0.538839     0.855184    Uiso  ? N
   N24        1.0     0.425391     0.436248     0.630162    Uiso  ? N
   N25        1.0     0.228134     0.877863     0.319572    Uiso  ? N
   N26        1.0     0.111229     0.761724     0.096172    Uiso  ? N
   N27        1.0     0.868470     0.884554     0.878510    Uiso  ? N
   N28        1.0     0.781029     0.761944     0.623606    Uiso  ? N
   N29        1.0     0.546646     0.858277     0.319076    Uiso  ? N
   N30        1.0     0.440805     0.776519     0.066660    Uiso  ? N
   N31        1.0     0.231188     0.885417     0.825456    Uiso  ? N
   N32        1.0     0.109651     0.759920     0.627618    Uiso  ? N
   N33        1.0     0.884941     0.886296     0.385331    Uiso  ? N
   N34        1.0     0.780687     0.759829     0.114971    Uiso  ? N
   N35        1.0     0.557798     0.862239     0.822191    Uiso  ? N
   N36        1.0     0.429952     0.780846     0.573434    Uiso  ? N
