
#======================================================================
# CRYSTAL DATA
#----------------------------------------------------------------------
data_VESTA_phase_1

_chemical_name_common                  'Al   Hf   Mg   N                      '
_cell_length_a                         9.804975
_cell_length_b                         9.782321
_cell_length_c                         10.088992
_cell_angle_alpha                      90.155182
_cell_angle_beta                       89.960327
_cell_angle_gamma                      60.103371
_cell_volume                           838.910112
_space_group_name_H-M_alt              'P 1'
_space_group_IT_number                 1

loop_
_space_group_symop_operation_xyz
   'x, y, z'

loop_
   _atom_site_label
   _atom_site_occupancy
   _atom_site_fract_x
   _atom_site_fract_y
   _atom_site_fract_z
   _atom_site_adp_type
   _atom_site_U_iso_or_equiv
   _atom_site_type_symbol
   Al1        1.0     0.104712     0.101426     0.312912    Uiso  ? Al
   Al2        1.0     0.214536     0.208129     0.059388    Uiso  ? Al
   Al3        1.0     0.786152     0.099018     0.817636    Uiso  ? Al
   Al4        1.0     0.895881     0.206853     0.564077    Uiso  ? Al
   Al5        1.0     0.558249     0.201049     0.048916    Uiso  ? Al
   Al6        1.0     0.103198     0.106823     0.811530    Uiso  ? Al
   Al7        1.0     0.211834     0.209496     0.566511    Uiso  ? Al
   Al8        1.0     0.784127     0.095266     0.310020    Uiso  ? Al
   Al9        1.0     0.098506     0.425921     0.312120    Uiso  ? Al
   Al10       1.0     0.224674     0.524586     0.060369    Uiso  ? Al
   Al11       1.0     0.784695     0.423259     0.813327    Uiso  ? Al
   Al12       1.0     0.891282     0.533604     0.565195    Uiso  ? Al
   Al13       1.0     0.105846     0.423028     0.813990    Uiso  ? Al
   Al14       1.0     0.211643     0.538756     0.569929    Uiso  ? Al
   Al15       1.0     0.786232     0.429496     0.311153    Uiso  ? Al
   Al16       1.0     0.887228     0.540980     0.061842    Uiso  ? Al
   Al17       1.0     0.445748     0.430837     0.815295    Uiso  ? Al
   Al18       1.0     0.227187     0.885424     0.062053    Uiso  ? Al
   Al19       1.0     0.775005     0.757363     0.812020    Uiso  ? Al
   Al20       1.0     0.888724     0.871332     0.564909    Uiso  ? Al
   Al21       1.0     0.446413     0.758604     0.385893    Uiso  ? Al
   Al22       1.0     0.564185     0.865922     0.055965    Uiso  ? Al
   Al23       1.0     0.217802     0.882573     0.570937    Uiso  ? Al
   Al24       1.0     0.870889     0.878889     0.060582    Uiso  ? Al
   Al25       1.0     0.451866     0.757707     0.868939    Uiso  ? Al
   Al26       1.0     0.556796     0.869299     0.570776    Uiso  ? Al
   Hf1        1.0     0.442826     0.089785     0.314742    Uiso  ? Hf
   Hf2        1.0     0.560166     0.200452     0.594928    Uiso  ? Hf
   Hf3        1.0     0.449253     0.427467     0.320213    Uiso  ? Hf
   Hf4        1.0     0.105925     0.766858     0.307986    Uiso  ? Hf
   Hf5        1.0     0.110098     0.762683     0.828105    Uiso  ? Hf
   Mg1        1.0     0.891059     0.207810     0.068083    Uiso  ? Mg
   Mg2        1.0     0.434504     0.089523     0.821863    Uiso  ? Mg
   Mg3        1.0     0.566075     0.534276     0.068322    Uiso  ? Mg
   Mg4        1.0     0.562474     0.541099     0.596323    Uiso  ? Mg
   Mg5        1.0     0.779572     0.750922     0.313466    Uiso  ? Mg
   N1         1.0     0.206352     0.213526     0.375030    Uiso  ? N
   N2         1.0     0.126017     0.089489     0.128787    Uiso  ? N
   N3         1.0     0.891046     0.205592     0.863914    Uiso  ? N
   N4         1.0     0.803865     0.082083     0.626877    Uiso  ? N
   N5         1.0     0.574547     0.194849     0.381641    Uiso  ? N
   N6         1.0     0.444560     0.094855     0.103836    Uiso  ? N
   N7         1.0     0.202142     0.215827     0.873600    Uiso  ? N
   N8         1.0     0.109883     0.097259     0.620593    Uiso  ? N
   N9         1.0     0.888363     0.205362     0.369963    Uiso  ? N
   N10        1.0     0.765418     0.089582     0.122603    Uiso  ? N
   N11        1.0     0.564354     0.210646     0.852204    Uiso  ? N
   N12        1.0     0.431286     0.089715     0.605811    Uiso  ? N
   N13        1.0     0.210057     0.533981     0.377239    Uiso  ? N
   N14        1.0     0.110824     0.428098     0.122537    Uiso  ? N
   N15        1.0     0.890927     0.540597     0.869065    Uiso  ? N
   N16        1.0     0.799497     0.416005     0.625551    Uiso  ? N
   N17        1.0     0.567033     0.541308     0.364444    Uiso  ? N
   N18        1.0     0.438633     0.414216     0.115079    Uiso  ? N
   N19        1.0     0.229592     0.520573     0.872097    Uiso  ? N
   N20        1.0     0.109569     0.427856     0.624377    Uiso  ? N
   N21        1.0     0.897667     0.524651     0.379705    Uiso  ? N
   N22        1.0     0.791471     0.434243     0.127677    Uiso  ? N
   N23        1.0     0.557979     0.536105     0.848448    Uiso  ? N
   N24        1.0     0.422333     0.438612     0.621304    Uiso  ? N
   N25        1.0     0.219978     0.883357     0.374219    Uiso  ? N
   N26        1.0     0.109842     0.762246     0.095417    Uiso  ? N
   N27        1.0     0.871337     0.882560     0.870575    Uiso  ? N
   N28        1.0     0.779753     0.761223     0.619326    Uiso  ? N
   N29        1.0     0.554867     0.866383     0.376583    Uiso  ? N
   N30        1.0     0.440539     0.771853     0.075852    Uiso  ? N
   N31        1.0     0.223243     0.888345     0.866172    Uiso  ? N
   N32        1.0     0.109482     0.761053     0.615726    Uiso  ? N
   N33        1.0     0.882457     0.887010     0.376503    Uiso  ? N
   N34        1.0     0.779669     0.760057     0.109531    Uiso  ? N
   N35        1.0     0.568056     0.859054     0.865206    Uiso  ? N
   N36        1.0     0.433551     0.775602     0.585378    Uiso  ? N
