
#======================================================================
# CRYSTAL DATA
#----------------------------------------------------------------------
data_VESTA_phase_1

_chemical_name_common                  'Al   Hf   Mg   N                      '
_cell_length_a                         9.860251
_cell_length_b                         9.824482
_cell_length_c                         10.048385
_cell_angle_alpha                      90.274750
_cell_angle_beta                       90.235619
_cell_angle_gamma                      59.978760
_cell_volume                           842.802271
_space_group_name_H-M_alt              'P 1'
_space_group_IT_number                 1

loop_
_space_group_symop_operation_xyz
   'x, y, z'

loop_
   _atom_site_label
   _atom_site_occupancy
   _atom_site_fract_x
   _atom_site_fract_y
   _atom_site_fract_z
   _atom_site_adp_type
   _atom_site_U_iso_or_equiv
   _atom_site_type_symbol
   Al1        1.0     0.104502     0.095626     0.382080    Uiso  ? Al
   Al2        1.0     0.218975     0.212869     0.071675    Uiso  ? Al
   Al3        1.0     0.787222     0.099413     0.826530    Uiso  ? Al
   Al4        1.0     0.889062     0.208701     0.574397    Uiso  ? Al
   Al5        1.0     0.559846     0.204837     0.062987    Uiso  ? Al
   Al6        1.0     0.109163     0.098662     0.888935    Uiso  ? Al
   Al7        1.0     0.212804     0.206952     0.594430    Uiso  ? Al
   Al8        1.0     0.782391     0.096679     0.319601    Uiso  ? Al
   Al9        1.0     0.096352     0.425519     0.316501    Uiso  ? Al
   Al10       1.0     0.226592     0.524338     0.067956    Uiso  ? Al
   Al11       1.0     0.785204     0.422955     0.820510    Uiso  ? Al
   Al12       1.0     0.892066     0.532788     0.571624    Uiso  ? Al
   Al13       1.0     0.106367     0.424706     0.821582    Uiso  ? Al
   Al14       1.0     0.211029     0.538392     0.578095    Uiso  ? Al
   Al15       1.0     0.784597     0.431204     0.318608    Uiso  ? Al
   Al16       1.0     0.886231     0.542687     0.068752    Uiso  ? Al
   Al17       1.0     0.446739     0.432526     0.821926    Uiso  ? Al
   Al18       1.0     0.236830     0.882480     0.127629    Uiso  ? Al
   Al19       1.0     0.778951     0.754325     0.819388    Uiso  ? Al
   Al20       1.0     0.890381     0.870161     0.574351    Uiso  ? Al
   Al21       1.0     0.444046     0.763530     0.389954    Uiso  ? Al
   Al22       1.0     0.558313     0.862899     0.127597    Uiso  ? Al
   Al23       1.0     0.225225     0.880434     0.634301    Uiso  ? Al
   Al24       1.0     0.866840     0.880641     0.068203    Uiso  ? Al
   Al25       1.0     0.450943     0.761740     0.881340    Uiso  ? Al
   Al26       1.0     0.550270     0.866911     0.635309    Uiso  ? Al
   Hf1        1.0     0.438330     0.095253     0.341610    Uiso  ? Hf
   Hf2        1.0     0.559246     0.198481     0.606618    Uiso  ? Hf
   Hf3        1.0     0.449700     0.429740     0.331998    Uiso  ? Hf
   Hf4        1.0     0.101703     0.762139     0.314761    Uiso  ? Hf
   Hf5        1.0     0.110087     0.762520     0.843961    Uiso  ? Hf
   Mg1        1.0     0.885901     0.210793     0.083850    Uiso  ? Mg
   Mg2        1.0     0.445808     0.084895     0.870648    Uiso  ? Mg
   Mg3        1.0     0.565775     0.534863     0.073550    Uiso  ? Mg
   Mg4        1.0     0.561227     0.543750     0.600540    Uiso  ? Mg
   Mg5        1.0     0.780139     0.751805     0.329873    Uiso  ? Mg
   N1         1.0     0.201433     0.214897     0.364420    Uiso  ? N
   N2         1.0     0.125932     0.088323     0.080959    Uiso  ? N
   N3         1.0     0.890124     0.206425     0.871422    Uiso  ? N
   N4         1.0     0.802419     0.081808     0.635949    Uiso  ? N
   N5         1.0     0.577309     0.198818     0.392494    Uiso  ? N
   N6         1.0     0.445450     0.099163     0.109039    Uiso  ? N
   N7         1.0     0.209890     0.215603     0.869255    Uiso  ? N
   N8         1.0     0.110871     0.089631     0.577694    Uiso  ? N
   N9         1.0     0.881396     0.209189     0.375427    Uiso  ? N
   N10        1.0     0.765958     0.089468     0.131678    Uiso  ? N
   N11        1.0     0.565615     0.211685     0.860559    Uiso  ? N
   N12        1.0     0.433879     0.084254     0.583083    Uiso  ? N
   N13        1.0     0.210007     0.530745     0.384729    Uiso  ? N
   N14        1.0     0.109121     0.432227     0.126068    Uiso  ? N
   N15        1.0     0.891759     0.539948     0.876228    Uiso  ? N
   N16        1.0     0.798917     0.417149     0.632613    Uiso  ? N
   N17        1.0     0.566539     0.544023     0.371512    Uiso  ? N
   N18        1.0     0.439177     0.417614     0.124554    Uiso  ? N
   N19        1.0     0.231931     0.520039     0.879019    Uiso  ? N
   N20        1.0     0.109561     0.427496     0.631773    Uiso  ? N
   N21        1.0     0.897562     0.524422     0.386044    Uiso  ? N
   N22        1.0     0.789236     0.438376     0.134393    Uiso  ? N
   N23        1.0     0.557882     0.538151     0.854021    Uiso  ? N
   N24        1.0     0.422962     0.437871     0.627277    Uiso  ? N
   N25        1.0     0.227808     0.878065     0.323611    Uiso  ? N
   N26        1.0     0.109972     0.760659     0.099944    Uiso  ? N
   N27        1.0     0.869055     0.883404     0.878225    Uiso  ? N
   N28        1.0     0.783757     0.758234     0.622092    Uiso  ? N
   N29        1.0     0.543907     0.861874     0.319854    Uiso  ? N
   N30        1.0     0.439577     0.775675     0.068150    Uiso  ? N
   N31        1.0     0.231049     0.883883     0.826708    Uiso  ? N
   N32        1.0     0.109665     0.758212     0.625614    Uiso  ? N
   N33        1.0     0.880914     0.889253     0.385502    Uiso  ? N
   N34        1.0     0.780256     0.759635     0.115655    Uiso  ? N
   N35        1.0     0.561924     0.856274     0.823275    Uiso  ? N
   N36        1.0     0.430360     0.781130     0.575307    Uiso  ? N
