
#======================================================================
# CRYSTAL DATA
#----------------------------------------------------------------------
data_VESTA_phase_1

_chemical_name_common                  'Al   Hf   Mg   N                      '
_cell_length_a                         9.825438
_cell_length_b                         9.831826
_cell_length_c                         10.026156
_cell_angle_alpha                      89.947952
_cell_angle_beta                       90.016319
_cell_angle_gamma                      59.903038
_cell_volume                           837.964661
_space_group_name_H-M_alt              'P 1'
_space_group_IT_number                 1

loop_
_space_group_symop_operation_xyz
   'x, y, z'

loop_
   _atom_site_label
   _atom_site_occupancy
   _atom_site_fract_x
   _atom_site_fract_y
   _atom_site_fract_z
   _atom_site_adp_type
   _atom_site_U_iso_or_equiv
   _atom_site_type_symbol
   Al1        1.0     0.099660     0.103140     0.386101    Uiso  ? Al
   Al2        1.0     0.213030     0.210261     0.132479    Uiso  ? Al
   Al3        1.0     0.784587     0.096481     0.832747    Uiso  ? Al
   Al4        1.0     0.897984     0.209995     0.638045    Uiso  ? Al
   Al5        1.0     0.559518     0.196805     0.072307    Uiso  ? Al
   Al6        1.0     0.110343     0.103972     0.887890    Uiso  ? Al
   Al7        1.0     0.210834     0.209074     0.637603    Uiso  ? Al
   Al8        1.0     0.785967     0.091817     0.319043    Uiso  ? Al
   Al9        1.0     0.098230     0.425321     0.386552    Uiso  ? Al
   Al10       1.0     0.215669     0.531803     0.128819    Uiso  ? Al
   Al11       1.0     0.778853     0.431657     0.888003    Uiso  ? Al
   Al12       1.0     0.887506     0.540925     0.637727    Uiso  ? Al
   Al13       1.0     0.105443     0.423036     0.885095    Uiso  ? Al
   Al14       1.0     0.217910     0.532927     0.638024    Uiso  ? Al
   Al15       1.0     0.788145     0.422286     0.389686    Uiso  ? Al
   Al16       1.0     0.889104     0.534491     0.135981    Uiso  ? Al
   Al17       1.0     0.447669     0.432251     0.896020    Uiso  ? Al
   Al18       1.0     0.229948     0.881842     0.132418    Uiso  ? Al
   Al19       1.0     0.771688     0.753905     0.884951    Uiso  ? Al
   Al20       1.0     0.880114     0.876478     0.580525    Uiso  ? Al
   Al21       1.0     0.450856     0.760595     0.388705    Uiso  ? Al
   Al22       1.0     0.557353     0.865071     0.131324    Uiso  ? Al
   Al23       1.0     0.229810     0.883021     0.635618    Uiso  ? Al
   Al24       1.0     0.878319     0.875635     0.077768    Uiso  ? Al
   Al25       1.0     0.450453     0.760267     0.887933    Uiso  ? Al
   Al26       1.0     0.557275     0.863770     0.640989    Uiso  ? Al
   Hf1        1.0     0.442102     0.087476     0.361829    Uiso  ? Hf
   Hf2        1.0     0.551388     0.207513     0.620613    Uiso  ? Hf
   Hf3        1.0     0.452195     0.425223     0.358500    Uiso  ? Hf
   Hf4        1.0     0.118432     0.761123     0.382594    Uiso  ? Hf
   Hf5        1.0     0.116023     0.761806     0.870192    Uiso  ? Hf
   Mg1        1.0     0.892125     0.211581     0.126274    Uiso  ? Mg
   Mg2        1.0     0.433586     0.086573     0.885986    Uiso  ? Mg
   Mg3        1.0     0.563931     0.545931     0.123429    Uiso  ? Mg
   Mg4        1.0     0.556967     0.545631     0.634565    Uiso  ? Mg
   Mg5        1.0     0.779190     0.748226     0.380946    Uiso  ? Mg
   N1         1.0     0.200203     0.214561     0.325941    Uiso  ? N
   N2         1.0     0.125840     0.089497     0.073686    Uiso  ? N
   N3         1.0     0.893897     0.209772     0.834206    Uiso  ? N
   N4         1.0     0.795335     0.084336     0.638902    Uiso  ? N
   N5         1.0     0.583419     0.188059     0.392836    Uiso  ? N
   N6         1.0     0.442774     0.096493     0.110766    Uiso  ? N
   N7         1.0     0.205013     0.215915     0.824124    Uiso  ? N
   N8         1.0     0.110684     0.095220     0.577330    Uiso  ? N
   N9         1.0     0.887681     0.206272     0.340023    Uiso  ? N
   N10        1.0     0.767803     0.085176     0.129027    Uiso  ? N
   N11        1.0     0.561378     0.210965     0.860407    Uiso  ? N
   N12        1.0     0.430982     0.086592     0.582864    Uiso  ? N
   N13        1.0     0.207549     0.528759     0.320065    Uiso  ? N
   N14        1.0     0.109411     0.427210     0.074550    Uiso  ? N
   N15        1.0     0.891494     0.540648     0.827497    Uiso  ? N
   N16        1.0     0.794803     0.420989     0.581028    Uiso  ? N
   N17        1.0     0.567582     0.546320     0.339432    Uiso  ? N
   N18        1.0     0.437714     0.419671     0.096002    Uiso  ? N
   N19        1.0     0.232034     0.519248     0.830453    Uiso  ? N
   N20        1.0     0.109310     0.429132     0.578002    Uiso  ? N
   N21        1.0     0.895858     0.521956     0.324451    Uiso  ? N
   N22        1.0     0.788716     0.435532     0.069815    Uiso  ? N
   N23        1.0     0.551188     0.540365     0.845001    Uiso  ? N
   N24        1.0     0.421716     0.443927     0.570506    Uiso  ? N
   N25        1.0     0.230121     0.884083     0.326136    Uiso  ? N
   N26        1.0     0.115052     0.760188     0.089194    Uiso  ? N
   N27        1.0     0.873768     0.882230     0.879559    Uiso  ? N
   N28        1.0     0.775149     0.761433     0.592885    Uiso  ? N
   N29        1.0     0.554573     0.857316     0.319643    Uiso  ? N
   N30        1.0     0.436134     0.778327     0.073508    Uiso  ? N
   N31        1.0     0.230107     0.885713     0.825344    Uiso  ? N
   N32        1.0     0.112970     0.760433     0.602646    Uiso  ? N
   N33        1.0     0.884748     0.886800     0.383430    Uiso  ? N
   N34        1.0     0.776749     0.755565     0.081602    Uiso  ? N
   N35        1.0     0.562333     0.856854     0.828678    Uiso  ? N
   N36        1.0     0.436561     0.777622     0.575030    Uiso  ? N
