
#======================================================================
# CRYSTAL DATA
#----------------------------------------------------------------------
data_VESTA_phase_1

_chemical_name_common                  'Al   Hf   Mg   N                      '
_cell_length_a                         9.757952
_cell_length_b                         9.745649
_cell_length_c                         10.137686
_cell_angle_alpha                      89.971024
_cell_angle_beta                       89.899185
_cell_angle_gamma                      60.008469
_cell_volume                           834.978409
_space_group_name_H-M_alt              'P 1'
_space_group_IT_number                 1

loop_
_space_group_symop_operation_xyz
   'x, y, z'

loop_
   _atom_site_label
   _atom_site_occupancy
   _atom_site_fract_x
   _atom_site_fract_y
   _atom_site_fract_z
   _atom_site_adp_type
   _atom_site_U_iso_or_equiv
   _atom_site_type_symbol
   Al1        1.0     0.102332     0.102155     0.396365    Uiso  ? Al
   Al2        1.0     0.212447     0.209381     0.140696    Uiso  ? Al
   Al3        1.0     0.776720     0.100338     0.899337    Uiso  ? Al
   Al4        1.0     0.896488     0.206708     0.645444    Uiso  ? Al
   Al5        1.0     0.561713     0.198158     0.136472    Uiso  ? Al
   Al6        1.0     0.108979     0.102513     0.895573    Uiso  ? Al
   Al7        1.0     0.213446     0.207959     0.647365    Uiso  ? Al
   Al8        1.0     0.791399     0.094129     0.393920    Uiso  ? Al
   Al9        1.0     0.097312     0.426626     0.395491    Uiso  ? Al
   Al10       1.0     0.215416     0.533096     0.137778    Uiso  ? Al
   Al11       1.0     0.779118     0.429194     0.896343    Uiso  ? Al
   Al12       1.0     0.888233     0.539574     0.646817    Uiso  ? Al
   Al13       1.0     0.105730     0.422675     0.893916    Uiso  ? Al
   Al14       1.0     0.219221     0.532376     0.647621    Uiso  ? Al
   Al15       1.0     0.788537     0.424563     0.398639    Uiso  ? Al
   Al16       1.0     0.889205     0.535271     0.143022    Uiso  ? Al
   Al17       1.0     0.449629     0.426970     0.908412    Uiso  ? Al
   Al18       1.0     0.229316     0.881092     0.141672    Uiso  ? Al
   Al19       1.0     0.772954     0.757323     0.894578    Uiso  ? Al
   Al20       1.0     0.881996     0.870466     0.648666    Uiso  ? Al
   Al21       1.0     0.450228     0.760488     0.398278    Uiso  ? Al
   Al22       1.0     0.557466     0.865205     0.139854    Uiso  ? Al
   Al23       1.0     0.229541     0.880521     0.645493    Uiso  ? Al
   Al24       1.0     0.878666     0.877016     0.141540    Uiso  ? Al
   Al25       1.0     0.450890     0.760072     0.897084    Uiso  ? Al
   Al26       1.0     0.558080     0.863863     0.650232    Uiso  ? Al
   Hf1        1.0     0.441303     0.087615     0.371641    Uiso  ? Hf
   Hf2        1.0     0.556738     0.204913     0.646244    Uiso  ? Hf
   Hf3        1.0     0.447685     0.431714     0.371120    Uiso  ? Hf
   Hf4        1.0     0.106592     0.767065     0.393720    Uiso  ? Hf
   Hf5        1.0     0.111853     0.763169     0.886975    Uiso  ? Hf
   Mg1        1.0     0.889897     0.208021     0.142143    Uiso  ? Mg
   Mg2        1.0     0.438264     0.091053     0.904423    Uiso  ? Mg
   Mg3        1.0     0.564779     0.544403     0.131905    Uiso  ? Mg
   Mg4        1.0     0.558539     0.544378     0.646837    Uiso  ? Mg
   Mg5        1.0     0.779306     0.752099     0.392828    Uiso  ? Mg
   N1         1.0     0.199924     0.215134     0.332880    Uiso  ? N
   N2         1.0     0.123688     0.089190     0.080573    Uiso  ? N
   N3         1.0     0.889886     0.202879     0.836065    Uiso  ? N
   N4         1.0     0.794778     0.084746     0.585168    Uiso  ? N
   N5         1.0     0.580122     0.193052     0.335844    Uiso  ? N
   N6         1.0     0.441580     0.095540     0.119867    Uiso  ? N
   N7         1.0     0.207191     0.213805     0.832287    Uiso  ? N
   N8         1.0     0.112652     0.093757     0.585824    Uiso  ? N
   N9         1.0     0.889806     0.206225     0.348647    Uiso  ? N
   N10        1.0     0.772370     0.086967     0.082558    Uiso  ? N
   N11        1.0     0.559356     0.214161     0.848462    Uiso  ? N
   N12        1.0     0.436397     0.087988     0.586854    Uiso  ? N
   N13        1.0     0.204379     0.534780     0.327918    Uiso  ? N
   N14        1.0     0.109816     0.427235     0.082082    Uiso  ? N
   N15        1.0     0.891133     0.540549     0.835131    Uiso  ? N
   N16        1.0     0.795255     0.419903     0.588093    Uiso  ? N
   N17        1.0     0.568995     0.546552     0.346568    Uiso  ? N
   N18        1.0     0.436315     0.420791     0.102474    Uiso  ? N
   N19        1.0     0.231437     0.521258     0.837917    Uiso  ? N
   N20        1.0     0.110436     0.428223     0.585365    Uiso  ? N
   N21        1.0     0.895387     0.524822     0.330825    Uiso  ? N
   N22        1.0     0.791262     0.432153     0.076852    Uiso  ? N
   N23        1.0     0.552052     0.538665     0.854341    Uiso  ? N
   N24        1.0     0.427000     0.435300     0.578099    Uiso  ? N
   N25        1.0     0.229209     0.880991     0.334724    Uiso  ? N
   N26        1.0     0.111875     0.761811     0.096260    Uiso  ? N
   N27        1.0     0.872381     0.881725     0.837066    Uiso  ? N
   N28        1.0     0.777328     0.761451     0.597394    Uiso  ? N
   N29        1.0     0.554501     0.856762     0.326855    Uiso  ? N
   N30        1.0     0.436249     0.777753     0.081179    Uiso  ? N
   N31        1.0     0.230095     0.882098     0.833108    Uiso  ? N
   N32        1.0     0.110373     0.760820     0.606759    Uiso  ? N
   N33        1.0     0.881435     0.886372     0.329769    Uiso  ? N
   N34        1.0     0.779480     0.759818     0.086215    Uiso  ? N
   N35        1.0     0.562173     0.859100     0.836324    Uiso  ? N
   N36        1.0     0.437076     0.776793     0.583211    Uiso  ? N
