
#======================================================================
# CRYSTAL DATA
#----------------------------------------------------------------------
data_VESTA_phase_1

_chemical_name_common                  'Al   Hf   Mg   N                      '
_cell_length_a                         9.880797
_cell_length_b                         9.835545
_cell_length_c                         10.054352
_cell_angle_alpha                      90.194885
_cell_angle_beta                       90.026192
_cell_angle_gamma                      59.883778
_cell_volume                           845.205549
_space_group_name_H-M_alt              'P 1'
_space_group_IT_number                 1

loop_
_space_group_symop_operation_xyz
   'x, y, z'

loop_
   _atom_site_label
   _atom_site_occupancy
   _atom_site_fract_x
   _atom_site_fract_y
   _atom_site_fract_z
   _atom_site_adp_type
   _atom_site_U_iso_or_equiv
   _atom_site_type_symbol
   Al1        1.0     0.105720     0.097807     0.380778    Uiso  ? Al
   Al2        1.0     0.212053     0.212392     0.131538    Uiso  ? Al
   Al3        1.0     0.788275     0.097352     0.824397    Uiso  ? Al
   Al4        1.0     0.887801     0.209686     0.571667    Uiso  ? Al
   Al5        1.0     0.562552     0.194706     0.072456    Uiso  ? Al
   Al6        1.0     0.112797     0.100506     0.885573    Uiso  ? Al
   Al7        1.0     0.208975     0.207447     0.636981    Uiso  ? Al
   Al8        1.0     0.783146     0.094254     0.319810    Uiso  ? Al
   Al9        1.0     0.100270     0.422787     0.387661    Uiso  ? Al
   Al10       1.0     0.222707     0.527186     0.091552    Uiso  ? Al
   Al11       1.0     0.786997     0.420563     0.821935    Uiso  ? Al
   Al12       1.0     0.881150     0.538115     0.574426    Uiso  ? Al
   Al13       1.0     0.111205     0.418564     0.880137    Uiso  ? Al
   Al14       1.0     0.213628     0.540231     0.609513    Uiso  ? Al
   Al15       1.0     0.788509     0.427645     0.313435    Uiso  ? Al
   Al16       1.0     0.883716     0.543365     0.065462    Uiso  ? Al
   Al17       1.0     0.455673     0.427851     0.892327    Uiso  ? Al
   Al18       1.0     0.239004     0.885281     0.124546    Uiso  ? Al
   Al19       1.0     0.777287     0.756400     0.817662    Uiso  ? Al
   Al20       1.0     0.888158     0.872152     0.572952    Uiso  ? Al
   Al21       1.0     0.448055     0.760402     0.386165    Uiso  ? Al
   Al22       1.0     0.558751     0.866854     0.130791    Uiso  ? Al
   Al23       1.0     0.226136     0.882100     0.631413    Uiso  ? Al
   Al24       1.0     0.868379     0.878648     0.065430    Uiso  ? Al
   Al25       1.0     0.454044     0.760134     0.883687    Uiso  ? Al
   Al26       1.0     0.548279     0.869271     0.635020    Uiso  ? Al
   Hf1        1.0     0.439191     0.090721     0.360161    Uiso  ? Hf
   Hf2        1.0     0.551439     0.206856     0.617961    Uiso  ? Hf
   Hf3        1.0     0.449046     0.428655     0.353876    Uiso  ? Hf
   Hf4        1.0     0.102238     0.767602     0.311894    Uiso  ? Hf
   Hf5        1.0     0.113069     0.763310     0.846918    Uiso  ? Hf
   Mg1        1.0     0.887715     0.207042     0.079295    Uiso  ? Mg
   Mg2        1.0     0.434756     0.086494     0.884612    Uiso  ? Mg
   Mg3        1.0     0.564822     0.545130     0.109781    Uiso  ? Mg
   Mg4        1.0     0.551987     0.547683     0.629239    Uiso  ? Mg
   Mg5        1.0     0.784721     0.749545     0.327445    Uiso  ? Mg
   N1         1.0     0.197104     0.215991     0.322372    Uiso  ? N
   N2         1.0     0.129923     0.089826     0.072948    Uiso  ? N
   N3         1.0     0.892250     0.202842     0.869172    Uiso  ? N
   N4         1.0     0.797211     0.085508     0.632960    Uiso  ? N
   N5         1.0     0.580564     0.190505     0.390009    Uiso  ? N
   N6         1.0     0.443719     0.097478     0.109269    Uiso  ? N
   N7         1.0     0.206275     0.212395     0.821975    Uiso  ? N
   N8         1.0     0.112839     0.092883     0.571886    Uiso  ? N
   N9         1.0     0.881842     0.208081     0.373475    Uiso  ? N
   N10        1.0     0.769920     0.085375     0.131275    Uiso  ? N
   N11        1.0     0.564570     0.208083     0.855963    Uiso  ? N
   N12        1.0     0.428966     0.088367     0.579154    Uiso  ? N
   N13        1.0     0.205357     0.530051     0.333098    Uiso  ? N
   N14        1.0     0.112162     0.423192     0.073203    Uiso  ? N
   N15        1.0     0.887612     0.541846     0.870259    Uiso  ? N
   N16        1.0     0.794233     0.417365     0.633240    Uiso  ? N
   N17        1.0     0.562940     0.548644     0.336760    Uiso  ? N
   N18        1.0     0.443653     0.416395     0.096722    Uiso  ? N
   N19        1.0     0.235893     0.519858     0.857315    Uiso  ? N
   N20        1.0     0.114254     0.424281     0.582551    Uiso  ? N
   N21        1.0     0.887250     0.526767     0.387783    Uiso  ? N
   N22        1.0     0.797036     0.431959     0.129596    Uiso  ? N
   N23        1.0     0.556821     0.538192     0.848878    Uiso  ? N
   N24        1.0     0.423740     0.442578     0.571409    Uiso  ? N
   N25        1.0     0.230807     0.881928     0.319932    Uiso  ? N
   N26        1.0     0.110594     0.763332     0.094418    Uiso  ? N
   N27        1.0     0.870186     0.881984     0.875895    Uiso  ? N
   N28        1.0     0.781280     0.761357     0.622211    Uiso  ? N
   N29        1.0     0.548820     0.861107     0.321558    Uiso  ? N
   N30        1.0     0.442414     0.778090     0.068662    Uiso  ? N
   N31        1.0     0.234347     0.883536     0.824531    Uiso  ? N
   N32        1.0     0.108733     0.762070     0.623397    Uiso  ? N
   N33        1.0     0.882583     0.886917     0.385063    Uiso  ? N
   N34        1.0     0.781536     0.758704     0.114381    Uiso  ? N
   N35        1.0     0.559328     0.859697     0.822615    Uiso  ? N
   N36        1.0     0.433147     0.778118     0.571779    Uiso  ? N
