
#======================================================================
# CRYSTAL DATA
#----------------------------------------------------------------------
data_VESTA_phase_1

_chemical_name_common                  'Al   Hf   Mg   N                      '
_cell_length_a                         9.805898
_cell_length_b                         9.774150
_cell_length_c                         10.096120
_cell_angle_alpha                      90.220383
_cell_angle_beta                       90.055817
_cell_angle_gamma                      60.152489
_cell_volume                           839.292408
_space_group_name_H-M_alt              'P 1'
_space_group_IT_number                 1

loop_
_space_group_symop_operation_xyz
   'x, y, z'

loop_
   _atom_site_label
   _atom_site_occupancy
   _atom_site_fract_x
   _atom_site_fract_y
   _atom_site_fract_z
   _atom_site_adp_type
   _atom_site_U_iso_or_equiv
   _atom_site_type_symbol
   Al1        1.0     0.106115     0.100023     0.314094    Uiso  ? Al
   Al2        1.0     0.213264     0.208660     0.058828    Uiso  ? Al
   Al3        1.0     0.786311     0.098870     0.817117    Uiso  ? Al
   Al4        1.0     0.895157     0.206753     0.563267    Uiso  ? Al
   Al5        1.0     0.560234     0.202326     0.049093    Uiso  ? Al
   Al6        1.0     0.101730     0.107118     0.810516    Uiso  ? Al
   Al7        1.0     0.211896     0.209121     0.567084    Uiso  ? Al
   Al8        1.0     0.784298     0.094691     0.310091    Uiso  ? Al
   Al9        1.0     0.099002     0.425683     0.312435    Uiso  ? Al
   Al10       1.0     0.225727     0.524383     0.060838    Uiso  ? Al
   Al11       1.0     0.785564     0.422289     0.812498    Uiso  ? Al
   Al12       1.0     0.890828     0.534111     0.564293    Uiso  ? Al
   Al13       1.0     0.105363     0.422848     0.813599    Uiso  ? Al
   Al14       1.0     0.211734     0.537200     0.568963    Uiso  ? Al
   Al15       1.0     0.785637     0.430603     0.311920    Uiso  ? Al
   Al16       1.0     0.887576     0.540473     0.062097    Uiso  ? Al
   Al17       1.0     0.446227     0.429594     0.814545    Uiso  ? Al
   Al18       1.0     0.227666     0.884527     0.059188    Uiso  ? Al
   Al19       1.0     0.778427     0.755576     0.812955    Uiso  ? Al
   Al20       1.0     0.887656     0.870376     0.563567    Uiso  ? Al
   Al21       1.0     0.448312     0.760339     0.396588    Uiso  ? Al
   Al22       1.0     0.564320     0.867235     0.047977    Uiso  ? Al
   Al23       1.0     0.215452     0.882927     0.572938    Uiso  ? Al
   Al24       1.0     0.872546     0.878843     0.060869    Uiso  ? Al
   Al25       1.0     0.450452     0.757550     0.864449    Uiso  ? Al
   Al26       1.0     0.554207     0.870981     0.590715    Uiso  ? Al
   Hf1        1.0     0.442710     0.088587     0.310575    Uiso  ? Hf
   Hf2        1.0     0.559644     0.198971     0.592991    Uiso  ? Hf
   Hf3        1.0     0.450622     0.428420     0.321101    Uiso  ? Hf
   Hf4        1.0     0.107112     0.766534     0.309292    Uiso  ? Hf
   Hf5        1.0     0.109712     0.760942     0.825980    Uiso  ? Hf
   Mg1        1.0     0.892198     0.207422     0.068784    Uiso  ? Mg
   Mg2        1.0     0.432410     0.096290     0.827254    Uiso  ? Mg
   Mg3        1.0     0.566829     0.534856     0.065461    Uiso  ? Mg
   Mg4        1.0     0.562643     0.539512     0.600438    Uiso  ? Mg
   Mg5        1.0     0.775354     0.752917     0.311997    Uiso  ? Mg
   N1         1.0     0.207584     0.212983     0.375455    Uiso  ? N
   N2         1.0     0.128256     0.087386     0.129703    Uiso  ? N
   N3         1.0     0.890734     0.205638     0.864302    Uiso  ? N
   N4         1.0     0.803321     0.081278     0.626414    Uiso  ? N
   N5         1.0     0.573711     0.194187     0.380240    Uiso  ? N
   N6         1.0     0.445466     0.094462     0.097813    Uiso  ? N
   N7         1.0     0.199298     0.216646     0.874026    Uiso  ? N
   N8         1.0     0.108486     0.097841     0.620159    Uiso  ? N
   N9         1.0     0.888602     0.205166     0.369667    Uiso  ? N
   N10        1.0     0.766674     0.089348     0.123074    Uiso  ? N
   N11        1.0     0.566055     0.211325     0.854058    Uiso  ? N
   N12        1.0     0.428446     0.092384     0.613056    Uiso  ? N
   N13        1.0     0.211509     0.532947     0.376868    Uiso  ? N
   N14        1.0     0.111297     0.428013     0.122989    Uiso  ? N
   N15        1.0     0.891365     0.539621     0.869816    Uiso  ? N
   N16        1.0     0.800199     0.415584     0.624978    Uiso  ? N
   N17        1.0     0.567129     0.543673     0.367644    Uiso  ? N
   N18        1.0     0.439774     0.415284     0.115968    Uiso  ? N
   N19        1.0     0.230587     0.519052     0.872452    Uiso  ? N
   N20        1.0     0.108749     0.427865     0.624155    Uiso  ? N
   N21        1.0     0.897655     0.526110     0.378828    Uiso  ? N
   N22        1.0     0.791128     0.434481     0.128369    Uiso  ? N
   N23        1.0     0.558799     0.534966     0.844855    Uiso  ? N
   N24        1.0     0.422186     0.436832     0.620767    Uiso  ? N
   N25        1.0     0.221666     0.882366     0.376963    Uiso  ? N
   N26        1.0     0.111353     0.761558     0.096685    Uiso  ? N
   N27        1.0     0.872280     0.882477     0.871170    Uiso  ? N
   N28        1.0     0.781722     0.759523     0.621105    Uiso  ? N
   N29        1.0     0.552868     0.870084     0.380951    Uiso  ? N
   N30        1.0     0.441681     0.772465     0.063623    Uiso  ? N
   N31        1.0     0.220322     0.888459     0.863014    Uiso  ? N
   N32        1.0     0.108619     0.759855     0.614234    Uiso  ? N
   N33        1.0     0.882536     0.886046     0.375403    Uiso  ? N
   N34        1.0     0.777947     0.761304     0.105868    Uiso  ? N
   N35        1.0     0.566934     0.860093     0.853260    Uiso  ? N
   N36        1.0     0.431675     0.775426     0.591645    Uiso  ? N
