
#======================================================================
# CRYSTAL DATA
#----------------------------------------------------------------------
data_VESTA_phase_1

_chemical_name_common                  'Al   Hf   Mg   N                      '
_cell_length_a                         9.823968
_cell_length_b                         9.787035
_cell_length_c                         10.090719
_cell_angle_alpha                      90.106712
_cell_angle_beta                       89.984993
_cell_angle_gamma                      60.121326
_cell_volume                           841.238858
_space_group_name_H-M_alt              'P 1'
_space_group_IT_number                 1

loop_
_space_group_symop_operation_xyz
   'x, y, z'

loop_
   _atom_site_label
   _atom_site_occupancy
   _atom_site_fract_x
   _atom_site_fract_y
   _atom_site_fract_z
   _atom_site_adp_type
   _atom_site_U_iso_or_equiv
   _atom_site_type_symbol
   Al1        1.0     0.103528     0.099006     0.318270    Uiso  ? Al
   Al2        1.0     0.212111     0.211386     0.071249    Uiso  ? Al
   Al3        1.0     0.786675     0.099358     0.825840    Uiso  ? Al
   Al4        1.0     0.896354     0.206063     0.570842    Uiso  ? Al
   Al5        1.0     0.559605     0.204374     0.063921    Uiso  ? Al
   Al6        1.0     0.103394     0.108733     0.820441    Uiso  ? Al
   Al7        1.0     0.209639     0.208973     0.570774    Uiso  ? Al
   Al8        1.0     0.785050     0.096211     0.319455    Uiso  ? Al
   Al9        1.0     0.096608     0.427179     0.320160    Uiso  ? Al
   Al10       1.0     0.227120     0.522250     0.068476    Uiso  ? Al
   Al11       1.0     0.784787     0.423385     0.819854    Uiso  ? Al
   Al12       1.0     0.892367     0.533268     0.572964    Uiso  ? Al
   Al13       1.0     0.107931     0.421076     0.821854    Uiso  ? Al
   Al14       1.0     0.212723     0.536868     0.579103    Uiso  ? Al
   Al15       1.0     0.785466     0.430833     0.319750    Uiso  ? Al
   Al16       1.0     0.886684     0.542197     0.070082    Uiso  ? Al
   Al17       1.0     0.447533     0.430958     0.822580    Uiso  ? Al
   Al18       1.0     0.228058     0.881980     0.085731    Uiso  ? Al
   Al19       1.0     0.778930     0.754987     0.820340    Uiso  ? Al
   Al20       1.0     0.890448     0.870392     0.573515    Uiso  ? Al
   Al21       1.0     0.443548     0.764130     0.394354    Uiso  ? Al
   Al22       1.0     0.556620     0.863496     0.129429    Uiso  ? Al
   Al23       1.0     0.222798     0.877217     0.612898    Uiso  ? Al
   Al24       1.0     0.866300     0.881361     0.068236    Uiso  ? Al
   Al25       1.0     0.453998     0.760183     0.880270    Uiso  ? Al
   Al26       1.0     0.550860     0.868853     0.636916    Uiso  ? Al
   Hf1        1.0     0.438090     0.096051     0.339405    Uiso  ? Hf
   Hf2        1.0     0.560509     0.197983     0.604088    Uiso  ? Hf
   Hf3        1.0     0.450562     0.430467     0.331013    Uiso  ? Hf
   Hf4        1.0     0.104287     0.763239     0.315073    Uiso  ? Hf
   Hf5        1.0     0.109315     0.760364     0.842163    Uiso  ? Hf
   Mg1        1.0     0.890047     0.209574     0.075553    Uiso  ? Mg
   Mg2        1.0     0.440648     0.088510     0.869970    Uiso  ? Mg
   Mg3        1.0     0.567093     0.534025     0.073109    Uiso  ? Mg
   Mg4        1.0     0.563793     0.541171     0.600601    Uiso  ? Mg
   Mg5        1.0     0.780323     0.752338     0.329339    Uiso  ? Mg
   N1         1.0     0.197939     0.215835     0.379845    Uiso  ? N
   N2         1.0     0.123665     0.091621     0.132689    Uiso  ? N
   N3         1.0     0.891599     0.205792     0.871813    Uiso  ? N
   N4         1.0     0.804009     0.081717     0.635504    Uiso  ? N
   N5         1.0     0.578503     0.198690     0.391115    Uiso  ? N
   N6         1.0     0.442130     0.100848     0.112790    Uiso  ? N
   N7         1.0     0.203333     0.215390     0.884003    Uiso  ? N
   N8         1.0     0.109787     0.097893     0.628248    Uiso  ? N
   N9         1.0     0.888998     0.205599     0.377425    Uiso  ? N
   N10        1.0     0.766918     0.090199     0.132001    Uiso  ? N
   N11        1.0     0.565550     0.210913     0.862753    Uiso  ? N
   N12        1.0     0.434025     0.084807     0.580876    Uiso  ? N
   N13        1.0     0.211584     0.530402     0.386814    Uiso  ? N
   N14        1.0     0.109325     0.430987     0.131060    Uiso  ? N
   N15        1.0     0.892203     0.539860     0.877380    Uiso  ? N
   N16        1.0     0.800493     0.415451     0.632704    Uiso  ? N
   N17        1.0     0.567952     0.543869     0.374028    Uiso  ? N
   N18        1.0     0.439470     0.418105     0.124966    Uiso  ? N
   N19        1.0     0.232484     0.517174     0.880495    Uiso  ? N
   N20        1.0     0.111395     0.424891     0.632618    Uiso  ? N
   N21        1.0     0.897005     0.525627     0.387844    Uiso  ? N
   N22        1.0     0.790345     0.436096     0.135869    Uiso  ? N
   N23        1.0     0.559141     0.536958     0.854870    Uiso  ? N
   N24        1.0     0.424035     0.437128     0.629286    Uiso  ? N
   N25        1.0     0.223230     0.876715     0.357692    Uiso  ? N
   N26        1.0     0.110720     0.761769     0.098965    Uiso  ? N
   N27        1.0     0.868593     0.883807     0.879294    Uiso  ? N
   N28        1.0     0.784823     0.758093     0.623967    Uiso  ? N
   N29        1.0     0.542974     0.862610     0.320979    Uiso  ? N
   N30        1.0     0.440851     0.775108     0.067731    Uiso  ? N
   N31        1.0     0.227886     0.883410     0.850219    Uiso  ? N
   N32        1.0     0.110298     0.757967     0.627126    Uiso  ? N
   N33        1.0     0.881516     0.888483     0.385652    Uiso  ? N
   N34        1.0     0.779506     0.759791     0.116469    Uiso  ? N
   N35        1.0     0.561286     0.859421     0.823837    Uiso  ? N
   N36        1.0     0.434671     0.778382     0.581139    Uiso  ? N
