
#======================================================================
# CRYSTAL DATA
#----------------------------------------------------------------------
data_VESTA_phase_1

_chemical_name_common                  'Al   Hf   Mg   N                      '
_cell_length_a                         9.801600
_cell_length_b                         9.781267
_cell_length_c                         10.067335
_cell_angle_alpha                      90.142990
_cell_angle_beta                       89.975861
_cell_angle_gamma                      60.123241
_cell_volume                           836.899132
_space_group_name_H-M_alt              'P 1'
_space_group_IT_number                 1

loop_
_space_group_symop_operation_xyz
   'x, y, z'

loop_
   _atom_site_label
   _atom_site_occupancy
   _atom_site_fract_x
   _atom_site_fract_y
   _atom_site_fract_z
   _atom_site_adp_type
   _atom_site_U_iso_or_equiv
   _atom_site_type_symbol
   Al1        1.0     0.105096     0.101269     0.313194    Uiso  ? Al
   Al2        1.0     0.214162     0.208196     0.059546    Uiso  ? Al
   Al3        1.0     0.786212     0.098915     0.817633    Uiso  ? Al
   Al4        1.0     0.895938     0.206591     0.564178    Uiso  ? Al
   Al5        1.0     0.558583     0.201396     0.049064    Uiso  ? Al
   Al6        1.0     0.102987     0.106951     0.811630    Uiso  ? Al
   Al7        1.0     0.211949     0.209463     0.566997    Uiso  ? Al
   Al8        1.0     0.784147     0.095063     0.309999    Uiso  ? Al
   Al9        1.0     0.098623     0.425995     0.312169    Uiso  ? Al
   Al10       1.0     0.224862     0.524538     0.060646    Uiso  ? Al
   Al11       1.0     0.784772     0.423017     0.813210    Uiso  ? Al
   Al12       1.0     0.891159     0.533773     0.565287    Uiso  ? Al
   Al13       1.0     0.105624     0.423086     0.814046    Uiso  ? Al
   Al14       1.0     0.211596     0.538679     0.569980    Uiso  ? Al
   Al15       1.0     0.786208     0.429546     0.311299    Uiso  ? Al
   Al16       1.0     0.886855     0.541053     0.062203    Uiso  ? Al
   Al17       1.0     0.445838     0.430759     0.814947    Uiso  ? Al
   Al18       1.0     0.230545     0.884269     0.061567    Uiso  ? Al
   Al19       1.0     0.775370     0.757127     0.812751    Uiso  ? Al
   Al20       1.0     0.888741     0.870966     0.565049    Uiso  ? Al
   Al21       1.0     0.446819     0.759176     0.374225    Uiso  ? Al
   Al22       1.0     0.562322     0.863868     0.054628    Uiso  ? Al
   Al23       1.0     0.218727     0.882074     0.571888    Uiso  ? Al
   Al24       1.0     0.870643     0.878849     0.061001    Uiso  ? Al
   Al25       1.0     0.450861     0.758878     0.842636    Uiso  ? Al
   Al26       1.0     0.555950     0.869393     0.573399    Uiso  ? Al
   Hf1        1.0     0.442940     0.089008     0.313675    Uiso  ? Hf
   Hf2        1.0     0.559967     0.200113     0.594932    Uiso  ? Hf
   Hf3        1.0     0.449653     0.427634     0.320169    Uiso  ? Hf
   Hf4        1.0     0.106591     0.767073     0.308059    Uiso  ? Hf
   Hf5        1.0     0.109926     0.762489     0.828968    Uiso  ? Hf
   Mg1        1.0     0.891003     0.207862     0.068493    Uiso  ? Mg
   Mg2        1.0     0.434311     0.090857     0.823694    Uiso  ? Mg
   Mg3        1.0     0.564609     0.537895     0.065180    Uiso  ? Mg
   Mg4        1.0     0.563161     0.540028     0.592847    Uiso  ? Mg
   Mg5        1.0     0.778704     0.751296     0.313459    Uiso  ? Mg
   N1         1.0     0.206951     0.213430     0.374999    Uiso  ? N
   N2         1.0     0.125963     0.089071     0.128788    Uiso  ? N
   N3         1.0     0.891039     0.205436     0.863972    Uiso  ? N
   N4         1.0     0.803819     0.081798     0.626634    Uiso  ? N
   N5         1.0     0.574013     0.194620     0.381039    Uiso  ? N
   N6         1.0     0.444671     0.094984     0.102438    Uiso  ? N
   N7         1.0     0.201580     0.216066     0.873607    Uiso  ? N
   N8         1.0     0.109767     0.097204     0.620604    Uiso  ? N
   N9         1.0     0.888512     0.205134     0.369890    Uiso  ? N
   N10        1.0     0.765609     0.089510     0.122599    Uiso  ? N
   N11        1.0     0.564692     0.210914     0.852268    Uiso  ? N
   N12        1.0     0.430756     0.090216     0.607462    Uiso  ? N
   N13        1.0     0.210300     0.534118     0.376832    Uiso  ? N
   N14        1.0     0.110739     0.428081     0.122507    Uiso  ? N
   N15        1.0     0.890852     0.540439     0.869195    Uiso  ? N
   N16        1.0     0.799683     0.415762     0.625362    Uiso  ? N
   N17        1.0     0.567445     0.541344     0.368165    Uiso  ? N
   N18        1.0     0.439048     0.414662     0.114978    Uiso  ? N
   N19        1.0     0.229700     0.520321     0.871929    Uiso  ? N
   N20        1.0     0.109405     0.427910     0.624210    Uiso  ? N
   N21        1.0     0.897644     0.524911     0.379468    Uiso  ? N
   N22        1.0     0.790353     0.434633     0.127605    Uiso  ? N
   N23        1.0     0.557780     0.536394     0.848225    Uiso  ? N
   N24        1.0     0.422425     0.438307     0.620775    Uiso  ? N
   N25        1.0     0.221516     0.882875     0.376976    Uiso  ? N
   N26        1.0     0.109882     0.762012     0.095232    Uiso  ? N
   N27        1.0     0.871118     0.882613     0.870682    Uiso  ? N
   N28        1.0     0.779927     0.760985     0.619958    Uiso  ? N
   N29        1.0     0.554510     0.866670     0.380628    Uiso  ? N
   N30        1.0     0.440365     0.772803     0.091102    Uiso  ? N
   N31        1.0     0.224588     0.887637     0.866426    Uiso  ? N
   N32        1.0     0.109547     0.760785     0.616029    Uiso  ? N
   N33        1.0     0.882816     0.886570     0.376159    Uiso  ? N
   N34        1.0     0.778596     0.760433     0.108929    Uiso  ? N
   N35        1.0     0.566989     0.858529     0.864423    Uiso  ? N
   N36        1.0     0.433490     0.775963     0.600670    Uiso  ? N
