
#======================================================================
# CRYSTAL DATA
#----------------------------------------------------------------------
data_VESTA_phase_1

_chemical_name_common                  'Al   Hf   Mg   N '
_cell_length_a                         9.825443
_cell_length_b                         9.831805
_cell_length_c                         10.026918
_cell_angle_alpha                      89.951637
_cell_angle_beta                       90.016922
_cell_angle_gamma                      59.901436
_cell_volume                           838.013528
_space_group_name_H-M_alt              'P 1'
_space_group_IT_number                 1

loop_
_space_group_symop_operation_xyz
   'x, y, z'

loop_
   _atom_site_label
   _atom_site_occupancy
   _atom_site_fract_x
   _atom_site_fract_y
   _atom_site_fract_z
   _atom_site_adp_type
   _atom_site_U_iso_or_equiv
   _atom_site_type_symbol
   Al1        1.0     0.099640     0.103156     0.381991    Uiso  ? Al
   Al2        1.0     0.213000     0.210273     0.128309    Uiso  ? Al
   Al3        1.0     0.784624     0.096430     0.828568    Uiso  ? Al
   Al4        1.0     0.898004     0.209978     0.633915    Uiso  ? Al
   Al5        1.0     0.559463     0.196862     0.068125    Uiso  ? Al
   Al6        1.0     0.110371     0.103941     0.883689    Uiso  ? Al
   Al7        1.0     0.210856     0.209055     0.633441    Uiso  ? Al
   Al8        1.0     0.785866     0.091909     0.314868    Uiso  ? Al
   Al9        1.0     0.098212     0.425304     0.382420    Uiso  ? Al
   Al10       1.0     0.215736     0.531677     0.124697    Uiso  ? Al
   Al11       1.0     0.778871     0.431635     0.883865    Uiso  ? Al
   Al12       1.0     0.887538     0.540907     0.633580    Uiso  ? Al
   Al13       1.0     0.105460     0.423039     0.880908    Uiso  ? Al
   Al14       1.0     0.217859     0.533065     0.633795    Uiso  ? Al
   Al15       1.0     0.788149     0.422278     0.385536    Uiso  ? Al
   Al16       1.0     0.889086     0.534488     0.131835    Uiso  ? Al
   Al17       1.0     0.447679     0.432252     0.891786    Uiso  ? Al
   Al18       1.0     0.229995     0.881911     0.128309    Uiso  ? Al
   Al19       1.0     0.771707     0.753892     0.880810    Uiso  ? Al
   Al20       1.0     0.880184     0.876442     0.576245    Uiso  ? Al
   Al21       1.0     0.450833     0.760611     0.384578    Uiso  ? Al
   Al22       1.0     0.557318     0.865076     0.127161    Uiso  ? Al
   Al23       1.0     0.229757     0.882925     0.631390    Uiso  ? Al
   Al24       1.0     0.878197     0.875691     0.073723    Uiso  ? Al
   Al25       1.0     0.450477     0.760244     0.883737    Uiso  ? Al
   Al26       1.0     0.557290     0.863762     0.636818    Uiso  ? Al
   Hf1        1.0     0.442069     0.087516     0.357667    Uiso  ? Hf
   Hf2        1.0     0.551411     0.207470     0.616485    Uiso  ? Hf
   Hf3        1.0     0.452160     0.425284     0.354532    Uiso  ? Hf
   Hf4        1.0     0.118271     0.761205     0.378074    Uiso  ? Hf
   Hf5        1.0     0.116073     0.761791     0.866347    Uiso  ? Hf
   Mg1        1.0     0.892130     0.211584     0.122124    Uiso  ? Mg
   Mg2        1.0     0.433607     0.086547     0.881820    Uiso  ? Mg
   Mg3        1.0     0.563903     0.545908     0.119283    Uiso  ? Mg
   Mg4        1.0     0.557021     0.545634     0.630440    Uiso  ? Mg
   Mg5        1.0     0.779104     0.748223     0.376809    Uiso  ? Mg
   N1         1.0     0.200172     0.214557     0.321765    Uiso  ? N
   N2         1.0     0.125835     0.089499     0.069480    Uiso  ? N
   N3         1.0     0.893910     0.209749     0.830045    Uiso  ? N
   N4         1.0     0.795378     0.084278     0.634734    Uiso  ? N
   N5         1.0     0.583355     0.188123     0.388701    Uiso  ? N
   N6         1.0     0.442745     0.096514     0.106583    Uiso  ? N
   N7         1.0     0.205042     0.215898     0.819952    Uiso  ? N
   N8         1.0     0.110695     0.095203     0.573191    Uiso  ? N
   N9         1.0     0.887682     0.206269     0.335847    Uiso  ? N
   N10        1.0     0.767721     0.085262     0.124870    Uiso  ? N
   N11        1.0     0.561389     0.210944     0.856194    Uiso  ? N
   N12        1.0     0.430992     0.086578     0.578672    Uiso  ? N
   N13        1.0     0.207588     0.528659     0.315913    Uiso  ? N
   N14        1.0     0.109391     0.427211     0.070365    Uiso  ? N
   N15        1.0     0.891504     0.540633     0.823341    Uiso  ? N
   N16        1.0     0.794843     0.420962     0.576863    Uiso  ? N
   N17        1.0     0.567582     0.546337     0.335279    Uiso  ? N
   N18        1.0     0.437679     0.419713     0.091711    Uiso  ? N
   N19        1.0     0.231989     0.519333     0.826249    Uiso  ? N
   N20        1.0     0.109336     0.429131     0.573844    Uiso  ? N
   N21        1.0     0.895850     0.521954     0.320289    Uiso  ? N
   N22        1.0     0.788704     0.435529     0.065662    Uiso  ? N
   N23        1.0     0.551234     0.540341     0.840822    Uiso  ? N
   N24        1.0     0.421776     0.443912     0.566453    Uiso  ? N
   N25        1.0     0.230124     0.884129     0.321982    Uiso  ? N
   N26        1.0     0.115004     0.760207     0.085286    Uiso  ? N
   N27        1.0     0.873818     0.882206     0.875495    Uiso  ? N
   N28        1.0     0.775186     0.761417     0.588715    Uiso  ? N
   N29        1.0     0.554513     0.857333     0.315458    Uiso  ? N
   N30        1.0     0.436129     0.778316     0.069307    Uiso  ? N
   N31        1.0     0.230094     0.885647     0.821146    Uiso  ? N
   N32        1.0     0.113002     0.760438     0.598142    Uiso  ? N
   N33        1.0     0.884578     0.886852     0.379140    Uiso  ? N
   N34        1.0     0.776704     0.755564     0.077449    Uiso  ? N
   N35        1.0     0.562360     0.856834     0.824497    Uiso  ? N
   N36        1.0     0.436577     0.777615     0.570881    Uiso  ? N
