
#======================================================================
# CRYSTAL DATA
#----------------------------------------------------------------------
data_VESTA_phase_1

_chemical_name_common                  'Al   Hf   Mg   N                      '
_cell_length_a                         9.823170
_cell_length_b                         9.830950
_cell_length_c                         10.011974
_cell_angle_alpha                      90.080238
_cell_angle_beta                       89.852707
_cell_angle_gamma                      59.868668
_cell_volume                           836.214478
_space_group_name_H-M_alt              'P 1'
_space_group_IT_number                 1

loop_
_space_group_symop_operation_xyz
   'x, y, z'

loop_
   _atom_site_label
   _atom_site_occupancy
   _atom_site_fract_x
   _atom_site_fract_y
   _atom_site_fract_z
   _atom_site_adp_type
   _atom_site_U_iso_or_equiv
   _atom_site_type_symbol
   Al1        1.0     0.099989     0.102712     0.389767    Uiso  ? Al
   Al2        1.0     0.213706     0.210238     0.136182    Uiso  ? Al
   Al3        1.0     0.783292     0.098981     0.843534    Uiso  ? Al
   Al4        1.0     0.898125     0.209550     0.642339    Uiso  ? Al
   Al5        1.0     0.558039     0.198214     0.072987    Uiso  ? Al
   Al6        1.0     0.111521     0.103077     0.891401    Uiso  ? Al
   Al7        1.0     0.211850     0.208511     0.640951    Uiso  ? Al
   Al8        1.0     0.782842     0.097546     0.315757    Uiso  ? Al
   Al9        1.0     0.097794     0.425871     0.390752    Uiso  ? Al
   Al10       1.0     0.216126     0.531140     0.133760    Uiso  ? Al
   Al11       1.0     0.778784     0.432931     0.891604    Uiso  ? Al
   Al12       1.0     0.887996     0.539779     0.641155    Uiso  ? Al
   Al13       1.0     0.105205     0.423363     0.888708    Uiso  ? Al
   Al14       1.0     0.217582     0.533790     0.641796    Uiso  ? Al
   Al15       1.0     0.788049     0.422606     0.392941    Uiso  ? Al
   Al16       1.0     0.888957     0.535724     0.140267    Uiso  ? Al
   Al17       1.0     0.446668     0.433239     0.898555    Uiso  ? Al
   Al18       1.0     0.230333     0.882141     0.138092    Uiso  ? Al
   Al19       1.0     0.773730     0.754528     0.890903    Uiso  ? Al
   Al20       1.0     0.883784     0.867105     0.645565    Uiso  ? Al
   Al21       1.0     0.449685     0.760457     0.392655    Uiso  ? Al
   Al22       1.0     0.557773     0.864854     0.134389    Uiso  ? Al
   Al23       1.0     0.228620     0.882456     0.639325    Uiso  ? Al
   Al24       1.0     0.881470     0.869444     0.132676    Uiso  ? Al
   Al25       1.0     0.450533     0.760109     0.891327    Uiso  ? Al
   Al26       1.0     0.557279     0.863525     0.644524    Uiso  ? Al
   Hf1        1.0     0.442698     0.087289     0.364828    Uiso  ? Hf
   Hf2        1.0     0.554177     0.206077     0.623559    Uiso  ? Hf
   Hf3        1.0     0.450568     0.427081     0.363724    Uiso  ? Hf
   Hf4        1.0     0.107945     0.765893     0.387362    Uiso  ? Hf
   Hf5        1.0     0.115716     0.761793     0.882720    Uiso  ? Hf
   Mg1        1.0     0.893093     0.213285     0.126005    Uiso  ? Mg
   Mg2        1.0     0.433694     0.085994     0.888599    Uiso  ? Mg
   Mg3        1.0     0.563342     0.545821     0.127107    Uiso  ? Mg
   Mg4        1.0     0.557285     0.545407     0.638300    Uiso  ? Mg
   Mg5        1.0     0.779218     0.751357     0.388160    Uiso  ? Mg
   N1         1.0     0.200476     0.214578     0.329915    Uiso  ? N
   N2         1.0     0.127463     0.088910     0.077503    Uiso  ? N
   N3         1.0     0.894621     0.209759     0.839171    Uiso  ? N
   N4         1.0     0.796068     0.086463     0.639500    Uiso  ? N
   N5         1.0     0.583864     0.188539     0.393339    Uiso  ? N
   N6         1.0     0.443475     0.096327     0.114316    Uiso  ? N
   N7         1.0     0.205408     0.215729     0.827793    Uiso  ? N
   N8         1.0     0.111122     0.095074     0.581125    Uiso  ? N
   N9         1.0     0.888622     0.205867     0.341568    Uiso  ? N
   N10        1.0     0.768346     0.090490     0.117960    Uiso  ? N
   N11        1.0     0.559198     0.211653     0.862133    Uiso  ? N
   N12        1.0     0.432519     0.085700     0.586117    Uiso  ? N
   N13        1.0     0.206063     0.531731     0.325308    Uiso  ? N
   N14        1.0     0.109599     0.427264     0.078763    Uiso  ? N
   N15        1.0     0.891499     0.540652     0.831123    Uiso  ? N
   N16        1.0     0.795271     0.420397     0.584569    Uiso  ? N
   N17        1.0     0.567805     0.545796     0.343325    Uiso  ? N
   N18        1.0     0.436641     0.420707     0.098733    Uiso  ? N
   N19        1.0     0.230899     0.521335     0.834401    Uiso  ? N
   N20        1.0     0.109975     0.428619     0.582154    Uiso  ? N
   N21        1.0     0.895213     0.523529     0.329037    Uiso  ? N
   N22        1.0     0.788186     0.438035     0.073622    Uiso  ? N
   N23        1.0     0.551695     0.539991     0.848691    Uiso  ? N
   N24        1.0     0.422392     0.443418     0.575469    Uiso  ? N
   N25        1.0     0.228626     0.882018     0.331422    Uiso  ? N
   N26        1.0     0.114389     0.760026     0.094369    Uiso  ? N
   N27        1.0     0.877237     0.873774     0.845307    Uiso  ? N
   N28        1.0     0.777052     0.761816     0.595105    Uiso  ? N
   N29        1.0     0.554262     0.856633     0.323310    Uiso  ? N
   N30        1.0     0.436195     0.778176     0.077454    Uiso  ? N
   N31        1.0     0.229705     0.884364     0.829215    Uiso  ? N
   N32        1.0     0.109044     0.761759     0.603624    Uiso  ? N
   N33        1.0     0.883915     0.879237     0.328322    Uiso  ? N
   N34        1.0     0.778614     0.757907     0.083382    Uiso  ? N
   N35        1.0     0.563782     0.855716     0.832743    Uiso  ? N
   N36        1.0     0.436443     0.777310     0.579360    Uiso  ? N
