
#======================================================================
# CRYSTAL DATA
#----------------------------------------------------------------------
data_VESTA_phase_1

_chemical_name_common                  'Al   Hf   Mg   N                      '
_cell_length_a                         9.781920
_cell_length_b                         9.766858
_cell_length_c                         10.067893
_cell_angle_alpha                      90.105721
_cell_angle_beta                       89.981171
_cell_angle_gamma                      60.129826
_cell_volume                           834.091513
_space_group_name_H-M_alt              'P 1'
_space_group_IT_number                 1

loop_
_space_group_symop_operation_xyz
   'x, y, z'

loop_
   _atom_site_label
   _atom_site_occupancy
   _atom_site_fract_x
   _atom_site_fract_y
   _atom_site_fract_z
   _atom_site_adp_type
   _atom_site_U_iso_or_equiv
   _atom_site_type_symbol
   Al1        1.0     0.105641     0.100766     0.313817    Uiso  ? Al
   Al2        1.0     0.213822     0.208574     0.059742    Uiso  ? Al
   Al3        1.0     0.786310     0.098693     0.817743    Uiso  ? Al
   Al4        1.0     0.896256     0.206054     0.564715    Uiso  ? Al
   Al5        1.0     0.558546     0.201682     0.049150    Uiso  ? Al
   Al6        1.0     0.104142     0.105695     0.812391    Uiso  ? Al
   Al7        1.0     0.212042     0.209217     0.567493    Uiso  ? Al
   Al8        1.0     0.784231     0.094984     0.310171    Uiso  ? Al
   Al9        1.0     0.098636     0.426149     0.312396    Uiso  ? Al
   Al10       1.0     0.224723     0.524628     0.060818    Uiso  ? Al
   Al11       1.0     0.783340     0.423669     0.813183    Uiso  ? Al
   Al12       1.0     0.890707     0.533976     0.565693    Uiso  ? Al
   Al13       1.0     0.105429     0.423237     0.814106    Uiso  ? Al
   Al14       1.0     0.211738     0.538785     0.570232    Uiso  ? Al
   Al15       1.0     0.785770     0.429718     0.311569    Uiso  ? Al
   Al16       1.0     0.886783     0.540915     0.062410    Uiso  ? Al
   Al17       1.0     0.446389     0.431649     0.814701    Uiso  ? Al
   Al18       1.0     0.233054     0.883125     0.063234    Uiso  ? Al
   Al19       1.0     0.773837     0.757273     0.814125    Uiso  ? Al
   Al20       1.0     0.888721     0.870696     0.565843    Uiso  ? Al
   Al21       1.0     0.448399     0.760735     0.322876    Uiso  ? Al
   Al22       1.0     0.561087     0.862449     0.056617    Uiso  ? Al
   Al23       1.0     0.224271     0.879473     0.569542    Uiso  ? Al
   Al24       1.0     0.870519     0.878693     0.061418    Uiso  ? Al
   Al25       1.0     0.450514     0.760244     0.813498    Uiso  ? Al
   Al26       1.0     0.553377     0.867233     0.570947    Uiso  ? Al
   Hf1        1.0     0.443161     0.088814     0.314357    Uiso  ? Hf
   Hf2        1.0     0.559825     0.199907     0.595410    Uiso  ? Hf
   Hf3        1.0     0.449971     0.427751     0.320318    Uiso  ? Hf
   Hf4        1.0     0.106909     0.767260     0.309106    Uiso  ? Hf
   Hf5        1.0     0.110893     0.762884     0.829630    Uiso  ? Hf
   Mg1        1.0     0.890780     0.208091     0.068592    Uiso  ? Mg
   Mg2        1.0     0.434995     0.089551     0.824919    Uiso  ? Mg
   Mg3        1.0     0.563100     0.540963     0.062558    Uiso  ? Mg
   Mg4        1.0     0.561874     0.543117     0.584256    Uiso  ? Mg
   Mg5        1.0     0.778427     0.751775     0.314764    Uiso  ? Mg
   N1         1.0     0.207131     0.213558     0.375330    Uiso  ? N
   N2         1.0     0.126091     0.088871     0.129141    Uiso  ? N
   N3         1.0     0.891373     0.205142     0.864007    Uiso  ? N
   N4         1.0     0.803824     0.081531     0.626955    Uiso  ? N
   N5         1.0     0.574133     0.194542     0.381409    Uiso  ? N
   N6         1.0     0.444506     0.094694     0.102656    Uiso  ? N
   N7         1.0     0.201732     0.216086     0.873843    Uiso  ? N
   N8         1.0     0.110769     0.095495     0.620853    Uiso  ? N
   N9         1.0     0.888639     0.205037     0.370167    Uiso  ? N
   N10        1.0     0.765674     0.089422     0.122898    Uiso  ? N
   N11        1.0     0.564574     0.211044     0.852339    Uiso  ? N
   N12        1.0     0.431076     0.089168     0.607558    Uiso  ? N
   N13        1.0     0.210285     0.534009     0.377005    Uiso  ? N
   N14        1.0     0.110536     0.428084     0.122706    Uiso  ? N
   N15        1.0     0.890640     0.540273     0.869513    Uiso  ? N
   N16        1.0     0.798360     0.416097     0.625209    Uiso  ? N
   N17        1.0     0.565635     0.544570     0.368232    Uiso  ? N
   N18        1.0     0.439088     0.415338     0.115140    Uiso  ? N
   N19        1.0     0.229498     0.520659     0.871960    Uiso  ? N
   N20        1.0     0.109321     0.427865     0.624372    Uiso  ? N
   N21        1.0     0.897483     0.525034     0.379781    Uiso  ? N
   N22        1.0     0.788898     0.435504     0.127723    Uiso  ? N
   N23        1.0     0.556214     0.539055     0.851418    Uiso  ? N
   N24        1.0     0.423151     0.438841     0.620411    Uiso  ? N
   N25        1.0     0.225716     0.880671     0.377260    Uiso  ? N
   N26        1.0     0.110539     0.761577     0.096098    Uiso  ? N
   N27        1.0     0.871086     0.882180     0.871124    Uiso  ? N
   N28        1.0     0.778338     0.761419     0.620794    Uiso  ? N
   N29        1.0     0.551665     0.865057     0.381855    Uiso  ? N
   N30        1.0     0.439439     0.774954     0.124929    Uiso  ? N
   N31        1.0     0.229053     0.885345     0.871658    Uiso  ? N
   N32        1.0     0.110373     0.760868     0.616407    Uiso  ? N
   N33        1.0     0.882663     0.886507     0.376783    Uiso  ? N
   N34        1.0     0.777935     0.760378     0.109885    Uiso  ? N
   N35        1.0     0.564589     0.855542     0.869576    Uiso  ? N
   N36        1.0     0.433306     0.777443     0.624191    Uiso  ? N
