
#======================================================================
# CRYSTAL DATA
#----------------------------------------------------------------------
data_VESTA_phase_1

_chemical_name_common                  'Al   Hf   Mg   N                      '
_cell_length_a                         9.867120
_cell_length_b                         9.863298
_cell_length_c                         9.949489
_cell_angle_alpha                      89.750717
_cell_angle_beta                       89.867271
_cell_angle_gamma                      59.927948
_cell_volume                           837.961518
_space_group_name_H-M_alt              'P 1'
_space_group_IT_number                 1

loop_
_space_group_symop_operation_xyz
   'x, y, z'

loop_
   _atom_site_label
   _atom_site_occupancy
   _atom_site_fract_x
   _atom_site_fract_y
   _atom_site_fract_z
   _atom_site_adp_type
   _atom_site_U_iso_or_equiv
   _atom_site_type_symbol
   Al1        1.0     0.107235     0.099912     0.376383    Uiso  ? Al
   Al2        1.0     0.214727     0.210498     0.128985    Uiso  ? Al
   Al3        1.0     0.788646     0.098095     0.824949    Uiso  ? Al
   Al4        1.0     0.887052     0.214044     0.570724    Uiso  ? Al
   Al5        1.0     0.560875     0.195038     0.069068    Uiso  ? Al
   Al6        1.0     0.111453     0.101602     0.886052    Uiso  ? Al
   Al7        1.0     0.207656     0.208941     0.634257    Uiso  ? Al
   Al8        1.0     0.785755     0.092483     0.317723    Uiso  ? Al
   Al9        1.0     0.097882     0.426206     0.384470    Uiso  ? Al
   Al10       1.0     0.216407     0.531692     0.125504    Uiso  ? Al
   Al11       1.0     0.782236     0.422260     0.845016    Uiso  ? Al
   Al12       1.0     0.887547     0.539910     0.639854    Uiso  ? Al
   Al13       1.0     0.107531     0.422269     0.881811    Uiso  ? Al
   Al14       1.0     0.217653     0.531957     0.634152    Uiso  ? Al
   Al15       1.0     0.785439     0.424980     0.301712    Uiso  ? Al
   Al16       1.0     0.894632     0.540248     0.126551    Uiso  ? Al
   Al17       1.0     0.445868     0.430137     0.891723    Uiso  ? Al
   Al18       1.0     0.231956     0.880533     0.129214    Uiso  ? Al
   Al19       1.0     0.771036     0.757078     0.879721    Uiso  ? Al
   Al20       1.0     0.880507     0.876703     0.580014    Uiso  ? Al
   Al21       1.0     0.452495     0.759054     0.384179    Uiso  ? Al
   Al22       1.0     0.558285     0.865181     0.128493    Uiso  ? Al
   Al23       1.0     0.229050     0.885054     0.630575    Uiso  ? Al
   Al24       1.0     0.878522     0.876777     0.073427    Uiso  ? Al
   Al25       1.0     0.448841     0.763397     0.884057    Uiso  ? Al
   Al26       1.0     0.556756     0.864007     0.636965    Uiso  ? Al
   Hf1        1.0     0.443070     0.088214     0.358329    Uiso  ? Hf
   Hf2        1.0     0.551095     0.207698     0.618512    Uiso  ? Hf
   Hf3        1.0     0.452294     0.426157     0.354168    Uiso  ? Hf
   Hf4        1.0     0.117385     0.761233     0.378514    Uiso  ? Hf
   Hf5        1.0     0.115416     0.762334     0.863590    Uiso  ? Hf
   Mg1        1.0     0.889696     0.201623     0.081055    Uiso  ? Mg
   Mg2        1.0     0.433243     0.086750     0.881200    Uiso  ? Mg
   Mg3        1.0     0.556200     0.547465     0.101423    Uiso  ? Mg
   Mg4        1.0     0.554101     0.546527     0.632429    Uiso  ? Mg
   Mg5        1.0     0.779136     0.748168     0.381124    Uiso  ? Mg
   N1         1.0     0.201561     0.216371     0.322644    Uiso  ? N
   N2         1.0     0.130399     0.087678     0.076062    Uiso  ? N
   N3         1.0     0.892610     0.201186     0.870057    Uiso  ? N
   N4         1.0     0.796735     0.087796     0.631596    Uiso  ? N
   N5         1.0     0.582759     0.189292     0.388830    Uiso  ? N
   N6         1.0     0.444270     0.095928     0.107389    Uiso  ? N
   N7         1.0     0.203681     0.215349     0.822050    Uiso  ? N
   N8         1.0     0.112117     0.094650     0.569599    Uiso  ? N
   N9         1.0     0.882954     0.209843     0.366422    Uiso  ? N
   N10        1.0     0.768208     0.084493     0.129491    Uiso  ? N
   N11        1.0     0.562659     0.209662     0.854671    Uiso  ? N
   N12        1.0     0.430230     0.087571     0.580700    Uiso  ? N
   N13        1.0     0.208337     0.528982     0.318315    Uiso  ? N
   N14        1.0     0.112501     0.426417     0.071195    Uiso  ? N
   N15        1.0     0.893589     0.542619     0.834339    Uiso  ? N
   N16        1.0     0.791999     0.417702     0.632400    Uiso  ? N
   N17        1.0     0.564157     0.548314     0.330924    Uiso  ? N
   N18        1.0     0.436888     0.416763     0.092455    Uiso  ? N
   N19        1.0     0.232083     0.519089     0.827348    Uiso  ? N
   N20        1.0     0.107434     0.429337     0.576844    Uiso  ? N
   N21        1.0     0.899638     0.527262     0.319854    Uiso  ? N
   N22        1.0     0.789120     0.431839     0.105317    Uiso  ? N
   N23        1.0     0.548895     0.541566     0.852479    Uiso  ? N
   N24        1.0     0.421580     0.443594     0.568720    Uiso  ? N
   N25        1.0     0.231236     0.882081     0.323234    Uiso  ? N
   N26        1.0     0.115072     0.760306     0.085632    Uiso  ? N
   N27        1.0     0.873712     0.883565     0.872892    Uiso  ? N
   N28        1.0     0.776271     0.761012     0.594069    Uiso  ? N
   N29        1.0     0.555440     0.857944     0.318476    Uiso  ? N
   N30        1.0     0.436190     0.781347     0.070310    Uiso  ? N
   N31        1.0     0.230467     0.885731     0.821859    Uiso  ? N
   N32        1.0     0.113001     0.760070     0.600901    Uiso  ? N
   N33        1.0     0.884600     0.887577     0.381651    Uiso  ? N
   N34        1.0     0.775929     0.759014     0.076975    Uiso  ? N
   N35        1.0     0.561877     0.857610     0.825384    Uiso  ? N
   N36        1.0     0.436587     0.777113     0.572185    Uiso  ? N
