
#======================================================================
# CRYSTAL DATA
#----------------------------------------------------------------------
data_VESTA_phase_1

_chemical_name_common                  'Al   Hf   Mg   N                      '
_cell_length_a                         9.859339
_cell_length_b                         9.826041
_cell_length_c                         10.042480
_cell_angle_alpha                      90.277412
_cell_angle_beta                       90.232399
_cell_angle_gamma                      59.987152
_cell_volume                           842.433935
_space_group_name_H-M_alt              'P 1'
_space_group_IT_number                 1

loop_
_space_group_symop_operation_xyz
   'x, y, z'

loop_
   _atom_site_label
   _atom_site_occupancy
   _atom_site_fract_x
   _atom_site_fract_y
   _atom_site_fract_z
   _atom_site_adp_type
   _atom_site_U_iso_or_equiv
   _atom_site_type_symbol
   Al1        1.0     0.105560     0.096859     0.383054    Uiso  ? Al
   Al2        1.0     0.219558     0.211640     0.079026    Uiso  ? Al
   Al3        1.0     0.787182     0.099452     0.826448    Uiso  ? Al
   Al4        1.0     0.889220     0.208833     0.574250    Uiso  ? Al
   Al5        1.0     0.560105     0.204917     0.063010    Uiso  ? Al
   Al6        1.0     0.108974     0.098335     0.888258    Uiso  ? Al
   Al7        1.0     0.214082     0.204082     0.618406    Uiso  ? Al
   Al8        1.0     0.782394     0.096776     0.319838    Uiso  ? Al
   Al9        1.0     0.096273     0.425455     0.315826    Uiso  ? Al
   Al10       1.0     0.226759     0.524709     0.067861    Uiso  ? Al
   Al11       1.0     0.784991     0.423003     0.820446    Uiso  ? Al
   Al12       1.0     0.892536     0.532428     0.571416    Uiso  ? Al
   Al13       1.0     0.105039     0.427285     0.822427    Uiso  ? Al
   Al14       1.0     0.210947     0.538112     0.577764    Uiso  ? Al
   Al15       1.0     0.784867     0.430909     0.318723    Uiso  ? Al
   Al16       1.0     0.885785     0.543087     0.068717    Uiso  ? Al
   Al17       1.0     0.446815     0.432582     0.821826    Uiso  ? Al
   Al18       1.0     0.236786     0.882684     0.127581    Uiso  ? Al
   Al19       1.0     0.778716     0.754554     0.819298    Uiso  ? Al
   Al20       1.0     0.890260     0.870218     0.574241    Uiso  ? Al
   Al21       1.0     0.443995     0.763490     0.389636    Uiso  ? Al
   Al22       1.0     0.558186     0.863185     0.127750    Uiso  ? Al
   Al23       1.0     0.225177     0.880097     0.633718    Uiso  ? Al
   Al24       1.0     0.866797     0.880709     0.068284    Uiso  ? Al
   Al25       1.0     0.450911     0.761694     0.881250    Uiso  ? Al
   Al26       1.0     0.550295     0.866911     0.635169    Uiso  ? Al
   Hf1        1.0     0.437265     0.095234     0.344340    Uiso  ? Hf
   Hf2        1.0     0.559183     0.198600     0.606874    Uiso  ? Hf
   Hf3        1.0     0.449666     0.429629     0.332068    Uiso  ? Hf
   Hf4        1.0     0.101652     0.762380     0.314897    Uiso  ? Hf
   Hf5        1.0     0.110047     0.762619     0.843787    Uiso  ? Hf
   Mg1        1.0     0.886006     0.210783     0.083708    Uiso  ? Mg
   Mg2        1.0     0.446713     0.084147     0.873314    Uiso  ? Mg
   Mg3        1.0     0.565768     0.534958     0.073722    Uiso  ? Mg
   Mg4        1.0     0.561305     0.543746     0.600352    Uiso  ? Mg
   Mg5        1.0     0.779979     0.751885     0.329953    Uiso  ? Mg
   N1         1.0     0.201427     0.212979     0.349997    Uiso  ? N
   N2         1.0     0.126375     0.088115     0.078329    Uiso  ? N
   N3         1.0     0.889889     0.206576     0.871266    Uiso  ? N
   N4         1.0     0.802525     0.081843     0.635834    Uiso  ? N
   N5         1.0     0.577250     0.199052     0.392722    Uiso  ? N
   N6         1.0     0.446052     0.098730     0.106592    Uiso  ? N
   N7         1.0     0.210114     0.213550     0.857499    Uiso  ? N
   N8         1.0     0.111761     0.090611     0.577946    Uiso  ? N
   N9         1.0     0.881835     0.208899     0.375725    Uiso  ? N
   N10        1.0     0.766141     0.089535     0.131704    Uiso  ? N
   N11        1.0     0.565570     0.211805     0.860230    Uiso  ? N
   N12        1.0     0.432687     0.084911     0.582659    Uiso  ? N
   N13        1.0     0.209816     0.530708     0.384333    Uiso  ? N
   N14        1.0     0.108625     0.433064     0.123989    Uiso  ? N
   N15        1.0     0.891137     0.540294     0.876355    Uiso  ? N
   N16        1.0     0.798987     0.417186     0.632585    Uiso  ? N
   N17        1.0     0.566583     0.543941     0.371437    Uiso  ? N
   N18        1.0     0.439216     0.417575     0.124464    Uiso  ? N
   N19        1.0     0.232036     0.520118     0.879013    Uiso  ? N
   N20        1.0     0.109057     0.428501     0.632074    Uiso  ? N
   N21        1.0     0.897733     0.524378     0.385846    Uiso  ? N
   N22        1.0     0.789372     0.438221     0.134360    Uiso  ? N
   N23        1.0     0.557840     0.538205     0.854032    Uiso  ? N
   N24        1.0     0.422909     0.437935     0.627192    Uiso  ? N
   N25        1.0     0.227457     0.878525     0.323687    Uiso  ? N
   N26        1.0     0.109995     0.760889     0.099861    Uiso  ? N
   N27        1.0     0.869026     0.883462     0.878153    Uiso  ? N
   N28        1.0     0.783654     0.758313     0.621986    Uiso  ? N
   N29        1.0     0.543788     0.861866     0.319693    Uiso  ? N
   N30        1.0     0.439532     0.775727     0.068134    Uiso  ? N
   N31        1.0     0.231084     0.883599     0.826258    Uiso  ? N
   N32        1.0     0.109665     0.758231     0.625244    Uiso  ? N
   N33        1.0     0.880766     0.889284     0.385414    Uiso  ? N
   N34        1.0     0.780164     0.759763     0.115630    Uiso  ? N
   N35        1.0     0.561762     0.856375     0.823150    Uiso  ? N
   N36        1.0     0.430403     0.781080     0.575186    Uiso  ? N
