
#======================================================================
# CRYSTAL DATA
#----------------------------------------------------------------------
data_VESTA_phase_1

_chemical_name_common                  'Al   Hf   Mg   N                      '
_cell_length_a                         9.867572
_cell_length_b                         9.864183
_cell_length_c                         9.930313
_cell_angle_alpha                      89.747841
_cell_angle_beta                       89.921982
_cell_angle_gamma                      59.943390
_cell_volume                           836.589821
_space_group_name_H-M_alt              'P 1'
_space_group_IT_number                 1

loop_
_space_group_symop_operation_xyz
   'x, y, z'

loop_
   _atom_site_label
   _atom_site_occupancy
   _atom_site_fract_x
   _atom_site_fract_y
   _atom_site_fract_z
   _atom_site_adp_type
   _atom_site_U_iso_or_equiv
   _atom_site_type_symbol
   Al1        1.0     0.108717     0.098442     0.375350    Uiso  ? Al
   Al2        1.0     0.215088     0.210614     0.128480    Uiso  ? Al
   Al3        1.0     0.788724     0.099786     0.825138    Uiso  ? Al
   Al4        1.0     0.888247     0.212652     0.569663    Uiso  ? Al
   Al5        1.0     0.560522     0.195161     0.068485    Uiso  ? Al
   Al6        1.0     0.110206     0.102752     0.885858    Uiso  ? Al
   Al7        1.0     0.207551     0.209056     0.633781    Uiso  ? Al
   Al8        1.0     0.785339     0.090865     0.316709    Uiso  ? Al
   Al9        1.0     0.098040     0.425898     0.384519    Uiso  ? Al
   Al10       1.0     0.216081     0.531664     0.124952    Uiso  ? Al
   Al11       1.0     0.780479     0.427722     0.886949    Uiso  ? Al
   Al12       1.0     0.885270     0.537428     0.638629    Uiso  ? Al
   Al13       1.0     0.106905     0.422241     0.880737    Uiso  ? Al
   Al14       1.0     0.217783     0.531903     0.633934    Uiso  ? Al
   Al15       1.0     0.784796     0.426755     0.328015    Uiso  ? Al
   Al16       1.0     0.893652     0.539984     0.126898    Uiso  ? Al
   Al17       1.0     0.446110     0.430651     0.891763    Uiso  ? Al
   Al18       1.0     0.232044     0.880370     0.128864    Uiso  ? Al
   Al19       1.0     0.771168     0.756864     0.877887    Uiso  ? Al
   Al20       1.0     0.880521     0.876447     0.580636    Uiso  ? Al
   Al21       1.0     0.452546     0.758937     0.384493    Uiso  ? Al
   Al22       1.0     0.558522     0.865196     0.127920    Uiso  ? Al
   Al23       1.0     0.229635     0.884459     0.630389    Uiso  ? Al
   Al24       1.0     0.878374     0.876414     0.072650    Uiso  ? Al
   Al25       1.0     0.448823     0.763261     0.884039    Uiso  ? Al
   Al26       1.0     0.556925     0.863734     0.636777    Uiso  ? Al
   Hf1        1.0     0.443410     0.087902     0.358188    Uiso  ? Hf
   Hf2        1.0     0.551243     0.207885     0.618795    Uiso  ? Hf
   Hf3        1.0     0.451618     0.426217     0.354641    Uiso  ? Hf
   Hf4        1.0     0.117079     0.761225     0.378236    Uiso  ? Hf
   Hf5        1.0     0.115346     0.762550     0.863070    Uiso  ? Hf
   Mg1        1.0     0.891493     0.199859     0.088343    Uiso  ? Mg
   Mg2        1.0     0.433135     0.086747     0.880725    Uiso  ? Mg
   Mg3        1.0     0.554683     0.548904     0.107635    Uiso  ? Mg
   Mg4        1.0     0.558982     0.544228     0.634851    Uiso  ? Mg
   Mg5        1.0     0.779407     0.747756     0.381576    Uiso  ? Mg
   N1         1.0     0.201880     0.216295     0.322545    Uiso  ? N
   N2         1.0     0.130576     0.087708     0.076208    Uiso  ? N
   N3         1.0     0.891254     0.204700     0.869115    Uiso  ? N
   N4         1.0     0.796960     0.088055     0.631197    Uiso  ? N
   N5         1.0     0.582738     0.189555     0.388400    Uiso  ? N
   N6         1.0     0.444214     0.095930     0.107260    Uiso  ? N
   N7         1.0     0.203826     0.215209     0.821905    Uiso  ? N
   N8         1.0     0.112701     0.093843     0.568939    Uiso  ? N
   N9         1.0     0.886232     0.204716     0.359835    Uiso  ? N
   N10        1.0     0.767618     0.083866     0.128424    Uiso  ? N
   N11        1.0     0.562500     0.210023     0.854590    Uiso  ? N
   N12        1.0     0.430411     0.087563     0.580650    Uiso  ? N
   N13        1.0     0.208003     0.528878     0.318256    Uiso  ? N
   N14        1.0     0.111867     0.426603     0.070676    Uiso  ? N
   N15        1.0     0.891343     0.540392     0.832680    Uiso  ? N
   N16        1.0     0.790532     0.423239     0.594498    Uiso  ? N
   N17        1.0     0.563330     0.548759     0.327404    Uiso  ? N
   N18        1.0     0.436766     0.416856     0.092617    Uiso  ? N
   N19        1.0     0.231840     0.519294     0.827487    Uiso  ? N
   N20        1.0     0.107651     0.429472     0.576904    Uiso  ? N
   N21        1.0     0.899913     0.526855     0.317009    Uiso  ? N
   N22        1.0     0.787886     0.434865     0.088479    Uiso  ? N
   N23        1.0     0.550404     0.541065     0.852221    Uiso  ? N
   N24        1.0     0.422011     0.443881     0.568935    Uiso  ? N
   N25        1.0     0.232145     0.880980     0.323154    Uiso  ? N
   N26        1.0     0.114897     0.760427     0.085709    Uiso  ? N
   N27        1.0     0.873745     0.883915     0.871968    Uiso  ? N
   N28        1.0     0.776529     0.760871     0.594896    Uiso  ? N
   N29        1.0     0.555845     0.857474     0.318502    Uiso  ? N
   N30        1.0     0.436069     0.781447     0.070397    Uiso  ? N
   N31        1.0     0.230067     0.886216     0.822019    Uiso  ? N
   N32        1.0     0.113104     0.760081     0.600915    Uiso  ? N
   N33        1.0     0.884386     0.886741     0.381582    Uiso  ? N
   N34        1.0     0.776115     0.758694     0.076163    Uiso  ? N
   N35        1.0     0.561510     0.857835     0.825512    Uiso  ? N
   N36        1.0     0.437132     0.776067     0.572564    Uiso  ? N
