
#======================================================================
# CRYSTAL DATA
#----------------------------------------------------------------------
data_VESTA_phase_1

_chemical_name_common                  'Al   Hf   Mg   N                      '
_cell_length_a                         9.862339
_cell_length_b                         9.805802
_cell_length_c                         10.150704
_cell_angle_alpha                      90.366798
_cell_angle_beta                       90.071602
_cell_angle_gamma                      59.909496
_cell_volume                           849.342922
_space_group_name_H-M_alt              'P 1'
_space_group_IT_number                 1

loop_
_space_group_symop_operation_xyz
   'x, y, z'

loop_
   _atom_site_label
   _atom_site_occupancy
   _atom_site_fract_x
   _atom_site_fract_y
   _atom_site_fract_z
   _atom_site_adp_type
   _atom_site_U_iso_or_equiv
   _atom_site_type_symbol
   Al1        1.0     0.105463     0.097523     0.381667    Uiso  ? Al
   Al2        1.0     0.212513     0.212328     0.132091    Uiso  ? Al
   Al3        1.0     0.788905     0.097028     0.823883    Uiso  ? Al
   Al4        1.0     0.887402     0.210186     0.571202    Uiso  ? Al
   Al5        1.0     0.562759     0.194476     0.075275    Uiso  ? Al
   Al6        1.0     0.113397     0.099234     0.886233    Uiso  ? Al
   Al7        1.0     0.207938     0.208817     0.638581    Uiso  ? Al
   Al8        1.0     0.783382     0.093962     0.319219    Uiso  ? Al
   Al9        1.0     0.097032     0.420339     0.389908    Uiso  ? Al
   Al10       1.0     0.224106     0.529308     0.070661    Uiso  ? Al
   Al11       1.0     0.788053     0.420344     0.820987    Uiso  ? Al
   Al12       1.0     0.880490     0.538754     0.574749    Uiso  ? Al
   Al13       1.0     0.111196     0.417593     0.881710    Uiso  ? Al
   Al14       1.0     0.210784     0.543919     0.569107    Uiso  ? Al
   Al15       1.0     0.788231     0.427494     0.313540    Uiso  ? Al
   Al16       1.0     0.883760     0.543583     0.066113    Uiso  ? Al
   Al17       1.0     0.459222     0.426234     0.890448    Uiso  ? Al
   Al18       1.0     0.237779     0.884343     0.124707    Uiso  ? Al
   Al19       1.0     0.777415     0.756535     0.817852    Uiso  ? Al
   Al20       1.0     0.886996     0.873067     0.571502    Uiso  ? Al
   Al21       1.0     0.447895     0.760157     0.386691    Uiso  ? Al
   Al22       1.0     0.557762     0.867793     0.130794    Uiso  ? Al
   Al23       1.0     0.226900     0.882720     0.630170    Uiso  ? Al
   Al24       1.0     0.871392     0.877434     0.064397    Uiso  ? Al
   Al25       1.0     0.453582     0.760091     0.884502    Uiso  ? Al
   Al26       1.0     0.548180     0.869588     0.636417    Uiso  ? Al
   Hf1        1.0     0.438642     0.089620     0.363301    Uiso  ? Hf
   Hf2        1.0     0.550938     0.208283     0.617152    Uiso  ? Hf
   Hf3        1.0     0.450155     0.426942     0.349183    Uiso  ? Hf
   Hf4        1.0     0.101224     0.767379     0.310152    Uiso  ? Hf
   Hf5        1.0     0.113760     0.759461     0.835090    Uiso  ? Hf
   Mg1        1.0     0.887629     0.207513     0.077889    Uiso  ? Mg
   Mg2        1.0     0.435468     0.086773     0.885855    Uiso  ? Mg
   Mg3        1.0     0.564720     0.545792     0.112037    Uiso  ? Mg
   Mg4        1.0     0.551799     0.547713     0.629797    Uiso  ? Mg
   Mg5        1.0     0.784175     0.749898     0.324911    Uiso  ? Mg
   N1         1.0     0.197028     0.215891     0.321394    Uiso  ? N
   N2         1.0     0.130463     0.089107     0.071957    Uiso  ? N
   N3         1.0     0.892394     0.203297     0.869751    Uiso  ? N
   N4         1.0     0.797601     0.085783     0.633761    Uiso  ? N
   N5         1.0     0.580794     0.189175     0.389931    Uiso  ? N
   N6         1.0     0.443449     0.097322     0.108473    Uiso  ? N
   N7         1.0     0.206864     0.211682     0.822281    Uiso  ? N
   N8         1.0     0.112932     0.093202     0.571147    Uiso  ? N
   N9         1.0     0.881342     0.208536     0.374813    Uiso  ? N
   N10        1.0     0.771118     0.084925     0.132105    Uiso  ? N
   N11        1.0     0.565518     0.207625     0.857034    Uiso  ? N
   N12        1.0     0.428316     0.088577     0.579213    Uiso  ? N
   N13        1.0     0.202741     0.536841     0.367658    Uiso  ? N
   N14        1.0     0.111829     0.424155     0.076192    Uiso  ? N
   N15        1.0     0.887936     0.541986     0.872039    Uiso  ? N
   N16        1.0     0.794314     0.417703     0.634209    Uiso  ? N
   N17        1.0     0.562785     0.548305     0.336785    Uiso  ? N
   N18        1.0     0.443159     0.416350     0.105268    Uiso  ? N
   N19        1.0     0.237969     0.520305     0.875711    Uiso  ? N
   N20        1.0     0.112068     0.423249     0.583610    Uiso  ? N
   N21        1.0     0.884556     0.528550     0.389102    Uiso  ? N
   N22        1.0     0.797324     0.432161     0.131560    Uiso  ? N
   N23        1.0     0.558130     0.537960     0.848729    Uiso  ? N
   N24        1.0     0.426882     0.441648     0.571459    Uiso  ? N
   N25        1.0     0.230117     0.881892     0.319766    Uiso  ? N
   N26        1.0     0.110610     0.762232     0.098480    Uiso  ? N
   N27        1.0     0.872436     0.881010     0.876247    Uiso  ? N
   N28        1.0     0.781237     0.761954     0.623845    Uiso  ? N
   N29        1.0     0.547974     0.860721     0.319818    Uiso  ? N
   N30        1.0     0.441596     0.778102     0.067857    Uiso  ? N
   N31        1.0     0.234016     0.882148     0.822537    Uiso  ? N
   N32        1.0     0.109315     0.760732     0.621010    Uiso  ? N
   N33        1.0     0.882317     0.887174     0.385491    Uiso  ? N
   N34        1.0     0.781296     0.759756     0.114224    Uiso  ? N
   N35        1.0     0.558838     0.859595     0.822246    Uiso  ? N
   N36        1.0     0.433847     0.778161     0.570723    Uiso  ? N
