
#======================================================================
# CRYSTAL DATA
#----------------------------------------------------------------------
data_VESTA_phase_1

_chemical_name_common                  'Al   Hf   Mg   N                      '
_cell_length_a                         9.863625
_cell_length_b                         9.860888
_cell_length_c                         9.936878
_cell_angle_alpha                      89.766396
_cell_angle_beta                       89.937561
_cell_angle_gamma                      59.948673
_cell_volume                           836.574181
_space_group_name_H-M_alt              'P 1'
_space_group_IT_number                 1

loop_
_space_group_symop_operation_xyz
   'x, y, z'

loop_
   _atom_site_label
   _atom_site_occupancy
   _atom_site_fract_x
   _atom_site_fract_y
   _atom_site_fract_z
   _atom_site_adp_type
   _atom_site_U_iso_or_equiv
   _atom_site_type_symbol
   Al1        1.0     0.108801     0.098282     0.375248    Uiso  ? Al
   Al2        1.0     0.214714     0.210818     0.128251    Uiso  ? Al
   Al3        1.0     0.788518     0.099807     0.825417    Uiso  ? Al
   Al4        1.0     0.889835     0.209656     0.570712    Uiso  ? Al
   Al5        1.0     0.560514     0.195345     0.068343    Uiso  ? Al
   Al6        1.0     0.109768     0.103090     0.885698    Uiso  ? Al
   Al7        1.0     0.208193     0.208841     0.633887    Uiso  ? Al
   Al8        1.0     0.785466     0.090837     0.316386    Uiso  ? Al
   Al9        1.0     0.098426     0.425887     0.384086    Uiso  ? Al
   Al10       1.0     0.215749     0.531755     0.124592    Uiso  ? Al
   Al11       1.0     0.780101     0.428705     0.890860    Uiso  ? Al
   Al12       1.0     0.885526     0.537969     0.636550    Uiso  ? Al
   Al13       1.0     0.106050     0.422330     0.880606    Uiso  ? Al
   Al14       1.0     0.217880     0.531918     0.634074    Uiso  ? Al
   Al15       1.0     0.784257     0.429178     0.356916    Uiso  ? Al
   Al16       1.0     0.891739     0.538322     0.128930    Uiso  ? Al
   Al17       1.0     0.446523     0.430934     0.891687    Uiso  ? Al
   Al18       1.0     0.231960     0.880266     0.128544    Uiso  ? Al
   Al19       1.0     0.771323     0.755941     0.877870    Uiso  ? Al
   Al20       1.0     0.880560     0.876331     0.580428    Uiso  ? Al
   Al21       1.0     0.452037     0.759414     0.384483    Uiso  ? Al
   Al22       1.0     0.558660     0.864845     0.127612    Uiso  ? Al
   Al23       1.0     0.229945     0.884128     0.630719    Uiso  ? Al
   Al24       1.0     0.878333     0.876222     0.072507    Uiso  ? Al
   Al25       1.0     0.449331     0.762436     0.883956    Uiso  ? Al
   Al26       1.0     0.556808     0.863938     0.636832    Uiso  ? Al
   Hf1        1.0     0.443485     0.087874     0.357795    Uiso  ? Hf
   Hf2        1.0     0.550910     0.207845     0.618729    Uiso  ? Hf
   Hf3        1.0     0.451580     0.426050     0.354131    Uiso  ? Hf
   Hf4        1.0     0.117171     0.761227     0.378188    Uiso  ? Hf
   Hf5        1.0     0.115369     0.762544     0.863272    Uiso  ? Hf
   Mg1        1.0     0.890646     0.202509     0.091082    Uiso  ? Mg
   Mg2        1.0     0.433148     0.086663     0.880922    Uiso  ? Mg
   Mg3        1.0     0.557402     0.547986     0.111062    Uiso  ? Mg
   Mg4        1.0     0.558986     0.544226     0.634118    Uiso  ? Mg
   Mg5        1.0     0.779469     0.748572     0.380725    Uiso  ? Mg
   N1         1.0     0.201941     0.216207     0.322363    Uiso  ? N
   N2         1.0     0.130051     0.087816     0.075866    Uiso  ? N
   N3         1.0     0.891030     0.205941     0.865680    Uiso  ? N
   N4         1.0     0.796665     0.087963     0.631399    Uiso  ? N
   N5         1.0     0.582906     0.189423     0.388439    Uiso  ? N
   N6         1.0     0.444145     0.095959     0.107226    Uiso  ? N
   N7         1.0     0.203966     0.215175     0.821817    Uiso  ? N
   N8         1.0     0.113273     0.093647     0.569236    Uiso  ? N
   N9         1.0     0.887047     0.203147     0.360133    Uiso  ? N
   N10        1.0     0.767786     0.083955     0.128034    Uiso  ? N
   N11        1.0     0.562386     0.210072     0.854592    Uiso  ? N
   N12        1.0     0.430397     0.087459     0.580402    Uiso  ? N
   N13        1.0     0.207924     0.528968     0.317922    Uiso  ? N
   N14        1.0     0.110922     0.427005     0.070648    Uiso  ? N
   N15        1.0     0.890560     0.539433     0.829231    Uiso  ? N
   N16        1.0     0.790336     0.425516     0.576688    Uiso  ? N
   N17        1.0     0.563548     0.548710     0.328772    Uiso  ? N
   N18        1.0     0.436899     0.417295     0.092594    Uiso  ? N
   N19        1.0     0.231664     0.519295     0.827519    Uiso  ? N
   N20        1.0     0.107915     0.429235     0.576553    Uiso  ? N
   N21        1.0     0.899213     0.526371     0.318144    Uiso  ? N
   N22        1.0     0.787537     0.436251     0.081356    Uiso  ? N
   N23        1.0     0.551121     0.540539     0.849247    Uiso  ? N
   N24        1.0     0.422066     0.443696     0.568661    Uiso  ? N
   N25        1.0     0.232195     0.881006     0.322925    Uiso  ? N
   N26        1.0     0.114828     0.760485     0.085598    Uiso  ? N
   N27        1.0     0.873690     0.883654     0.871846    Uiso  ? N
   N28        1.0     0.776188     0.761113     0.594156    Uiso  ? N
   N29        1.0     0.555763     0.857441     0.318190    Uiso  ? N
   N30        1.0     0.436263     0.780615     0.070282    Uiso  ? N
   N31        1.0     0.230148     0.886145     0.822085    Uiso  ? N
   N32        1.0     0.113118     0.760105     0.600760    Uiso  ? N
   N33        1.0     0.884466     0.886724     0.381503    Uiso  ? N
   N34        1.0     0.776511     0.757981     0.076171    Uiso  ? N
   N35        1.0     0.561558     0.857738     0.825453    Uiso  ? N
   N36        1.0     0.437258     0.776122     0.572484    Uiso  ? N
