
#======================================================================
# CRYSTAL DATA
#----------------------------------------------------------------------
data_VESTA_phase_1

_chemical_name_common                  'Al   Hf   Mg   N                      '
_cell_length_a                         9.852988
_cell_length_b                         9.796788
_cell_length_c                         10.155817
_cell_angle_alpha                      90.257050
_cell_angle_beta                       90.112862
_cell_angle_gamma                      59.949615
_cell_volume                           848.539517
_space_group_name_H-M_alt              'P 1'
_space_group_IT_number                 1

loop_
_space_group_symop_operation_xyz
   'x, y, z'

loop_
   _atom_site_label
   _atom_site_occupancy
   _atom_site_fract_x
   _atom_site_fract_y
   _atom_site_fract_z
   _atom_site_adp_type
   _atom_site_U_iso_or_equiv
   _atom_site_type_symbol
   Al1        1.0     0.105453     0.097604     0.381588    Uiso  ? Al
   Al2        1.0     0.212519     0.213382     0.131530    Uiso  ? Al
   Al3        1.0     0.787682     0.098680     0.825309    Uiso  ? Al
   Al4        1.0     0.888899     0.209260     0.571388    Uiso  ? Al
   Al5        1.0     0.560065     0.202016     0.066522    Uiso  ? Al
   Al6        1.0     0.112818     0.100431     0.887052    Uiso  ? Al
   Al7        1.0     0.208783     0.207664     0.638654    Uiso  ? Al
   Al8        1.0     0.783300     0.094989     0.319178    Uiso  ? Al
   Al9        1.0     0.099836     0.420322     0.393413    Uiso  ? Al
   Al10       1.0     0.230885     0.525563     0.065797    Uiso  ? Al
   Al11       1.0     0.786470     0.421511     0.820094    Uiso  ? Al
   Al12       1.0     0.881899     0.538592     0.574914    Uiso  ? Al
   Al13       1.0     0.109633     0.418339     0.881059    Uiso  ? Al
   Al14       1.0     0.213837     0.541254     0.578196    Uiso  ? Al
   Al15       1.0     0.785731     0.429814     0.314947    Uiso  ? Al
   Al16       1.0     0.883277     0.543964     0.067139    Uiso  ? Al
   Al17       1.0     0.450211     0.430087     0.825312    Uiso  ? Al
   Al18       1.0     0.237919     0.883585     0.124331    Uiso  ? Al
   Al19       1.0     0.776606     0.757309     0.817934    Uiso  ? Al
   Al20       1.0     0.890183     0.870964     0.572374    Uiso  ? Al
   Al21       1.0     0.445835     0.761496     0.387732    Uiso  ? Al
   Al22       1.0     0.557634     0.866567     0.129915    Uiso  ? Al
   Al23       1.0     0.225465     0.882764     0.631819    Uiso  ? Al
   Al24       1.0     0.868801     0.879528     0.065749    Uiso  ? Al
   Al25       1.0     0.452470     0.761315     0.882528    Uiso  ? Al
   Al26       1.0     0.546845     0.869912     0.635986    Uiso  ? Al
   Hf1        1.0     0.439126     0.090309     0.357697    Uiso  ? Hf
   Hf2        1.0     0.557674     0.197276     0.610272    Uiso  ? Hf
   Hf3        1.0     0.451151     0.425705     0.332059    Uiso  ? Hf
   Hf4        1.0     0.103046     0.763893     0.310370    Uiso  ? Hf
   Hf5        1.0     0.111199     0.762778     0.839260    Uiso  ? Hf
   Mg1        1.0     0.887363     0.208563     0.079338    Uiso  ? Mg
   Mg2        1.0     0.435491     0.087314     0.886076    Uiso  ? Mg
   Mg3        1.0     0.565209     0.537386     0.084804    Uiso  ? Mg
   Mg4        1.0     0.558512     0.546210     0.611729    Uiso  ? Mg
   Mg5        1.0     0.783391     0.750495     0.325386    Uiso  ? Mg
   N1         1.0     0.197275     0.216835     0.321627    Uiso  ? N
   N2         1.0     0.130306     0.089567     0.072945    Uiso  ? N
   N3         1.0     0.891958     0.204516     0.870876    Uiso  ? N
   N4         1.0     0.801950     0.082844     0.635487    Uiso  ? N
   N5         1.0     0.579390     0.193758     0.394982    Uiso  ? N
   N6         1.0     0.444196     0.098553     0.108859    Uiso  ? N
   N7         1.0     0.207091     0.211869     0.822489    Uiso  ? N
   N8         1.0     0.113246     0.092685     0.570929    Uiso  ? N
   N9         1.0     0.881535     0.208944     0.374768    Uiso  ? N
   N10        1.0     0.767848     0.087813     0.132473    Uiso  ? N
   N11        1.0     0.565079     0.208979     0.860663    Uiso  ? N
   N12        1.0     0.427169     0.086797     0.575411    Uiso  ? N
   N13        1.0     0.211960     0.535086     0.381620    Uiso  ? N
   N14        1.0     0.112223     0.425305     0.075788    Uiso  ? N
   N15        1.0     0.886481     0.542735     0.872665    Uiso  ? N
   N16        1.0     0.796617     0.416588     0.633930    Uiso  ? N
   N17        1.0     0.564508     0.544801     0.358226    Uiso  ? N
   N18        1.0     0.440204     0.415818     0.125534    Uiso  ? N
   N19        1.0     0.236517     0.521508     0.875242    Uiso  ? N
   N20        1.0     0.111468     0.422870     0.586136    Uiso  ? N
   N21        1.0     0.887018     0.528580     0.388635    Uiso  ? N
   N22        1.0     0.792686     0.434999     0.133086    Uiso  ? N
   N23        1.0     0.558813     0.538289     0.852389    Uiso  ? N
   N24        1.0     0.425506     0.436865     0.624091    Uiso  ? N
   N25        1.0     0.228818     0.881230     0.319394    Uiso  ? N
   N26        1.0     0.111578     0.760837     0.098266    Uiso  ? N
   N27        1.0     0.870184     0.882587     0.877870    Uiso  ? N
   N28        1.0     0.780806     0.762420     0.623603    Uiso  ? N
   N29        1.0     0.546858     0.860289     0.319174    Uiso  ? N
   N30        1.0     0.441577     0.776714     0.067156    Uiso  ? N
   N31        1.0     0.232881     0.883890     0.823581    Uiso  ? N
   N32        1.0     0.109348     0.760177     0.624878    Uiso  ? N
   N33        1.0     0.883580     0.887185     0.385471    Uiso  ? N
   N34        1.0     0.780947     0.759878     0.115212    Uiso  ? N
   N35        1.0     0.558154     0.861073     0.821688    Uiso  ? N
   N36        1.0     0.431170     0.780309     0.571610    Uiso  ? N
