
#======================================================================
# CRYSTAL DATA
#----------------------------------------------------------------------
data_VESTA_phase_1

_chemical_name_common                  'Al   Hf   Mg   N                      '
_cell_length_a                         9.874914
_cell_length_b                         9.870234
_cell_length_c                         9.944180
_cell_angle_alpha                      89.794159
_cell_angle_beta                       89.830070
_cell_angle_gamma                      59.952011
_cell_volume                           838.971053
_space_group_name_H-M_alt              'P 1'
_space_group_IT_number                 1

loop_
_space_group_symop_operation_xyz
   'x, y, z'

loop_
   _atom_site_label
   _atom_site_occupancy
   _atom_site_fract_x
   _atom_site_fract_y
   _atom_site_fract_z
   _atom_site_adp_type
   _atom_site_U_iso_or_equiv
   _atom_site_type_symbol
   Al1        1.0     0.106795     0.099867     0.378084    Uiso  ? Al
   Al2        1.0     0.212652     0.210750     0.128607    Uiso  ? Al
   Al3        1.0     0.788302     0.097860     0.825875    Uiso  ? Al
   Al4        1.0     0.888139     0.210666     0.571423    Uiso  ? Al
   Al5        1.0     0.561281     0.195286     0.069240    Uiso  ? Al
   Al6        1.0     0.111685     0.101170     0.885458    Uiso  ? Al
   Al7        1.0     0.208900     0.208220     0.635582    Uiso  ? Al
   Al8        1.0     0.786481     0.093313     0.317163    Uiso  ? Al
   Al9        1.0     0.100453     0.425187     0.385929    Uiso  ? Al
   Al10       1.0     0.216439     0.531195     0.124882    Uiso  ? Al
   Al11       1.0     0.783071     0.420539     0.824135    Uiso  ? Al
   Al12       1.0     0.889683     0.540068     0.630941    Uiso  ? Al
   Al13       1.0     0.105280     0.422783     0.882057    Uiso  ? Al
   Al14       1.0     0.218271     0.531756     0.635470    Uiso  ? Al
   Al15       1.0     0.785529     0.424742     0.311760    Uiso  ? Al
   Al16       1.0     0.893709     0.539622     0.133822    Uiso  ? Al
   Al17       1.0     0.447665     0.429972     0.891168    Uiso  ? Al
   Al18       1.0     0.232182     0.880217     0.128743    Uiso  ? Al
   Al19       1.0     0.772840     0.756531     0.866201    Uiso  ? Al
   Al20       1.0     0.881124     0.877380     0.579493    Uiso  ? Al
   Al21       1.0     0.449911     0.761475     0.385071    Uiso  ? Al
   Al22       1.0     0.558934     0.864120     0.127989    Uiso  ? Al
   Al23       1.0     0.227787     0.884798     0.631883    Uiso  ? Al
   Al24       1.0     0.876802     0.875931     0.073249    Uiso  ? Al
   Al25       1.0     0.450757     0.761231     0.883375    Uiso  ? Al
   Al26       1.0     0.553548     0.867000     0.636063    Uiso  ? Al
   Hf1        1.0     0.441590     0.090031     0.356440    Uiso  ? Hf
   Hf2        1.0     0.551222     0.206865     0.617878    Uiso  ? Hf
   Hf3        1.0     0.452376     0.425414     0.353094    Uiso  ? Hf
   Hf4        1.0     0.117753     0.760796     0.377475    Uiso  ? Hf
   Hf5        1.0     0.115875     0.761615     0.865928    Uiso  ? Hf
   Mg1        1.0     0.887655     0.205947     0.078438    Uiso  ? Mg
   Mg2        1.0     0.433088     0.087092     0.883116    Uiso  ? Mg
   Mg3        1.0     0.561410     0.545025     0.101973    Uiso  ? Mg
   Mg4        1.0     0.551408     0.547637     0.623873    Uiso  ? Mg
   Mg5        1.0     0.778314     0.754509     0.373232    Uiso  ? Mg
   N1         1.0     0.200025     0.216469     0.322276    Uiso  ? N
   N2         1.0     0.129428     0.087149     0.075132    Uiso  ? N
   N3         1.0     0.892035     0.203452     0.866913    Uiso  ? N
   N4         1.0     0.796672     0.087257     0.632947    Uiso  ? N
   N5         1.0     0.583515     0.188596     0.388518    Uiso  ? N
   N6         1.0     0.443785     0.096519     0.108095    Uiso  ? N
   N7         1.0     0.204216     0.215146     0.823413    Uiso  ? N
   N8         1.0     0.112648     0.094365     0.571791    Uiso  ? N
   N9         1.0     0.883202     0.208224     0.371533    Uiso  ? N
   N10        1.0     0.769130     0.084863     0.128449    Uiso  ? N
   N11        1.0     0.562905     0.209317     0.855538    Uiso  ? N
   N12        1.0     0.429178     0.088630     0.579731    Uiso  ? N
   N13        1.0     0.208775     0.528382     0.317761    Uiso  ? N
   N14        1.0     0.110079     0.427279     0.072299    Uiso  ? N
   N15        1.0     0.894066     0.540725     0.827652    Uiso  ? N
   N16        1.0     0.791607     0.417760     0.626961    Uiso  ? N
   N17        1.0     0.562936     0.548998     0.339933    Uiso  ? N
   N18        1.0     0.437886     0.417387     0.092968    Uiso  ? N
   N19        1.0     0.232495     0.518957     0.829021    Uiso  ? N
   N20        1.0     0.110796     0.427299     0.577456    Uiso  ? N
   N21        1.0     0.899083     0.528538     0.331083    Uiso  ? N
   N22        1.0     0.790749     0.429605     0.121281    Uiso  ? N
   N23        1.0     0.551936     0.539682     0.848422    Uiso  ? N
   N24        1.0     0.420920     0.441874     0.568604    Uiso  ? N
   N25        1.0     0.230215     0.882924     0.323053    Uiso  ? N
   N26        1.0     0.114937     0.759989     0.086691    Uiso  ? N
   N27        1.0     0.873891     0.882996     0.873347    Uiso  ? N
   N28        1.0     0.775337     0.764373     0.598705    Uiso  ? N
   N29        1.0     0.552703     0.859875     0.318953    Uiso  ? N
   N30        1.0     0.437348     0.779037     0.070377    Uiso  ? N
   N31        1.0     0.230734     0.884434     0.823107    Uiso  ? N
   N32        1.0     0.113314     0.759525     0.600326    Uiso  ? N
   N33        1.0     0.885215     0.888965     0.381963    Uiso  ? N
   N34        1.0     0.777363     0.757039     0.082016    Uiso  ? N
   N35        1.0     0.560159     0.859122     0.824958    Uiso  ? N
   N36        1.0     0.434271     0.779533     0.572761    Uiso  ? N
