
#======================================================================
# CRYSTAL DATA
#----------------------------------------------------------------------
data_VESTA_phase_1

_chemical_name_common                  'Al   Hf   Mg   N                      '
_cell_length_a                         9.805183
_cell_length_b                         9.788059
_cell_length_c                         10.044478
_cell_angle_alpha                      90.016296
_cell_angle_beta                       89.798897
_cell_angle_gamma                      59.958923
_cell_volume                           834.500381
_space_group_name_H-M_alt              'P 1'
_space_group_IT_number                 1

loop_
_space_group_symop_operation_xyz
   'x, y, z'

loop_
   _atom_site_label
   _atom_site_occupancy
   _atom_site_fract_x
   _atom_site_fract_y
   _atom_site_fract_z
   _atom_site_adp_type
   _atom_site_U_iso_or_equiv
   _atom_site_type_symbol
   Al1        1.0     0.101885     0.102496     0.393686    Uiso  ? Al
   Al2        1.0     0.212893     0.209962     0.139492    Uiso  ? Al
   Al3        1.0     0.780737     0.098659     0.895456    Uiso  ? Al
   Al4        1.0     0.897304     0.205823     0.645633    Uiso  ? Al
   Al5        1.0     0.555029     0.200170     0.096796    Uiso  ? Al
   Al6        1.0     0.110025     0.102409     0.894755    Uiso  ? Al
   Al7        1.0     0.212462     0.208421     0.645215    Uiso  ? Al
   Al8        1.0     0.792470     0.093694     0.384888    Uiso  ? Al
   Al9        1.0     0.097165     0.426927     0.393939    Uiso  ? Al
   Al10       1.0     0.214061     0.534263     0.136431    Uiso  ? Al
   Al11       1.0     0.779193     0.430656     0.894362    Uiso  ? Al
   Al12       1.0     0.888724     0.539267     0.644533    Uiso  ? Al
   Al13       1.0     0.105241     0.423075     0.892749    Uiso  ? Al
   Al14       1.0     0.218725     0.532498     0.646016    Uiso  ? Al
   Al15       1.0     0.788504     0.423650     0.396863    Uiso  ? Al
   Al16       1.0     0.888868     0.535999     0.142771    Uiso  ? Al
   Al17       1.0     0.447027     0.431559     0.902155    Uiso  ? Al
   Al18       1.0     0.229468     0.880868     0.140537    Uiso  ? Al
   Al19       1.0     0.773791     0.755502     0.893458    Uiso  ? Al
   Al20       1.0     0.881612     0.871150     0.649752    Uiso  ? Al
   Al21       1.0     0.450418     0.759693     0.395831    Uiso  ? Al
   Al22       1.0     0.557848     0.864590     0.137842    Uiso  ? Al
   Al23       1.0     0.230096     0.881652     0.643272    Uiso  ? Al
   Al24       1.0     0.878869     0.876005     0.137391    Uiso  ? Al
   Al25       1.0     0.451220     0.759253     0.895481    Uiso  ? Al
   Al26       1.0     0.558674     0.862850     0.648332    Uiso  ? Al
   Hf1        1.0     0.441325     0.087116     0.371585    Uiso  ? Hf
   Hf2        1.0     0.557619     0.205046     0.638468    Uiso  ? Hf
   Hf3        1.0     0.447388     0.430632     0.369811    Uiso  ? Hf
   Hf4        1.0     0.105392     0.767677     0.393309    Uiso  ? Hf
   Hf5        1.0     0.113591     0.762919     0.883146    Uiso  ? Hf
   Mg1        1.0     0.890807     0.210265     0.136322    Uiso  ? Mg
   Mg2        1.0     0.434573     0.086805     0.894408    Uiso  ? Mg
   Mg3        1.0     0.564496     0.544440     0.130813    Uiso  ? Mg
   Mg4        1.0     0.558817     0.544806     0.642863    Uiso  ? Mg
   Mg5        1.0     0.778893     0.752925     0.390964    Uiso  ? Mg
   N1         1.0     0.200222     0.215507     0.332571    Uiso  ? N
   N2         1.0     0.125661     0.088866     0.080687    Uiso  ? N
   N3         1.0     0.891516     0.203675     0.838285    Uiso  ? N
   N4         1.0     0.799301     0.083364     0.591822    Uiso  ? N
   N5         1.0     0.577506     0.192594     0.371234    Uiso  ? N
   N6         1.0     0.441838     0.095220     0.116073    Uiso  ? N
   N7         1.0     0.204993     0.215088     0.831372    Uiso  ? N
   N8         1.0     0.112349     0.094340     0.584558    Uiso  ? N
   N9         1.0     0.890467     0.206197     0.344261    Uiso  ? N
   N10        1.0     0.772175     0.088063     0.083052    Uiso  ? N
   N11        1.0     0.558757     0.212909     0.854007    Uiso  ? N
   N12        1.0     0.435218     0.086734     0.590286    Uiso  ? N
   N13        1.0     0.203346     0.535704     0.328026    Uiso  ? N
   N14        1.0     0.109570     0.427550     0.082166    Uiso  ? N
   N15        1.0     0.891834     0.540131     0.834141    Uiso  ? N
   N16        1.0     0.796426     0.418681     0.587981    Uiso  ? N
   N17        1.0     0.569261     0.544980     0.346459    Uiso  ? N
   N18        1.0     0.434764     0.422390     0.100316    Uiso  ? N
   N19        1.0     0.230772     0.521082     0.837549    Uiso  ? N
   N20        1.0     0.110627     0.428242     0.584788    Uiso  ? N
   N21        1.0     0.894988     0.524891     0.331539    Uiso  ? N
   N22        1.0     0.789942     0.435122     0.076155    Uiso  ? N
   N23        1.0     0.552477     0.539065     0.852142    Uiso  ? N
   N24        1.0     0.425170     0.439616     0.580252    Uiso  ? N
   N25        1.0     0.228690     0.880337     0.334634    Uiso  ? N
   N26        1.0     0.112545     0.761721     0.094197    Uiso  ? N
   N27        1.0     0.873771     0.879514     0.840322    Uiso  ? N
   N28        1.0     0.778071     0.761751     0.597374    Uiso  ? N
   N29        1.0     0.554530     0.856487     0.325985    Uiso  ? N
   N30        1.0     0.436279     0.777356     0.081041    Uiso  ? N
   N31        1.0     0.231174     0.883043     0.832461    Uiso  ? N
   N32        1.0     0.109847     0.761108     0.608603    Uiso  ? N
   N33        1.0     0.881898     0.885130     0.326595    Uiso  ? N
   N34        1.0     0.779276     0.759311     0.085709    Uiso  ? N
   N35        1.0     0.563958     0.855661     0.835726    Uiso  ? N
   N36        1.0     0.437369     0.777012     0.582049    Uiso  ? N
