
#======================================================================
# CRYSTAL DATA
#----------------------------------------------------------------------
data_VESTA_phase_1

_chemical_name_common                  'Al   Hf   Mg   N                      '
_cell_length_a                         9.864442
_cell_length_b                         9.806180
_cell_length_c                         10.136763
_cell_angle_alpha                      90.280823
_cell_angle_beta                       90.100960
_cell_angle_gamma                      59.929733
_cell_volume                           848.572574
_space_group_name_H-M_alt              'P 1'
_space_group_IT_number                 1

loop_
_space_group_symop_operation_xyz
   'x, y, z'

loop_
   _atom_site_label
   _atom_site_occupancy
   _atom_site_fract_x
   _atom_site_fract_y
   _atom_site_fract_z
   _atom_site_adp_type
   _atom_site_U_iso_or_equiv
   _atom_site_type_symbol
   Al1        1.0     0.105456     0.097634     0.381491    Uiso  ? Al
   Al2        1.0     0.212354     0.213159     0.131575    Uiso  ? Al
   Al3        1.0     0.788511     0.097950     0.824687    Uiso  ? Al
   Al4        1.0     0.888553     0.209519     0.571412    Uiso  ? Al
   Al5        1.0     0.560170     0.200669     0.070504    Uiso  ? Al
   Al6        1.0     0.113055     0.100059     0.886634    Uiso  ? Al
   Al7        1.0     0.208586     0.208065     0.638360    Uiso  ? Al
   Al8        1.0     0.783370     0.094591     0.319108    Uiso  ? Al
   Al9        1.0     0.098512     0.420585     0.392043    Uiso  ? Al
   Al10       1.0     0.229882     0.525680     0.068468    Uiso  ? Al
   Al11       1.0     0.787823     0.420839     0.820538    Uiso  ? Al
   Al12       1.0     0.881444     0.538660     0.574888    Uiso  ? Al
   Al13       1.0     0.110208     0.417884     0.881153    Uiso  ? Al
   Al14       1.0     0.212003     0.542578     0.574764    Uiso  ? Al
   Al15       1.0     0.786897     0.428860     0.314298    Uiso  ? Al
   Al16       1.0     0.883545     0.543907     0.066767    Uiso  ? Al
   Al17       1.0     0.453450     0.428151     0.842161    Uiso  ? Al
   Al18       1.0     0.237986     0.884005     0.124352    Uiso  ? Al
   Al19       1.0     0.776847     0.757174     0.817744    Uiso  ? Al
   Al20       1.0     0.889269     0.871780     0.572271    Uiso  ? Al
   Al21       1.0     0.446626     0.761052     0.387095    Uiso  ? Al
   Al22       1.0     0.557899     0.866858     0.130095    Uiso  ? Al
   Al23       1.0     0.225967     0.882545     0.631153    Uiso  ? Al
   Al24       1.0     0.869298     0.878996     0.065225    Uiso  ? Al
   Al25       1.0     0.452941     0.760939     0.883390    Uiso  ? Al
   Al26       1.0     0.547130     0.870053     0.635781    Uiso  ? Al
   Hf1        1.0     0.438818     0.090106     0.358853    Uiso  ? Hf
   Hf2        1.0     0.555970     0.200042     0.610932    Uiso  ? Hf
   Hf3        1.0     0.450130     0.426269     0.338998    Uiso  ? Hf
   Hf4        1.0     0.102156     0.765576     0.309923    Uiso  ? Hf
   Hf5        1.0     0.112142     0.761839     0.838707    Uiso  ? Hf
   Mg1        1.0     0.887431     0.208101     0.078907    Uiso  ? Mg
   Mg2        1.0     0.435530     0.086900     0.886289    Uiso  ? Mg
   Mg3        1.0     0.563859     0.540646     0.099024    Uiso  ? Mg
   Mg4        1.0     0.556558     0.547368     0.619677    Uiso  ? Mg
   Mg5        1.0     0.783647     0.750458     0.325618    Uiso  ? Mg
   N1         1.0     0.196965     0.216732     0.321561    Uiso  ? N
   N2         1.0     0.130317     0.089475     0.072680    Uiso  ? N
   N3         1.0     0.892283     0.204025     0.870346    Uiso  ? N
   N4         1.0     0.800948     0.083848     0.634879    Uiso  ? N
   N5         1.0     0.580351     0.191284     0.393211    Uiso  ? N
   N6         1.0     0.443955     0.097923     0.108704    Uiso  ? N
   N7         1.0     0.207221     0.211675     0.822540    Uiso  ? N
   N8         1.0     0.113166     0.092788     0.571151    Uiso  ? N
   N9         1.0     0.881553     0.208748     0.374529    Uiso  ? N
   N10        1.0     0.768833     0.086876     0.132040    Uiso  ? N
   N11        1.0     0.565643     0.207915     0.860169    Uiso  ? N
   N12        1.0     0.427116     0.087373     0.576417    Uiso  ? N
   N13        1.0     0.207168     0.536812     0.376885    Uiso  ? N
   N14        1.0     0.112068     0.425033     0.075772    Uiso  ? N
   N15        1.0     0.887237     0.542581     0.872130    Uiso  ? N
   N16        1.0     0.796027     0.416955     0.633865    Uiso  ? N
   N17        1.0     0.563738     0.546685     0.347988    Uiso  ? N
   N18        1.0     0.440082     0.415240     0.125703    Uiso  ? N
   N19        1.0     0.237828     0.520485     0.875604    Uiso  ? N
   N20        1.0     0.111200     0.423203     0.585560    Uiso  ? N
   N21        1.0     0.886023     0.528597     0.388572    Uiso  ? N
   N22        1.0     0.794630     0.433829     0.131992    Uiso  ? N
   N23        1.0     0.558815     0.538716     0.849628    Uiso  ? N
   N24        1.0     0.426101     0.438265     0.603922    Uiso  ? N
   N25        1.0     0.229320     0.881551     0.319497    Uiso  ? N
   N26        1.0     0.111331     0.761135     0.097561    Uiso  ? N
   N27        1.0     0.870976     0.882082     0.877031    Uiso  ? N
   N28        1.0     0.780753     0.762502     0.623388    Uiso  ? N
   N29        1.0     0.547408     0.860471     0.319512    Uiso  ? N
   N30        1.0     0.441723     0.776984     0.067597    Uiso  ? N
   N31        1.0     0.233325     0.883191     0.823503    Uiso  ? N
   N32        1.0     0.109139     0.760505     0.624063    Uiso  ? N
   N33        1.0     0.883221     0.887245     0.385373    Uiso  ? N
   N34        1.0     0.781042     0.759813     0.114725    Uiso  ? N
   N35        1.0     0.558467     0.860501     0.821979    Uiso  ? N
   N36        1.0     0.432162     0.779497     0.571237    Uiso  ? N
