
#======================================================================
# CRYSTAL DATA
#----------------------------------------------------------------------
data_VESTA_phase_1

_chemical_name_common                  'Al   Hf   Mg   N                      '
_cell_length_a                         9.862158
_cell_length_b                         9.823169
_cell_length_c                         10.031229
_cell_angle_alpha                      90.283203
_cell_angle_beta                       90.175522
_cell_angle_gamma                      60.000111
_cell_volume                           841.595506
_space_group_name_H-M_alt              'P 1'
_space_group_IT_number                 1

loop_
_space_group_symop_operation_xyz
   'x, y, z'

loop_
   _atom_site_label
   _atom_site_occupancy
   _atom_site_fract_x
   _atom_site_fract_y
   _atom_site_fract_z
   _atom_site_adp_type
   _atom_site_U_iso_or_equiv
   _atom_site_type_symbol
   Al1        1.0     0.102216     0.099432     0.339383    Uiso  ? Al
   Al2        1.0     0.217629     0.214888     0.077577    Uiso  ? Al
   Al3        1.0     0.787949     0.098977     0.826353    Uiso  ? Al
   Al4        1.0     0.894868     0.205483     0.567371    Uiso  ? Al
   Al5        1.0     0.558822     0.204575     0.062966    Uiso  ? Al
   Al6        1.0     0.107071     0.101012     0.887247    Uiso  ? Al
   Al7        1.0     0.209166     0.207210     0.566418    Uiso  ? Al
   Al8        1.0     0.782266     0.096066     0.318501    Uiso  ? Al
   Al9        1.0     0.096150     0.429151     0.318838    Uiso  ? Al
   Al10       1.0     0.226615     0.523596     0.067919    Uiso  ? Al
   Al11       1.0     0.786209     0.421582     0.820295    Uiso  ? Al
   Al12       1.0     0.892602     0.531307     0.573429    Uiso  ? Al
   Al13       1.0     0.108263     0.419307     0.820731    Uiso  ? Al
   Al14       1.0     0.211677     0.537147     0.580431    Uiso  ? Al
   Al15       1.0     0.782629     0.434084     0.318119    Uiso  ? Al
   Al16       1.0     0.886652     0.543152     0.068581    Uiso  ? Al
   Al17       1.0     0.446907     0.431901     0.821857    Uiso  ? Al
   Al18       1.0     0.238354     0.876577     0.126839    Uiso  ? Al
   Al19       1.0     0.779111     0.754187     0.819091    Uiso  ? Al
   Al20       1.0     0.891113     0.870375     0.575311    Uiso  ? Al
   Al21       1.0     0.443763     0.763598     0.392511    Uiso  ? Al
   Al22       1.0     0.558759     0.862424     0.127976    Uiso  ? Al
   Al23       1.0     0.223381     0.884607     0.634001    Uiso  ? Al
   Al24       1.0     0.866727     0.880549     0.067818    Uiso  ? Al
   Al25       1.0     0.451561     0.762187     0.879855    Uiso  ? Al
   Al26       1.0     0.549989     0.868136     0.634618    Uiso  ? Al
   Hf1        1.0     0.442267     0.093935     0.340310    Uiso  ? Hf
   Hf2        1.0     0.560024     0.197854     0.606491    Uiso  ? Hf
   Hf3        1.0     0.450142     0.430347     0.332837    Uiso  ? Hf
   Hf4        1.0     0.101955     0.760717     0.315921    Uiso  ? Hf
   Hf5        1.0     0.110492     0.761303     0.844319    Uiso  ? Hf
   Mg1        1.0     0.881312     0.213554     0.086547    Uiso  ? Mg
   Mg2        1.0     0.441116     0.087680     0.867524    Uiso  ? Mg
   Mg3        1.0     0.564852     0.535854     0.072373    Uiso  ? Mg
   Mg4        1.0     0.562234     0.542890     0.602028    Uiso  ? Mg
   Mg5        1.0     0.780437     0.751592     0.331096    Uiso  ? Mg
   N1         1.0     0.202526     0.217498     0.369218    Uiso  ? N
   N2         1.0     0.122113     0.092732     0.111803    Uiso  ? N
   N3         1.0     0.890295     0.205731     0.877316    Uiso  ? N
   N4         1.0     0.803501     0.082521     0.635517    Uiso  ? N
   N5         1.0     0.578516     0.199049     0.392106    Uiso  ? N
   N6         1.0     0.445094     0.099797     0.113607    Uiso  ? N
   N7         1.0     0.206773     0.217102     0.887351    Uiso  ? N
   N8         1.0     0.110705     0.090185     0.579836    Uiso  ? N
   N9         1.0     0.881549     0.209985     0.368988    Uiso  ? N
   N10        1.0     0.764721     0.088954     0.130913    Uiso  ? N
   N11        1.0     0.565427     0.210916     0.860613    Uiso  ? N
   N12        1.0     0.433772     0.084827     0.580322    Uiso  ? N
   N13        1.0     0.210944     0.530424     0.386925    Uiso  ? N
   N14        1.0     0.108120     0.434624     0.130015    Uiso  ? N
   N15        1.0     0.892783     0.538994     0.875340    Uiso  ? N
   N16        1.0     0.800193     0.413867     0.632129    Uiso  ? N
   N17        1.0     0.566775     0.544411     0.372937    Uiso  ? N
   N18        1.0     0.439066     0.418039     0.124704    Uiso  ? N
   N19        1.0     0.232009     0.518029     0.878571    Uiso  ? N
   N20        1.0     0.112227     0.422284     0.630816    Uiso  ? N
   N21        1.0     0.897438     0.524379     0.387309    Uiso  ? N
   N22        1.0     0.787196     0.441496     0.133867    Uiso  ? N
   N23        1.0     0.558049     0.538015     0.853331    Uiso  ? N
   N24        1.0     0.423869     0.437121     0.627357    Uiso  ? N
   N25        1.0     0.231538     0.871369     0.323189    Uiso  ? N
   N26        1.0     0.110280     0.760326     0.099431    Uiso  ? N
   N27        1.0     0.869737     0.882832     0.877786    Uiso  ? N
   N28        1.0     0.784356     0.757733     0.622144    Uiso  ? N
   N29        1.0     0.544564     0.860722     0.320687    Uiso  ? N
   N30        1.0     0.439746     0.776790     0.066534    Uiso  ? N
   N31        1.0     0.229201     0.886139     0.831608    Uiso  ? N
   N32        1.0     0.110345     0.757640     0.627021    Uiso  ? N
   N33        1.0     0.880766     0.889529     0.385859    Uiso  ? N
   N34        1.0     0.780336     0.759806     0.115729    Uiso  ? N
   N35        1.0     0.561709     0.858145     0.823223    Uiso  ? N
   N36        1.0     0.430512     0.780586     0.578272    Uiso  ? N
