
#======================================================================
# CRYSTAL DATA
#----------------------------------------------------------------------
data_VESTA_phase_1

_chemical_name_common                  'Al   Hf   Mg   N                      '
_cell_length_a                         9.867932
_cell_length_b                         9.808651
_cell_length_c                         10.134557
_cell_angle_alpha                      90.298317
_cell_angle_beta                       90.083466
_cell_angle_gamma                      59.919437
_cell_volume                           848.811839
_space_group_name_H-M_alt              'P 1'
_space_group_IT_number                 1

loop_
_space_group_symop_operation_xyz
   'x, y, z'

loop_
   _atom_site_label
   _atom_site_occupancy
   _atom_site_fract_x
   _atom_site_fract_y
   _atom_site_fract_z
   _atom_site_adp_type
   _atom_site_U_iso_or_equiv
   _atom_site_type_symbol
   Al1        1.0     0.105542     0.097570     0.381486    Uiso  ? Al
   Al2        1.0     0.212259     0.212915     0.131780    Uiso  ? Al
   Al3        1.0     0.788853     0.097532     0.824231    Uiso  ? Al
   Al4        1.0     0.888240     0.209701     0.571317    Uiso  ? Al
   Al5        1.0     0.560967     0.198308     0.073501    Uiso  ? Al
   Al6        1.0     0.113125     0.099853     0.886479    Uiso  ? Al
   Al7        1.0     0.208477     0.208293     0.638277    Uiso  ? Al
   Al8        1.0     0.783533     0.094234     0.319141    Uiso  ? Al
   Al9        1.0     0.097802     0.420655     0.391074    Uiso  ? Al
   Al10       1.0     0.227587     0.526807     0.070364    Uiso  ? Al
   Al11       1.0     0.788367     0.420515     0.820572    Uiso  ? Al
   Al12       1.0     0.881112     0.538723     0.574837    Uiso  ? Al
   Al13       1.0     0.110561     0.417671     0.881286    Uiso  ? Al
   Al14       1.0     0.211346     0.543281     0.572003    Uiso  ? Al
   Al15       1.0     0.787501     0.428339     0.314023    Uiso  ? Al
   Al16       1.0     0.883567     0.543827     0.066535    Uiso  ? Al
   Al17       1.0     0.456733     0.426862     0.866340    Uiso  ? Al
   Al18       1.0     0.238034     0.884187     0.124434    Uiso  ? Al
   Al19       1.0     0.777006     0.757050     0.817646    Uiso  ? Al
   Al20       1.0     0.888482     0.872312     0.572127    Uiso  ? Al
   Al21       1.0     0.447124     0.760688     0.386960    Uiso  ? Al
   Al22       1.0     0.557976     0.866975     0.130362    Uiso  ? Al
   Al23       1.0     0.226298     0.882481     0.630810    Uiso  ? Al
   Al24       1.0     0.869851     0.878507     0.064858    Uiso  ? Al
   Al25       1.0     0.453069     0.760922     0.883744    Uiso  ? Al
   Al26       1.0     0.547468     0.870041     0.635793    Uiso  ? Al
   Hf1        1.0     0.438779     0.089868     0.360133    Uiso  ? Hf
   Hf2        1.0     0.553794     0.203795     0.612246    Uiso  ? Hf
   Hf3        1.0     0.449895     0.426793     0.344789    Uiso  ? Hf
   Hf4        1.0     0.101521     0.766618     0.309695    Uiso  ? Hf
   Hf5        1.0     0.112826     0.760980     0.837914    Uiso  ? Hf
   Mg1        1.0     0.887476     0.207897     0.078669    Uiso  ? Mg
   Mg2        1.0     0.435491     0.086783     0.886261    Uiso  ? Mg
   Mg3        1.0     0.563816     0.542897     0.106321    Uiso  ? Mg
   Mg4        1.0     0.554580     0.547064     0.623436    Uiso  ? Mg
   Mg5        1.0     0.783873     0.750322     0.325656    Uiso  ? Mg
   N1         1.0     0.196900     0.216515     0.321512    Uiso  ? N
   N2         1.0     0.130327     0.089378     0.072474    Uiso  ? N
   N3         1.0     0.892304     0.203804     0.870109    Uiso  ? N
   N4         1.0     0.799648     0.084752     0.634399    Uiso  ? N
   N5         1.0     0.581055     0.189589     0.391474    Uiso  ? N
   N6         1.0     0.443735     0.097484     0.108748    Uiso  ? N
   N7         1.0     0.207172     0.211618     0.822485    Uiso  ? N
   N8         1.0     0.113123     0.092876     0.571237    Uiso  ? N
   N9         1.0     0.881602     0.208607     0.374497    Uiso  ? N
   N10        1.0     0.769783     0.086066     0.131946    Uiso  ? N
   N11        1.0     0.565883     0.207328     0.859311    Uiso  ? N
   N12        1.0     0.427461     0.087982     0.577328    Uiso  ? N
   N13        1.0     0.204017     0.537563     0.372275    Uiso  ? N
   N14        1.0     0.111784     0.424688     0.075793    Uiso  ? N
   N15        1.0     0.887562     0.542448     0.871930    Uiso  ? N
   N16        1.0     0.795391     0.417243     0.633874    Uiso  ? N
   N17        1.0     0.563509     0.547532     0.342779    Uiso  ? N
   N18        1.0     0.440860     0.415573     0.119854    Uiso  ? N
   N19        1.0     0.238326     0.520045     0.875725    Uiso  ? N
   N20        1.0     0.111474     0.423345     0.584999    Uiso  ? N
   N21        1.0     0.885441     0.528531     0.388722    Uiso  ? N
   N22        1.0     0.795649     0.433199     0.131602    Uiso  ? N
   N23        1.0     0.558628     0.538669     0.848534    Uiso  ? N
   N24        1.0     0.426768     0.439454     0.583264    Uiso  ? N
   N25        1.0     0.229767     0.881650     0.319566    Uiso  ? N
   N26        1.0     0.110963     0.761563     0.097364    Uiso  ? N
   N27        1.0     0.871475     0.881736     0.876582    Uiso  ? N
   N28        1.0     0.780862     0.762370     0.623424    Uiso  ? N
   N29        1.0     0.547718     0.860452     0.319704    Uiso  ? N
   N30        1.0     0.441763     0.777246     0.067643    Uiso  ? N
   N31        1.0     0.233499     0.882847     0.823351    Uiso  ? N
   N32        1.0     0.109277     0.760483     0.623315    Uiso  ? N
   N33        1.0     0.882950     0.887217     0.385488    Uiso  ? N
   N34        1.0     0.781114     0.759778     0.114509    Uiso  ? N
   N35        1.0     0.558614     0.860228     0.822076    Uiso  ? N
   N36        1.0     0.432825     0.778913     0.571211    Uiso  ? N
