
#======================================================================
# CRYSTAL DATA
#----------------------------------------------------------------------
data_VESTA_phase_1

_chemical_name_common                  'Al   Hf   Mg   N                      '
_cell_length_a                         9.878964
_cell_length_b                         9.872526
_cell_length_c                         9.938261
_cell_angle_alpha                      89.852669
_cell_angle_beta                       89.879227
_cell_angle_gamma                      59.979370
_cell_volume                           839.245065
_space_group_name_H-M_alt              'P 1'
_space_group_IT_number                 1

loop_
_space_group_symop_operation_xyz
   'x, y, z'

loop_
   _atom_site_label
   _atom_site_occupancy
   _atom_site_fract_x
   _atom_site_fract_y
   _atom_site_fract_z
   _atom_site_adp_type
   _atom_site_U_iso_or_equiv
   _atom_site_type_symbol
   Al1        1.0     0.106369     0.099908     0.378057    Uiso  ? Al
   Al2        1.0     0.213050     0.210071     0.128162    Uiso  ? Al
   Al3        1.0     0.788294     0.097879     0.827179    Uiso  ? Al
   Al4        1.0     0.888151     0.209135     0.571290    Uiso  ? Al
   Al5        1.0     0.561531     0.195333     0.069404    Uiso  ? Al
   Al6        1.0     0.111490     0.101029     0.885947    Uiso  ? Al
   Al7        1.0     0.209333     0.207938     0.637028    Uiso  ? Al
   Al8        1.0     0.786330     0.093174     0.316978    Uiso  ? Al
   Al9        1.0     0.103196     0.423066     0.387564    Uiso  ? Al
   Al10       1.0     0.216523     0.531797     0.124559    Uiso  ? Al
   Al11       1.0     0.785357     0.421640     0.820088    Uiso  ? Al
   Al12       1.0     0.888040     0.536138     0.596976    Uiso  ? Al
   Al13       1.0     0.105244     0.422881     0.879477    Uiso  ? Al
   Al14       1.0     0.219099     0.531525     0.636585    Uiso  ? Al
   Al15       1.0     0.786103     0.426298     0.317578    Uiso  ? Al
   Al16       1.0     0.891943     0.540501     0.111769    Uiso  ? Al
   Al17       1.0     0.448484     0.430252     0.891756    Uiso  ? Al
   Al18       1.0     0.232535     0.879805     0.128753    Uiso  ? Al
   Al19       1.0     0.776906     0.757355     0.820350    Uiso  ? Al
   Al20       1.0     0.880799     0.878218     0.577482    Uiso  ? Al
   Al21       1.0     0.448788     0.761343     0.385645    Uiso  ? Al
   Al22       1.0     0.558606     0.864941     0.129791    Uiso  ? Al
   Al23       1.0     0.226821     0.884712     0.632618    Uiso  ? Al
   Al24       1.0     0.874717     0.875056     0.072487    Uiso  ? Al
   Al25       1.0     0.452299     0.760568     0.884033    Uiso  ? Al
   Al26       1.0     0.547534     0.870708     0.634320    Uiso  ? Al
   Hf1        1.0     0.440292     0.091540     0.357095    Uiso  ? Hf
   Hf2        1.0     0.551341     0.207279     0.618402    Uiso  ? Hf
   Hf3        1.0     0.451848     0.425411     0.353242    Uiso  ? Hf
   Hf4        1.0     0.117644     0.760700     0.377805    Uiso  ? Hf
   Hf5        1.0     0.115364     0.761693     0.867008    Uiso  ? Hf
   Mg1        1.0     0.887820     0.206700     0.079840    Uiso  ? Mg
   Mg2        1.0     0.434032     0.086323     0.883737    Uiso  ? Mg
   Mg3        1.0     0.562959     0.544670     0.104094    Uiso  ? Mg
   Mg4        1.0     0.550362     0.547678     0.625029    Uiso  ? Mg
   Mg5        1.0     0.782098     0.756415     0.341149    Uiso  ? Mg
   N1         1.0     0.198953     0.216870     0.321265    Uiso  ? N
   N2         1.0     0.129472     0.086770     0.075540    Uiso  ? N
   N3         1.0     0.891507     0.204621     0.867846    Uiso  ? N
   N4         1.0     0.796868     0.086655     0.634047    Uiso  ? N
   N5         1.0     0.583783     0.188711     0.388906    Uiso  ? N
   N6         1.0     0.444159     0.096476     0.108340    Uiso  ? N
   N7         1.0     0.205153     0.214011     0.824749    Uiso  ? N
   N8         1.0     0.112779     0.094305     0.572189    Uiso  ? N
   N9         1.0     0.883215     0.207014     0.371830    Uiso  ? N
   N10        1.0     0.769420     0.085109     0.127918    Uiso  ? N
   N11        1.0     0.562852     0.209552     0.855832    Uiso  ? N
   N12        1.0     0.428653     0.089477     0.579908    Uiso  ? N
   N13        1.0     0.207443     0.528597     0.317411    Uiso  ? N
   N14        1.0     0.110882     0.426771     0.072592    Uiso  ? N
   N15        1.0     0.892883     0.539741     0.835275    Uiso  ? N
   N16        1.0     0.790140     0.416472     0.626214    Uiso  ? N
   N17        1.0     0.561526     0.549309     0.339560    Uiso  ? N
   N18        1.0     0.438297     0.417405     0.093585    Uiso  ? N
   N19        1.0     0.233101     0.519427     0.830123    Uiso  ? N
   N20        1.0     0.116870     0.423729     0.579713    Uiso  ? N
   N21        1.0     0.892712     0.527091     0.371058    Uiso  ? N
   N22        1.0     0.793545     0.429983     0.128913    Uiso  ? N
   N23        1.0     0.553350     0.539168     0.849172    Uiso  ? N
   N24        1.0     0.421176     0.442030     0.568860    Uiso  ? N
   N25        1.0     0.229420     0.882877     0.323140    Uiso  ? N
   N26        1.0     0.115372     0.760063     0.086514    Uiso  ? N
   N27        1.0     0.871942     0.881419     0.874691    Uiso  ? N
   N28        1.0     0.776441     0.766783     0.616225    Uiso  ? N
   N29        1.0     0.548706     0.862446     0.322799    Uiso  ? N
   N30        1.0     0.438511     0.778717     0.071224    Uiso  ? N
   N31        1.0     0.230640     0.883970     0.823883    Uiso  ? N
   N32        1.0     0.113050     0.759405     0.600411    Uiso  ? N
   N33        1.0     0.884705     0.888963     0.383737    Uiso  ? N
   N34        1.0     0.781673     0.758470     0.114860    Uiso  ? N
   N35        1.0     0.558951     0.859896     0.824374    Uiso  ? N
   N36        1.0     0.433012     0.778917     0.573165    Uiso  ? N
