
#======================================================================
# CRYSTAL DATA
#----------------------------------------------------------------------
data_VESTA_phase_1

_chemical_name_common                  'Al   Hf   Mg   N                      '
_cell_length_a                         9.828054
_cell_length_b                         9.772151
_cell_length_c                         10.209064
_cell_angle_alpha                      90.221367
_cell_angle_beta                       90.047165
_cell_angle_gamma                      60.002590
_cell_volume                           849.145275
_space_group_name_H-M_alt              'P 1'
_space_group_IT_number                 1

loop_
_space_group_symop_operation_xyz
   'x, y, z'

loop_
   _atom_site_label
   _atom_site_occupancy
   _atom_site_fract_x
   _atom_site_fract_y
   _atom_site_fract_z
   _atom_site_adp_type
   _atom_site_U_iso_or_equiv
   _atom_site_type_symbol
   Al1        1.0     0.106176     0.096349     0.382015    Uiso  ? Al
   Al2        1.0     0.212502     0.213880     0.132188    Uiso  ? Al
   Al3        1.0     0.786400     0.100134     0.825877    Uiso  ? Al
   Al4        1.0     0.889773     0.208516     0.571185    Uiso  ? Al
   Al5        1.0     0.560406     0.202719     0.063956    Uiso  ? Al
   Al6        1.0     0.111546     0.101807     0.888377    Uiso  ? Al
   Al7        1.0     0.209724     0.206349     0.638873    Uiso  ? Al
   Al8        1.0     0.784115     0.094674     0.319502    Uiso  ? Al
   Al9        1.0     0.102427     0.419309     0.395639    Uiso  ? Al
   Al10       1.0     0.230687     0.525952     0.062687    Uiso  ? Al
   Al11       1.0     0.784145     0.423071     0.818092    Uiso  ? Al
   Al12       1.0     0.883019     0.538548     0.575428    Uiso  ? Al
   Al13       1.0     0.108166     0.419329     0.879115    Uiso  ? Al
   Al14       1.0     0.216612     0.540023     0.581057    Uiso  ? Al
   Al15       1.0     0.785100     0.430800     0.316914    Uiso  ? Al
   Al16       1.0     0.882740     0.543971     0.067564    Uiso  ? Al
   Al17       1.0     0.449691     0.431497     0.821536    Uiso  ? Al
   Al18       1.0     0.237460     0.882874     0.124049    Uiso  ? Al
   Al19       1.0     0.775487     0.758344     0.818142    Uiso  ? Al
   Al20       1.0     0.891208     0.870023     0.572727    Uiso  ? Al
   Al21       1.0     0.444224     0.761909     0.389394    Uiso  ? Al
   Al22       1.0     0.557031     0.865689     0.129945    Uiso  ? Al
   Al23       1.0     0.224870     0.882529     0.633154    Uiso  ? Al
   Al24       1.0     0.867962     0.880537     0.066330    Uiso  ? Al
   Al25       1.0     0.450815     0.763127     0.881026    Uiso  ? Al
   Al26       1.0     0.546547     0.869584     0.636333    Uiso  ? Al
   Hf1        1.0     0.440245     0.089702     0.356644    Uiso  ? Hf
   Hf2        1.0     0.558465     0.196541     0.608905    Uiso  ? Hf
   Hf3        1.0     0.453520     0.425009     0.325824    Uiso  ? Hf
   Hf4        1.0     0.103628     0.760674     0.309617    Uiso  ? Hf
   Hf5        1.0     0.109275     0.764288     0.839710    Uiso  ? Hf
   Mg1        1.0     0.886502     0.210427     0.080665    Uiso  ? Mg
   Mg2        1.0     0.434720     0.088589     0.886437    Uiso  ? Mg
   Mg3        1.0     0.567701     0.534419     0.069030    Uiso  ? Mg
   Mg4        1.0     0.561490     0.541663     0.594836    Uiso  ? Mg
   Mg5        1.0     0.783106     0.749928     0.324877    Uiso  ? Mg
   N1         1.0     0.198168     0.216257     0.321999    Uiso  ? N
   N2         1.0     0.129809     0.090023     0.073596    Uiso  ? N
   N3         1.0     0.890237     0.206630     0.872547    Uiso  ? N
   N4         1.0     0.802716     0.082209     0.636578    Uiso  ? N
   N5         1.0     0.579118     0.195676     0.395396    Uiso  ? N
   N6         1.0     0.444419     0.099162     0.109700    Uiso  ? N
   N7         1.0     0.206622     0.211999     0.821899    Uiso  ? N
   N8         1.0     0.113858     0.091810     0.570429    Uiso  ? N
   N9         1.0     0.882131     0.208774     0.375517    Uiso  ? N
   N10        1.0     0.767161     0.088891     0.133770    Uiso  ? N
   N11        1.0     0.564416     0.210092     0.862161    Uiso  ? N
   N12        1.0     0.427741     0.086092     0.573803    Uiso  ? N
   N13        1.0     0.217722     0.532317     0.385173    Uiso  ? N
   N14        1.0     0.111852     0.425525     0.075242    Uiso  ? N
   N15        1.0     0.884628     0.543600     0.873432    Uiso  ? N
   N16        1.0     0.797373     0.416006     0.633692    Uiso  ? N
   N17        1.0     0.566353     0.541595     0.372597    Uiso  ? N
   N18        1.0     0.440661     0.417970     0.121913    Uiso  ? N
   N19        1.0     0.234956     0.522704     0.874135    Uiso  ? N
   N20        1.0     0.112505     0.422506     0.587773    Uiso  ? N
   N21        1.0     0.889052     0.528313     0.389815    Uiso  ? N
   N22        1.0     0.789139     0.437747     0.136065    Uiso  ? N
   N23        1.0     0.558819     0.538608     0.855614    Uiso  ? N
   N24        1.0     0.426607     0.435567     0.631420    Uiso  ? N
   N25        1.0     0.228355     0.879366     0.318888    Uiso  ? N
   N26        1.0     0.111175     0.760759     0.098347    Uiso  ? N
   N27        1.0     0.868241     0.884112     0.879372    Uiso  ? N
   N28        1.0     0.781056     0.762141     0.624592    Uiso  ? N
   N29        1.0     0.545950     0.858928     0.318370    Uiso  ? N
   N30        1.0     0.440957     0.776592     0.065607    Uiso  ? N
   N31        1.0     0.231177     0.885622     0.823865    Uiso  ? N
   N32        1.0     0.109510     0.759586     0.626715    Uiso  ? N
   N33        1.0     0.884440     0.886368     0.386305    Uiso  ? N
   N34        1.0     0.780801     0.760014     0.116136    Uiso  ? N
   N35        1.0     0.556847     0.862962     0.820937    Uiso  ? N
   N36        1.0     0.430095     0.780725     0.572537    Uiso  ? N
