
#======================================================================
# CRYSTAL DATA
#----------------------------------------------------------------------
data_VESTA_phase_1

_chemical_name_common                  'Al   Hf   Mg   N                      '
_cell_length_a                         9.855178
_cell_length_b                         9.823946
_cell_length_c                         10.047386
_cell_angle_alpha                      90.271660
_cell_angle_beta                       90.216911
_cell_angle_gamma                      59.999287
_cell_volume                           842.414003
_space_group_name_H-M_alt              'P 1'
_space_group_IT_number                 1

loop_
_space_group_symop_operation_xyz
   'x, y, z'

loop_
   _atom_site_label
   _atom_site_occupancy
   _atom_site_fract_x
   _atom_site_fract_y
   _atom_site_fract_z
   _atom_site_adp_type
   _atom_site_U_iso_or_equiv
   _atom_site_type_symbol
   Al1        1.0     0.106071     0.097342     0.383320    Uiso  ? Al
   Al2        1.0     0.219445     0.209739     0.097648    Uiso  ? Al
   Al3        1.0     0.787275     0.099473     0.826406    Uiso  ? Al
   Al4        1.0     0.889642     0.208839     0.574073    Uiso  ? Al
   Al5        1.0     0.560171     0.204912     0.063050    Uiso  ? Al
   Al6        1.0     0.109751     0.099104     0.887991    Uiso  ? Al
   Al7        1.0     0.214277     0.202594     0.632874    Uiso  ? Al
   Al8        1.0     0.782520     0.096791     0.319860    Uiso  ? Al
   Al9        1.0     0.095714     0.426906     0.315973    Uiso  ? Al
   Al10       1.0     0.226925     0.524723     0.067551    Uiso  ? Al
   Al11       1.0     0.785035     0.422884     0.820299    Uiso  ? Al
   Al12       1.0     0.892958     0.532264     0.571520    Uiso  ? Al
   Al13       1.0     0.104595     0.428037     0.822251    Uiso  ? Al
   Al14       1.0     0.210809     0.538083     0.577680    Uiso  ? Al
   Al15       1.0     0.784933     0.430712     0.318679    Uiso  ? Al
   Al16       1.0     0.885592     0.543271     0.068515    Uiso  ? Al
   Al17       1.0     0.446828     0.432627     0.821781    Uiso  ? Al
   Al18       1.0     0.236721     0.882342     0.127108    Uiso  ? Al
   Al19       1.0     0.778480     0.754823     0.819155    Uiso  ? Al
   Al20       1.0     0.890197     0.870308     0.574168    Uiso  ? Al
   Al21       1.0     0.443999     0.763344     0.389552    Uiso  ? Al
   Al22       1.0     0.558166     0.863416     0.127923    Uiso  ? Al
   Al23       1.0     0.224998     0.880478     0.633331    Uiso  ? Al
   Al24       1.0     0.866862     0.880724     0.068211    Uiso  ? Al
   Al25       1.0     0.450850     0.761814     0.881125    Uiso  ? Al
   Al26       1.0     0.550027     0.867296     0.635127    Uiso  ? Al
   Hf1        1.0     0.437905     0.094098     0.348092    Uiso  ? Hf
   Hf2        1.0     0.558929     0.198625     0.607627    Uiso  ? Hf
   Hf3        1.0     0.449831     0.429336     0.331992    Uiso  ? Hf
   Hf4        1.0     0.101759     0.762513     0.314891    Uiso  ? Hf
   Hf5        1.0     0.110061     0.762648     0.843340    Uiso  ? Hf
   Mg1        1.0     0.885959     0.210775     0.083271    Uiso  ? Mg
   Mg2        1.0     0.444963     0.084652     0.876273    Uiso  ? Mg
   Mg3        1.0     0.565844     0.534968     0.073657    Uiso  ? Mg
   Mg4        1.0     0.561384     0.543738     0.600293    Uiso  ? Mg
   Mg5        1.0     0.780170     0.751705     0.329886    Uiso  ? Mg
   N1         1.0     0.201431     0.211359     0.335946    Uiso  ? N
   N2         1.0     0.126885     0.087980     0.076565    Uiso  ? N
   N3         1.0     0.890024     0.206565     0.871326    Uiso  ? N
   N4         1.0     0.802575     0.081964     0.635774    Uiso  ? N
   N5         1.0     0.577471     0.198924     0.393030    Uiso  ? N
   N6         1.0     0.446518     0.098367     0.105701    Uiso  ? N
   N7         1.0     0.210149     0.211179     0.843109    Uiso  ? N
   N8         1.0     0.112711     0.091381     0.576650    Uiso  ? N
   N9         1.0     0.882081     0.208868     0.375678    Uiso  ? N
   N10        1.0     0.766242     0.089549     0.131751    Uiso  ? N
   N11        1.0     0.565352     0.211712     0.859993    Uiso  ? N
   N12        1.0     0.431378     0.085624     0.580479    Uiso  ? N
   N13        1.0     0.209909     0.530589     0.384151    Uiso  ? N
   N14        1.0     0.107971     0.434291     0.123370    Uiso  ? N
   N15        1.0     0.890933     0.540397     0.876429    Uiso  ? N
   N16        1.0     0.799018     0.417180     0.632579    Uiso  ? N
   N17        1.0     0.566574     0.543878     0.371366    Uiso  ? N
   N18        1.0     0.439259     0.417517     0.124471    Uiso  ? N
   N19        1.0     0.232087     0.520002     0.879014    Uiso  ? N
   N20        1.0     0.108583     0.429593     0.631316    Uiso  ? N
   N21        1.0     0.897727     0.524170     0.385975    Uiso  ? N
   N22        1.0     0.789557     0.438068     0.134420    Uiso  ? N
   N23        1.0     0.557853     0.538257     0.854087    Uiso  ? N
   N24        1.0     0.422951     0.437982     0.627173    Uiso  ? N
   N25        1.0     0.227441     0.878827     0.323323    Uiso  ? N
   N26        1.0     0.110093     0.761051     0.099879    Uiso  ? N
   N27        1.0     0.869057     0.883493     0.878163    Uiso  ? N
   N28        1.0     0.783367     0.758597     0.621933    Uiso  ? N
   N29        1.0     0.544085     0.861575     0.319561    Uiso  ? N
   N30        1.0     0.439635     0.775760     0.068040    Uiso  ? N
   N31        1.0     0.231023     0.883575     0.826027    Uiso  ? N
   N32        1.0     0.109695     0.758459     0.624961    Uiso  ? N
   N33        1.0     0.880789     0.889238     0.385359    Uiso  ? N
   N34        1.0     0.780171     0.759807     0.115671    Uiso  ? N
   N35        1.0     0.561352     0.857082     0.823021    Uiso  ? N
   N36        1.0     0.430439     0.781069     0.575029    Uiso  ? N
