
#======================================================================
# CRYSTAL DATA
#----------------------------------------------------------------------
data_VESTA_phase_1

_chemical_name_common                  'Al   Hf   Mg   N                      '
_cell_length_a                         9.838315
_cell_length_b                         9.850482
_cell_length_c                         9.971998
_cell_angle_alpha                      90.044495
_cell_angle_beta                       89.944092
_cell_angle_gamma                      59.865150
_cell_volume                           835.792784
_space_group_name_H-M_alt              'P 1'
_space_group_IT_number                 1

loop_
_space_group_symop_operation_xyz
   'x, y, z'

loop_
   _atom_site_label
   _atom_site_occupancy
   _atom_site_fract_x
   _atom_site_fract_y
   _atom_site_fract_z
   _atom_site_adp_type
   _atom_site_U_iso_or_equiv
   _atom_site_type_symbol
   Al1        1.0     0.099578     0.103119     0.389515    Uiso  ? Al
   Al2        1.0     0.213189     0.210394     0.135968    Uiso  ? Al
   Al3        1.0     0.784723     0.096701     0.840610    Uiso  ? Al
   Al4        1.0     0.898244     0.209650     0.642102    Uiso  ? Al
   Al5        1.0     0.558332     0.198013     0.073844    Uiso  ? Al
   Al6        1.0     0.110823     0.103508     0.891114    Uiso  ? Al
   Al7        1.0     0.211476     0.208674     0.640965    Uiso  ? Al
   Al8        1.0     0.784329     0.094905     0.318922    Uiso  ? Al
   Al9        1.0     0.098115     0.425086     0.390586    Uiso  ? Al
   Al10       1.0     0.216474     0.529881     0.133349    Uiso  ? Al
   Al11       1.0     0.778589     0.432603     0.891360    Uiso  ? Al
   Al12       1.0     0.887969     0.539819     0.641206    Uiso  ? Al
   Al13       1.0     0.105080     0.423356     0.888377    Uiso  ? Al
   Al14       1.0     0.217669     0.533358     0.641350    Uiso  ? Al
   Al15       1.0     0.787822     0.422367     0.392964    Uiso  ? Al
   Al16       1.0     0.888994     0.534863     0.140398    Uiso  ? Al
   Al17       1.0     0.446917     0.433028     0.898489    Uiso  ? Al
   Al18       1.0     0.230860     0.882919     0.137658    Uiso  ? Al
   Al19       1.0     0.772991     0.754456     0.889952    Uiso  ? Al
   Al20       1.0     0.883998     0.871070     0.605615    Uiso  ? Al
   Al21       1.0     0.449802     0.760929     0.392564    Uiso  ? Al
   Al22       1.0     0.557334     0.864923     0.134723    Uiso  ? Al
   Al23       1.0     0.228978     0.882711     0.638667    Uiso  ? Al
   Al24       1.0     0.880324     0.872939     0.100950    Uiso  ? Al
   Al25       1.0     0.450314     0.760357     0.890956    Uiso  ? Al
   Al26       1.0     0.557013     0.863951     0.644611    Uiso  ? Al
   Hf1        1.0     0.442536     0.087777     0.364366    Uiso  ? Hf
   Hf2        1.0     0.553059     0.206496     0.624050    Uiso  ? Hf
   Hf3        1.0     0.451483     0.426150     0.362936    Uiso  ? Hf
   Hf4        1.0     0.113598     0.762993     0.381973    Uiso  ? Hf
   Hf5        1.0     0.116159     0.761795     0.879575    Uiso  ? Hf
   Mg1        1.0     0.892487     0.213066     0.127382    Uiso  ? Mg
   Mg2        1.0     0.433644     0.086252     0.888583    Uiso  ? Mg
   Mg3        1.0     0.563316     0.546161     0.126681    Uiso  ? Mg
   Mg4        1.0     0.556963     0.545538     0.637864    Uiso  ? Mg
   Mg5        1.0     0.778758     0.749411     0.384920    Uiso  ? Mg
   N1         1.0     0.200422     0.214325     0.330233    Uiso  ? N
   N2         1.0     0.126603     0.089392     0.077764    Uiso  ? N
   N3         1.0     0.893859     0.209880     0.839149    Uiso  ? N
   N4         1.0     0.796635     0.084129     0.641631    Uiso  ? N
   N5         1.0     0.583382     0.188911     0.394905    Uiso  ? N
   N6         1.0     0.443259     0.096564     0.114477    Uiso  ? N
   N7         1.0     0.205100     0.215851     0.828330    Uiso  ? N
   N8         1.0     0.110875     0.095233     0.581532    Uiso  ? N
   N9         1.0     0.887846     0.206407     0.342770    Uiso  ? N
   N10        1.0     0.767387     0.089446     0.125161    Uiso  ? N
   N11        1.0     0.560304     0.211524     0.862783    Uiso  ? N
   N12        1.0     0.432019     0.086275     0.586886    Uiso  ? N
   N13        1.0     0.207688     0.527834     0.324966    Uiso  ? N
   N14        1.0     0.109216     0.427122     0.078761    Uiso  ? N
   N15        1.0     0.891230     0.540935     0.831582    Uiso  ? N
   N16        1.0     0.794917     0.420464     0.585329    Uiso  ? N
   N17        1.0     0.567246     0.546498     0.343730    Uiso  ? N
   N18        1.0     0.437193     0.420125     0.099313    Uiso  ? N
   N19        1.0     0.230903     0.520642     0.834760    Uiso  ? N
   N20        1.0     0.109636     0.428685     0.582580    Uiso  ? N
   N21        1.0     0.895564     0.522218     0.329485    Uiso  ? N
   N22        1.0     0.788105     0.437232     0.074025    Uiso  ? N
   N23        1.0     0.551149     0.540442     0.849008    Uiso  ? N
   N24        1.0     0.422390     0.443060     0.575925    Uiso  ? N
   N25        1.0     0.229615     0.884186     0.331176    Uiso  ? N
   N26        1.0     0.115449     0.759697     0.097054    Uiso  ? N
   N27        1.0     0.875849     0.878751     0.873625    Uiso  ? N
   N28        1.0     0.776031     0.761210     0.596087    Uiso  ? N
   N29        1.0     0.553634     0.857457     0.323983    Uiso  ? N
   N30        1.0     0.436151     0.778366     0.077549    Uiso  ? N
   N31        1.0     0.229501     0.885223     0.829306    Uiso  ? N
   N32        1.0     0.111849     0.760446     0.603180    Uiso  ? N
   N33        1.0     0.883096     0.883504     0.360230    Uiso  ? N
   N34        1.0     0.777230     0.756186     0.086070    Uiso  ? N
   N35        1.0     0.563293     0.856234     0.833198    Uiso  ? N
   N36        1.0     0.436587     0.777513     0.579834    Uiso  ? N
