
#======================================================================
# CRYSTAL DATA
#----------------------------------------------------------------------
data_VESTA_phase_1

_chemical_name_common                  'Al   Hf   Mg   N                      '
_cell_length_a                         9.871759
_cell_length_b                         9.833915
_cell_length_c                         10.056366
_cell_angle_alpha                      90.142548
_cell_angle_beta                       90.012009
_cell_angle_gamma                      59.897316
_cell_volume                           844.579909
_space_group_name_H-M_alt              'P 1'
_space_group_IT_number                 1

loop_
_space_group_symop_operation_xyz
   'x, y, z'

loop_
   _atom_site_label
   _atom_site_occupancy
   _atom_site_fract_x
   _atom_site_fract_y
   _atom_site_fract_z
   _atom_site_adp_type
   _atom_site_U_iso_or_equiv
   _atom_site_type_symbol
   Al1        1.0     0.105705     0.098387     0.380826    Uiso  ? Al
   Al2        1.0     0.212178     0.212186     0.131014    Uiso  ? Al
   Al3        1.0     0.788101     0.097508     0.824291    Uiso  ? Al
   Al4        1.0     0.887798     0.209736     0.571638    Uiso  ? Al
   Al5        1.0     0.562145     0.195290     0.071783    Uiso  ? Al
   Al6        1.0     0.112742     0.100764     0.885341    Uiso  ? Al
   Al7        1.0     0.208878     0.207655     0.636544    Uiso  ? Al
   Al8        1.0     0.782835     0.094745     0.319716    Uiso  ? Al
   Al9        1.0     0.101485     0.423495     0.387868    Uiso  ? Al
   Al10       1.0     0.222100     0.524739     0.109953    Uiso  ? Al
   Al11       1.0     0.786693     0.420688     0.821777    Uiso  ? Al
   Al12       1.0     0.881928     0.537962     0.574217    Uiso  ? Al
   Al13       1.0     0.111850     0.418979     0.879522    Uiso  ? Al
   Al14       1.0     0.215798     0.537168     0.628614    Uiso  ? Al
   Al15       1.0     0.788911     0.427711     0.313263    Uiso  ? Al
   Al16       1.0     0.883785     0.543361     0.064738    Uiso  ? Al
   Al17       1.0     0.453091     0.428834     0.892272    Uiso  ? Al
   Al18       1.0     0.239077     0.885157     0.124463    Uiso  ? Al
   Al19       1.0     0.777373     0.756316     0.817497    Uiso  ? Al
   Al20       1.0     0.888977     0.871664     0.573498    Uiso  ? Al
   Al21       1.0     0.448336     0.760379     0.386231    Uiso  ? Al
   Al22       1.0     0.558781     0.866801     0.130719    Uiso  ? Al
   Al23       1.0     0.225571     0.881698     0.631526    Uiso  ? Al
   Al24       1.0     0.868151     0.878828     0.065849    Uiso  ? Al
   Al25       1.0     0.454181     0.759955     0.883668    Uiso  ? Al
   Al26       1.0     0.548346     0.869111     0.634971    Uiso  ? Al
   Hf1        1.0     0.439268     0.090817     0.360044    Uiso  ? Hf
   Hf2        1.0     0.551275     0.206779     0.618733    Uiso  ? Hf
   Hf3        1.0     0.448600     0.429449     0.357993    Uiso  ? Hf
   Hf4        1.0     0.102340     0.768576     0.314079    Uiso  ? Hf
   Hf5        1.0     0.113134     0.763946     0.849859    Uiso  ? Hf
   Mg1        1.0     0.887623     0.207153     0.079154    Uiso  ? Mg
   Mg2        1.0     0.434642     0.086366     0.884424    Uiso  ? Mg
   Mg3        1.0     0.564448     0.544646     0.109645    Uiso  ? Mg
   Mg4        1.0     0.551792     0.547902     0.629557    Uiso  ? Mg
   Mg5        1.0     0.784768     0.749474     0.327302    Uiso  ? Mg
   N1         1.0     0.197025     0.216557     0.321967    Uiso  ? N
   N2         1.0     0.129900     0.089764     0.072779    Uiso  ? N
   N3         1.0     0.892070     0.202954     0.869130    Uiso  ? N
   N4         1.0     0.797005     0.085550     0.632833    Uiso  ? N
   N5         1.0     0.580332     0.191101     0.389932    Uiso  ? N
   N6         1.0     0.443805     0.097442     0.109081    Uiso  ? N
   N7         1.0     0.206113     0.212596     0.821535    Uiso  ? N
   N8         1.0     0.112911     0.092864     0.571765    Uiso  ? N
   N9         1.0     0.881803     0.208242     0.373426    Uiso  ? N
   N10        1.0     0.769591     0.085648     0.131296    Uiso  ? N
   N11        1.0     0.564136     0.208267     0.855264    Uiso  ? N
   N12        1.0     0.429312     0.088041     0.578905    Uiso  ? N
   N13        1.0     0.206289     0.527670     0.318693    Uiso  ? N
   N14        1.0     0.113269     0.423054     0.070760    Uiso  ? N
   N15        1.0     0.887533     0.541824     0.869974    Uiso  ? N
   N16        1.0     0.794334     0.417430     0.633047    Uiso  ? N
   N17        1.0     0.562970     0.548481     0.336411    Uiso  ? N
   N18        1.0     0.442205     0.417218     0.092662    Uiso  ? N
   N19        1.0     0.235477     0.518807     0.839953    Uiso  ? N
   N20        1.0     0.115719     0.424643     0.581245    Uiso  ? N
   N21        1.0     0.888000     0.526745     0.387555    Uiso  ? N
   N22        1.0     0.797193     0.431977     0.129481    Uiso  ? N
   N23        1.0     0.556028     0.538270     0.848422    Uiso  ? N
   N24        1.0     0.422163     0.443280     0.570884    Uiso  ? N
   N25        1.0     0.230761     0.882535     0.319805    Uiso  ? N
   N26        1.0     0.111077     0.762757     0.094587    Uiso  ? N
   N27        1.0     0.870054     0.882212     0.876161    Uiso  ? N
   N28        1.0     0.781453     0.761213     0.622207    Uiso  ? N
   N29        1.0     0.548878     0.861187     0.321429    Uiso  ? N
   N30        1.0     0.442587     0.777878     0.068656    Uiso  ? N
   N31        1.0     0.234257     0.883814     0.824732    Uiso  ? N
   N32        1.0     0.108901     0.762308     0.623312    Uiso  ? N
   N33        1.0     0.882253     0.887187     0.385133    Uiso  ? N
   N34        1.0     0.781717     0.758440     0.114374    Uiso  ? N
   N35        1.0     0.559334     0.859702     0.822550    Uiso  ? N
   N36        1.0     0.433001     0.778151     0.571671    Uiso  ? N
