
#======================================================================
# CRYSTAL DATA
#----------------------------------------------------------------------
data_VESTA_phase_1

_chemical_name_common                  'Al   Hf   Mg   N                      '
_cell_length_a                         9.852263
_cell_length_b                         9.851068
_cell_length_c                         9.964503
_cell_angle_alpha                      89.845284
_cell_angle_beta                       89.978836
_cell_angle_gamma                      59.942776
_cell_volume                           837.053202
_space_group_name_H-M_alt              'P 1'
_space_group_IT_number                 1

loop_
_space_group_symop_operation_xyz
   'x, y, z'

loop_
   _atom_site_label
   _atom_site_occupancy
   _atom_site_fract_x
   _atom_site_fract_y
   _atom_site_fract_z
   _atom_site_adp_type
   _atom_site_U_iso_or_equiv
   _atom_site_type_symbol
   Al1        1.0     0.107043     0.099243     0.377373    Uiso  ? Al
   Al2        1.0     0.213951     0.210762     0.127753    Uiso  ? Al
   Al3        1.0     0.787567     0.099053     0.825674    Uiso  ? Al
   Al4        1.0     0.892803     0.206793     0.583868    Uiso  ? Al
   Al5        1.0     0.560494     0.196050     0.068194    Uiso  ? Al
   Al6        1.0     0.109260     0.103686     0.884116    Uiso  ? Al
   Al7        1.0     0.209566     0.208756     0.634274    Uiso  ? Al
   Al8        1.0     0.785921     0.091692     0.316873    Uiso  ? Al
   Al9        1.0     0.098506     0.425612     0.383077    Uiso  ? Al
   Al10       1.0     0.215392     0.531963     0.124148    Uiso  ? Al
   Al11       1.0     0.779516     0.429656     0.886818    Uiso  ? Al
   Al12       1.0     0.886681     0.539863     0.634636    Uiso  ? Al
   Al13       1.0     0.105047     0.422746     0.880773    Uiso  ? Al
   Al14       1.0     0.217884     0.532122     0.634193    Uiso  ? Al
   Al15       1.0     0.784337     0.429602     0.379401    Uiso  ? Al
   Al16       1.0     0.889751     0.536196     0.131404    Uiso  ? Al
   Al17       1.0     0.447224     0.431681     0.891625    Uiso  ? Al
   Al18       1.0     0.231335     0.880529     0.127838    Uiso  ? Al
   Al19       1.0     0.771723     0.754630     0.879225    Uiso  ? Al
   Al20       1.0     0.880349     0.875811     0.578597    Uiso  ? Al
   Al21       1.0     0.451324     0.760254     0.384477    Uiso  ? Al
   Al22       1.0     0.558284     0.864729     0.127059    Uiso  ? Al
   Al23       1.0     0.230694     0.883146     0.631558    Uiso  ? Al
   Al24       1.0     0.878334     0.876333     0.072973    Uiso  ? Al
   Al25       1.0     0.450310     0.760684     0.883804    Uiso  ? Al
   Al26       1.0     0.557047     0.863867     0.636871    Uiso  ? Al
   Hf1        1.0     0.443054     0.087762     0.357265    Uiso  ? Hf
   Hf2        1.0     0.550236     0.207794     0.618234    Uiso  ? Hf
   Hf3        1.0     0.451717     0.425574     0.353687    Uiso  ? Hf
   Hf4        1.0     0.117843     0.761114     0.378205    Uiso  ? Hf
   Hf5        1.0     0.115213     0.762485     0.864018    Uiso  ? Hf
   Mg1        1.0     0.889894     0.206878     0.097701    Uiso  ? Mg
   Mg2        1.0     0.433538     0.086373     0.881488    Uiso  ? Mg
   Mg3        1.0     0.561451     0.546907     0.116508    Uiso  ? Mg
   Mg4        1.0     0.557407     0.545011     0.632311    Uiso  ? Mg
   Mg5        1.0     0.779394     0.749304     0.377972    Uiso  ? Mg
   N1         1.0     0.201441     0.215661     0.321608    Uiso  ? N
   N2         1.0     0.128301     0.088401     0.073555    Uiso  ? N
   N3         1.0     0.891866     0.207657     0.852390    Uiso  ? N
   N4         1.0     0.795458     0.086171     0.631812    Uiso  ? N
   N5         1.0     0.582857     0.188959     0.388396    Uiso  ? N
   N6         1.0     0.443929     0.096183     0.106861    Uiso  ? N
   N7         1.0     0.204703     0.215392     0.821598    Uiso  ? N
   N8         1.0     0.114710     0.092972     0.570694    Uiso  ? N
   N9         1.0     0.886774     0.203703     0.361151    Uiso  ? N
   N10        1.0     0.768324     0.085107     0.127738    Uiso  ? N
   N11        1.0     0.562119     0.210381     0.855040    Uiso  ? N
   N12        1.0     0.430532     0.086985     0.579651    Uiso  ? N
   N13        1.0     0.207564     0.529024     0.316898    Uiso  ? N
   N14        1.0     0.109495     0.427461     0.070829    Uiso  ? N
   N15        1.0     0.890776     0.539879     0.825382    Uiso  ? N
   N16        1.0     0.791393     0.425729     0.573949    Uiso  ? N
   N17        1.0     0.565470     0.547610     0.332904    Uiso  ? N
   N18        1.0     0.437416     0.418495     0.092626    Uiso  ? N
   N19        1.0     0.231608     0.519298     0.827383    Uiso  ? N
   N20        1.0     0.108642     0.428868     0.575319    Uiso  ? N
   N21        1.0     0.897140     0.524232     0.320306    Uiso  ? N
   N22        1.0     0.787315     0.437545     0.072127    Uiso  ? N
   N23        1.0     0.551145     0.540283     0.844095    Uiso  ? N
   N24        1.0     0.421634     0.443578     0.567545    Uiso  ? N
   N25        1.0     0.231686     0.881913     0.322113    Uiso  ? N
   N26        1.0     0.114796     0.760528     0.085205    Uiso  ? N
   N27        1.0     0.873254     0.883422     0.873032    Uiso  ? N
   N28        1.0     0.775433     0.761425     0.591225    Uiso  ? N
   N29        1.0     0.555178     0.857476     0.316907    Uiso  ? N
   N30        1.0     0.436593     0.778996     0.070001    Uiso  ? N
   N31        1.0     0.230538     0.885542     0.822126    Uiso  ? N
   N32        1.0     0.112986     0.760182     0.600080    Uiso  ? N
   N33        1.0     0.884947     0.886563     0.380306    Uiso  ? N
   N34        1.0     0.777016     0.756911     0.077219    Uiso  ? N
   N35        1.0     0.562098     0.857083     0.825284    Uiso  ? N
   N36        1.0     0.437238     0.776623     0.571853    Uiso  ? N
