
#======================================================================
# CRYSTAL DATA
#----------------------------------------------------------------------
data_VESTA_phase_1

_chemical_name_common                  'Al   Hf   Mg   N                      '
_cell_length_a                         9.848554
_cell_length_b                         9.848762
_cell_length_c                         9.967760
_cell_angle_alpha                      89.867340
_cell_angle_beta                       89.986298
_cell_angle_gamma                      59.928951
_cell_volume                           836.699491
_space_group_name_H-M_alt              'P 1'
_space_group_IT_number                 1

loop_
_space_group_symop_operation_xyz
   'x, y, z'

loop_
   _atom_site_label
   _atom_site_occupancy
   _atom_site_fract_x
   _atom_site_fract_y
   _atom_site_fract_z
   _atom_site_adp_type
   _atom_site_U_iso_or_equiv
   _atom_site_type_symbol
   Al1        1.0     0.103683     0.101081     0.379042    Uiso  ? Al
   Al2        1.0     0.213476     0.210614     0.127636    Uiso  ? Al
   Al3        1.0     0.786255     0.097993     0.826404    Uiso  ? Al
   Al4        1.0     0.895334     0.208342     0.609910    Uiso  ? Al
   Al5        1.0     0.560224     0.196218     0.068172    Uiso  ? Al
   Al6        1.0     0.109416     0.103956     0.883300    Uiso  ? Al
   Al7        1.0     0.210327     0.208800     0.633936    Uiso  ? Al
   Al8        1.0     0.786039     0.091962     0.316841    Uiso  ? Al
   Al9        1.0     0.098367     0.425491     0.382642    Uiso  ? Al
   Al10       1.0     0.215337     0.531958     0.124184    Uiso  ? Al
   Al11       1.0     0.779480     0.430177     0.884936    Uiso  ? Al
   Al12       1.0     0.886961     0.540457     0.634048    Uiso  ? Al
   Al13       1.0     0.105091     0.422887     0.880744    Uiso  ? Al
   Al14       1.0     0.217936     0.532227     0.633972    Uiso  ? Al
   Al15       1.0     0.785975     0.426347     0.382159    Uiso  ? Al
   Al16       1.0     0.889464     0.535427     0.131489    Uiso  ? Al
   Al17       1.0     0.447299     0.431898     0.891672    Uiso  ? Al
   Al18       1.0     0.230802     0.881012     0.127748    Uiso  ? Al
   Al19       1.0     0.771775     0.754383     0.879517    Uiso  ? Al
   Al20       1.0     0.880268     0.875771     0.577738    Uiso  ? Al
   Al21       1.0     0.451199     0.760328     0.384257    Uiso  ? Al
   Al22       1.0     0.558097     0.864769     0.126960    Uiso  ? Al
   Al23       1.0     0.230728     0.882917     0.631375    Uiso  ? Al
   Al24       1.0     0.878366     0.876065     0.073266    Uiso  ? Al
   Al25       1.0     0.450401     0.760475     0.883707    Uiso  ? Al
   Al26       1.0     0.557141     0.863822     0.636747    Uiso  ? Al
   Hf1        1.0     0.442619     0.087722     0.357013    Uiso  ? Hf
   Hf2        1.0     0.550373     0.207697     0.617343    Uiso  ? Hf
   Hf3        1.0     0.451907     0.425495     0.353420    Uiso  ? Hf
   Hf4        1.0     0.117963     0.761269     0.377939    Uiso  ? Hf
   Hf5        1.0     0.115412     0.762249     0.864189    Uiso  ? Hf
   Mg1        1.0     0.890769     0.208640     0.110529    Uiso  ? Mg
   Mg2        1.0     0.433617     0.086362     0.881562    Uiso  ? Mg
   Mg3        1.0     0.562543     0.546457     0.117201    Uiso  ? Mg
   Mg4        1.0     0.556974     0.545274     0.631490    Uiso  ? Mg
   Mg5        1.0     0.779349     0.749012     0.377283    Uiso  ? Mg
   N1         1.0     0.201027     0.215268     0.321584    Uiso  ? N
   N2         1.0     0.126804     0.088987     0.071493    Uiso  ? N
   N3         1.0     0.893149     0.209091     0.836613    Uiso  ? N
   N4         1.0     0.794769     0.085105     0.632049    Uiso  ? N
   N5         1.0     0.582713     0.188764     0.388188    Uiso  ? N
   N6         1.0     0.443502     0.096251     0.106693    Uiso  ? N
   N7         1.0     0.204987     0.215589     0.821258    Uiso  ? N
   N8         1.0     0.113622     0.093638     0.571602    Uiso  ? N
   N9         1.0     0.887198     0.204909     0.349312    Uiso  ? N
   N10        1.0     0.768144     0.085116     0.126306    Uiso  ? N
   N11        1.0     0.561990     0.210642     0.855448    Uiso  ? N
   N12        1.0     0.430627     0.086789     0.579429    Uiso  ? N
   N13        1.0     0.207486     0.529027     0.316699    Uiso  ? N
   N14        1.0     0.109325     0.427425     0.070788    Uiso  ? N
   N15        1.0     0.891069     0.540204     0.824626    Uiso  ? N
   N16        1.0     0.792327     0.424470     0.575007    Uiso  ? N
   N17        1.0     0.566279     0.547138     0.333730    Uiso  ? N
   N18        1.0     0.437495     0.418791     0.092625    Uiso  ? N
   N19        1.0     0.231745     0.519229     0.827249    Uiso  ? N
   N20        1.0     0.108855     0.428874     0.574929    Uiso  ? N
   N21        1.0     0.896514     0.523460     0.320491    Uiso  ? N
   N22        1.0     0.788161     0.436220     0.069000    Uiso  ? N
   N23        1.0     0.551128     0.540259     0.843073    Uiso  ? N
   N24        1.0     0.421587     0.443680     0.567200    Uiso  ? N
   N25        1.0     0.231201     0.882749     0.322095    Uiso  ? N
   N26        1.0     0.114823     0.760451     0.085169    Uiso  ? N
   N27        1.0     0.873446     0.883131     0.873559    Uiso  ? N
   N28        1.0     0.775301     0.761445     0.590514    Uiso  ? N
   N29        1.0     0.555035     0.857455     0.316544    Uiso  ? N
   N30        1.0     0.436475     0.778771     0.069939    Uiso  ? N
   N31        1.0     0.230446     0.885527     0.821927    Uiso  ? N
   N32        1.0     0.112946     0.760236     0.599817    Uiso  ? N
   N33        1.0     0.884914     0.886458     0.379700    Uiso  ? N
   N34        1.0     0.777044     0.756357     0.077344    Uiso  ? N
   N35        1.0     0.562204     0.856985     0.825203    Uiso  ? N
   N36        1.0     0.437163     0.776855     0.571623    Uiso  ? N
