
#======================================================================
# CRYSTAL DATA
#----------------------------------------------------------------------
data_VESTA_phase_1

_chemical_name_common                  'Al   Hf   Mg   N '
_cell_length_a                         9.752892
_cell_length_b                         9.745039
_cell_length_c                         10.125665
_cell_angle_alpha                      89.980919
_cell_angle_beta                       89.924232
_cell_angle_gamma                      60.086651
_cell_volume                           834.159850
_space_group_name_H-M_alt              'P 1'
_space_group_IT_number                 1

loop_
_space_group_symop_operation_xyz
   'x, y, z'

loop_
   _atom_site_label
   _atom_site_occupancy
   _atom_site_fract_x
   _atom_site_fract_y
   _atom_site_fract_z
   _atom_site_adp_type
   _atom_site_U_iso_or_equiv
   _atom_site_type_symbol
   Al1        1.0     0.105714     0.100636     0.301655    Uiso  ? Al
   Al2        1.0     0.214005     0.208660     0.047880    Uiso  ? Al
   Al3        1.0     0.786071     0.098310     0.805979    Uiso  ? Al
   Al4        1.0     0.896457     0.205478     0.553241    Uiso  ? Al
   Al5        1.0     0.558517     0.201800     0.037117    Uiso  ? Al
   Al6        1.0     0.105456     0.104422     0.800798    Uiso  ? Al
   Al7        1.0     0.212152     0.208792     0.555494    Uiso  ? Al
   Al8        1.0     0.784441     0.095025     0.298294    Uiso  ? Al
   Al9        1.0     0.098337     0.426220     0.300462    Uiso  ? Al
   Al10       1.0     0.223682     0.526153     0.048450    Uiso  ? Al
   Al11       1.0     0.781572     0.424169     0.800150    Uiso  ? Al
   Al12       1.0     0.890253     0.533777     0.554004    Uiso  ? Al
   Al13       1.0     0.105408     0.423155     0.802336    Uiso  ? Al
   Al14       1.0     0.212669     0.537939     0.558078    Uiso  ? Al
   Al15       1.0     0.785747     0.429699     0.299074    Uiso  ? Al
   Al16       1.0     0.886650     0.540766     0.050325    Uiso  ? Al
   Al17       1.0     0.447038     0.432199     0.802524    Uiso  ? Al
   Al18       1.0     0.231703     0.883200     0.051899    Uiso  ? Al
   Al19       1.0     0.772972     0.757082     0.802745    Uiso  ? Al
   Al20       1.0     0.888098     0.870424     0.554243    Uiso  ? Al
   Al21       1.0     0.448969     0.761412     0.298538    Uiso  ? Al
   Al22       1.0     0.561215     0.863371     0.045421    Uiso  ? Al
   Al23       1.0     0.226829     0.878489     0.554574    Uiso  ? Al
   Al24       1.0     0.871939     0.877951     0.049972    Uiso  ? Al
   Al25       1.0     0.451251     0.759727     0.799571    Uiso  ? Al
   Al26       1.0     0.552573     0.866346     0.556206    Uiso  ? Al
   Hf1        1.0     0.443094     0.089416     0.302670    Uiso  ? Hf
   Hf2        1.0     0.559763     0.200585     0.582529    Uiso  ? Hf
   Hf3        1.0     0.449854     0.427802     0.305508    Uiso  ? Hf
   Hf4        1.0     0.106687     0.767029     0.298863    Uiso  ? Hf
   Hf5        1.0     0.111606     0.763422     0.814780    Uiso  ? Hf
   Mg1        1.0     0.890459     0.208567     0.055714    Uiso  ? Mg
   Mg2        1.0     0.436159     0.088184     0.812429    Uiso  ? Mg
   Mg3        1.0     0.562828     0.541928     0.049030    Uiso  ? Mg
   Mg4        1.0     0.560605     0.545589     0.563765    Uiso  ? Mg
   Mg5        1.0     0.778241     0.752012     0.303199    Uiso  ? Mg
   N1         1.0     0.206859     0.213536     0.364191    Uiso  ? N
   N2         1.0     0.125793     0.089278     0.117904    Uiso  ? N
   N3         1.0     0.891595     0.204867     0.851818    Uiso  ? N
   N4         1.0     0.803776     0.080955     0.616214    Uiso  ? N
   N5         1.0     0.574093     0.195406     0.370019    Uiso  ? N
   N6         1.0     0.444495     0.094852     0.092202    Uiso  ? N
   N7         1.0     0.202553     0.215567     0.862693    Uiso  ? N
   N8         1.0     0.111783     0.093937     0.609428    Uiso  ? N
   N9         1.0     0.888629     0.204988     0.359295    Uiso  ? N
   N10        1.0     0.766027     0.089211     0.111869    Uiso  ? N
   N11        1.0     0.564261     0.211037     0.841435    Uiso  ? N
   N12        1.0     0.431881     0.088217     0.595105    Uiso  ? N
   N13        1.0     0.211055     0.532740     0.365903    Uiso  ? N
   N14        1.0     0.110475     0.428288     0.111383    Uiso  ? N
   N15        1.0     0.890111     0.539680     0.857989    Uiso  ? N
   N16        1.0     0.796175     0.416590     0.612787    Uiso  ? N
   N17        1.0     0.563878     0.546846     0.352184    Uiso  ? N
   N18        1.0     0.438768     0.416069     0.102157    Uiso  ? N
   N19        1.0     0.228742     0.521874     0.860329    Uiso  ? N
   N20        1.0     0.109410     0.427465     0.613245    Uiso  ? N
   N21        1.0     0.897029     0.525076     0.368844    Uiso  ? N
   N22        1.0     0.788408     0.435755     0.116424    Uiso  ? N
   N23        1.0     0.555814     0.539775     0.841947    Uiso  ? N
   N24        1.0     0.424085     0.439973     0.609522    Uiso  ? N
   N25        1.0     0.227872     0.879582     0.363516    Uiso  ? N
   N26        1.0     0.111027     0.761577     0.087205    Uiso  ? N
   N27        1.0     0.871968     0.881094     0.860214    Uiso  ? N
   N28        1.0     0.777072     0.761350     0.609596    Uiso  ? N
   N29        1.0     0.549777     0.864324     0.368347    Uiso  ? N
   N30        1.0     0.438820     0.776416     0.113748    Uiso  ? N
   N31        1.0     0.230298     0.884310     0.862133    Uiso  ? N
   N32        1.0     0.111158     0.760770     0.603023    Uiso  ? N
   N33        1.0     0.881638     0.886816     0.366434    Uiso  ? N
   N34        1.0     0.778295     0.760177     0.099231    Uiso  ? N
   N35        1.0     0.564214     0.854553     0.860365    Uiso  ? N
   N36        1.0     0.433695     0.777464     0.615006    Uiso  ? N
