
#======================================================================
# CRYSTAL DATA
#----------------------------------------------------------------------
data_VESTA_phase_1

_chemical_name_common                  'Al   Hf   Mg   N                      '
_cell_length_a                         9.753121
_cell_length_b                         9.745196
_cell_length_c                         10.125051
_cell_angle_alpha                      89.981743
_cell_angle_beta                       89.924751
_cell_angle_gamma                      60.087521
_cell_volume                           834.149671
_space_group_name_H-M_alt              'P 1'
_space_group_IT_number                 1

loop_
_space_group_symop_operation_xyz
   'x, y, z'

loop_
   _atom_site_label
   _atom_site_occupancy
   _atom_site_fract_x
   _atom_site_fract_y
   _atom_site_fract_z
   _atom_site_adp_type
   _atom_site_U_iso_or_equiv
   _atom_site_type_symbol
   Al1        1.0     0.105731     0.100632     0.310476    Uiso  ? Al
   Al2        1.0     0.214008     0.208663     0.056691    Uiso  ? Al
   Al3        1.0     0.786087     0.098315     0.814789    Uiso  ? Al
   Al4        1.0     0.896466     0.205482     0.562046    Uiso  ? Al
   Al5        1.0     0.558520     0.201807     0.045931    Uiso  ? Al
   Al6        1.0     0.105458     0.104428     0.809600    Uiso  ? Al
   Al7        1.0     0.212160     0.208796     0.564309    Uiso  ? Al
   Al8        1.0     0.784451     0.095023     0.307112    Uiso  ? Al
   Al9        1.0     0.098346     0.426226     0.309275    Uiso  ? Al
   Al10       1.0     0.223718     0.526116     0.057265    Uiso  ? Al
   Al11       1.0     0.781591     0.424169     0.808972    Uiso  ? Al
   Al12       1.0     0.890267     0.533779     0.562815    Uiso  ? Al
   Al13       1.0     0.105418     0.423157     0.811144    Uiso  ? Al
   Al14       1.0     0.212659     0.537968     0.566899    Uiso  ? Al
   Al15       1.0     0.785757     0.429702     0.307878    Uiso  ? Al
   Al16       1.0     0.886657     0.540772     0.059135    Uiso  ? Al
   Al17       1.0     0.447042     0.432205     0.811310    Uiso  ? Al
   Al18       1.0     0.231731     0.883211     0.060700    Uiso  ? Al
   Al19       1.0     0.772977     0.757087     0.811546    Uiso  ? Al
   Al20       1.0     0.888132     0.870423     0.563067    Uiso  ? Al
   Al21       1.0     0.448982     0.761405     0.307367    Uiso  ? Al
   Al22       1.0     0.561228     0.863357     0.054238    Uiso  ? Al
   Al23       1.0     0.226828     0.878481     0.563405    Uiso  ? Al
   Al24       1.0     0.871911     0.877966     0.058774    Uiso  ? Al
   Al25       1.0     0.451259     0.759727     0.808378    Uiso  ? Al
   Al26       1.0     0.552579     0.866347     0.565019    Uiso  ? Al
   Hf1        1.0     0.443106     0.089417     0.311486    Uiso  ? Hf
   Hf2        1.0     0.559775     0.200564     0.591376    Uiso  ? Hf
   Hf3        1.0     0.449862     0.427800     0.314387    Uiso  ? Hf
   Hf4        1.0     0.106701     0.767036     0.307624    Uiso  ? Hf
   Hf5        1.0     0.111610     0.763421     0.823671    Uiso  ? Hf
   Mg1        1.0     0.890471     0.208563     0.064540    Uiso  ? Mg
   Mg2        1.0     0.436157     0.088176     0.821260    Uiso  ? Mg
   Mg3        1.0     0.562827     0.541915     0.057856    Uiso  ? Mg
   Mg4        1.0     0.560634     0.545583     0.572607    Uiso  ? Mg
   Mg5        1.0     0.778259     0.752017     0.312032    Uiso  ? Mg
   N1         1.0     0.206872     0.213543     0.372995    Uiso  ? N
   N2         1.0     0.125806     0.089276     0.126713    Uiso  ? N
   N3         1.0     0.891608     0.204869     0.860633    Uiso  ? N
   N4         1.0     0.803792     0.080961     0.625014    Uiso  ? N
   N5         1.0     0.574118     0.195385     0.378845    Uiso  ? N
   N6         1.0     0.444502     0.094849     0.100998    Uiso  ? N
   N7         1.0     0.202553     0.215574     0.871493    Uiso  ? N
   N8         1.0     0.111789     0.093941     0.618226    Uiso  ? N
   N9         1.0     0.888643     0.204992     0.368091    Uiso  ? N
   N10        1.0     0.766026     0.089215     0.120674    Uiso  ? N
   N11        1.0     0.564267     0.211043     0.850218    Uiso  ? N
   N12        1.0     0.431881     0.088211     0.603916    Uiso  ? N
   N13        1.0     0.211036     0.532778     0.374707    Uiso  ? N
   N14        1.0     0.110480     0.428286     0.120186    Uiso  ? N
   N15        1.0     0.890126     0.539691     0.866792    Uiso  ? N
   N16        1.0     0.796200     0.416588     0.621601    Uiso  ? N
   N17        1.0     0.563903     0.546841     0.361005    Uiso  ? N
   N18        1.0     0.438779     0.416054     0.111012    Uiso  ? N
   N19        1.0     0.228777     0.521846     0.869134    Uiso  ? N
   N20        1.0     0.109419     0.427471     0.622047    Uiso  ? N
   N21        1.0     0.897041     0.525075     0.377645    Uiso  ? N
   N22        1.0     0.788412     0.435759     0.125216    Uiso  ? N
   N23        1.0     0.555821     0.539772     0.850743    Uiso  ? N
   N24        1.0     0.424096     0.439966     0.618283    Uiso  ? N
   N25        1.0     0.227880     0.879573     0.372328    Uiso  ? N
   N26        1.0     0.111033     0.761575     0.095944    Uiso  ? N
   N27        1.0     0.871951     0.881111     0.869013    Uiso  ? N
   N28        1.0     0.777082     0.761357     0.618391    Uiso  ? N
   N29        1.0     0.549791     0.864326     0.377150    Uiso  ? N
   N30        1.0     0.438831     0.776405     0.122561    Uiso  ? N
   N31        1.0     0.230315     0.884323     0.870929    Uiso  ? N
   N32        1.0     0.111168     0.760774     0.611890    Uiso  ? N
   N33        1.0     0.881680     0.886810     0.375238    Uiso  ? N
   N34        1.0     0.778298     0.760177     0.108048    Uiso  ? N
   N35        1.0     0.564228     0.854544     0.869170    Uiso  ? N
   N36        1.0     0.433703     0.777462     0.623805    Uiso  ? N
