
#======================================================================
# CRYSTAL DATA
#----------------------------------------------------------------------
data_VESTA_phase_1

_chemical_name_common                  'Al   Hf   Mg   N '
_cell_length_a                         9.809233
_cell_length_b                         9.780795
_cell_length_c                         10.183596
_cell_angle_alpha                      90.155708
_cell_angle_beta                       90.017540
_cell_angle_gamma                      60.005093
_cell_volume                           846.177235
_space_group_name_H-M_alt              'P 1'
_space_group_IT_number                 1

loop_
_space_group_symop_operation_xyz
   'x, y, z'

loop_
   _atom_site_label
   _atom_site_occupancy
   _atom_site_fract_x
   _atom_site_fract_y
   _atom_site_fract_z
   _atom_site_adp_type
   _atom_site_U_iso_or_equiv
   _atom_site_type_symbol
   Al1        1.0     0.105975     0.096322     0.381947    Uiso  ? Al
   Al2        1.0     0.217949     0.206377     0.128444    Uiso  ? Al
   Al3        1.0     0.787158     0.099897     0.825066    Uiso  ? Al
   Al4        1.0     0.889437     0.209534     0.571084    Uiso  ? Al
   Al5        1.0     0.560269     0.203538     0.063122    Uiso  ? Al
   Al6        1.0     0.111472     0.101440     0.887551    Uiso  ? Al
   Al7        1.0     0.211986     0.202271     0.637550    Uiso  ? Al
   Al8        1.0     0.783102     0.095879     0.318960    Uiso  ? Al
   Al9        1.0     0.094654     0.430939     0.316535    Uiso  ? Al
   Al10       1.0     0.226925     0.523837     0.065024    Uiso  ? Al
   Al11       1.0     0.785056     0.423040     0.818084    Uiso  ? Al
   Al12       1.0     0.892263     0.533929     0.570428    Uiso  ? Al
   Al13       1.0     0.104316     0.427815     0.817936    Uiso  ? Al
   Al14       1.0     0.212017     0.539032     0.576247    Uiso  ? Al
   Al15       1.0     0.784966     0.430437     0.317165    Uiso  ? Al
   Al16       1.0     0.886684     0.542986     0.067256    Uiso  ? Al
   Al17       1.0     0.447277     0.432000     0.822121    Uiso  ? Al
   Al18       1.0     0.236598     0.881712     0.123452    Uiso  ? Al
   Al19       1.0     0.777331     0.756571     0.817759    Uiso  ? Al
   Al20       1.0     0.890806     0.870590     0.572427    Uiso  ? Al
   Al21       1.0     0.444045     0.762158     0.388806    Uiso  ? Al
   Al22       1.0     0.557443     0.865586     0.129016    Uiso  ? Al
   Al23       1.0     0.224686     0.881517     0.632508    Uiso  ? Al
   Al24       1.0     0.868249     0.880780     0.066208    Uiso  ? Al
   Al25       1.0     0.450863     0.762778     0.880816    Uiso  ? Al
   Al26       1.0     0.548674     0.867794     0.635690    Uiso  ? Al
   Hf1        1.0     0.439708     0.090038     0.358802    Uiso  ? Hf
   Hf2        1.0     0.557733     0.198411     0.610180    Uiso  ? Hf
   Hf3        1.0     0.451811     0.426133     0.327254    Uiso  ? Hf
   Hf4        1.0     0.102845     0.761207     0.310293    Uiso  ? Hf
   Hf5        1.0     0.110294     0.762068     0.839788    Uiso  ? Hf
   Mg1        1.0     0.886015     0.211054     0.079933    Uiso  ? Mg
   Mg2        1.0     0.436473     0.087333     0.885235    Uiso  ? Mg
   Mg3        1.0     0.567383     0.534590     0.070378    Uiso  ? Mg
   Mg4        1.0     0.561425     0.542611     0.596983    Uiso  ? Mg
   Mg5        1.0     0.781995     0.750625     0.326032    Uiso  ? Mg
   N1         1.0     0.201263     0.209195     0.320560    Uiso  ? N
   N2         1.0     0.129059     0.088829     0.072472    Uiso  ? N
   N3         1.0     0.889918     0.207116     0.871535    Uiso  ? N
   N4         1.0     0.802590     0.082804     0.635790    Uiso  ? N
   N5         1.0     0.578293     0.197189     0.395438    Uiso  ? N
   N6         1.0     0.445484     0.098422     0.105343    Uiso  ? N
   N7         1.0     0.208948     0.208490     0.823944    Uiso  ? N
   N8         1.0     0.113768     0.091460     0.570412    Uiso  ? N
   N9         1.0     0.881606     0.209260     0.375352    Uiso  ? N
   N10        1.0     0.766964     0.089372     0.132799    Uiso  ? N
   N11        1.0     0.564479     0.210362     0.860025    Uiso  ? N
   N12        1.0     0.428543     0.085996     0.574578    Uiso  ? N
   N13        1.0     0.212721     0.529858     0.384730    Uiso  ? N
   N14        1.0     0.107131     0.436563     0.126241    Uiso  ? N
   N15        1.0     0.890809     0.540784     0.876375    Uiso  ? N
   N16        1.0     0.799287     0.417330     0.632508    Uiso  ? N
   N17        1.0     0.566382     0.542112     0.371808    Uiso  ? N
   N18        1.0     0.439918     0.417711     0.122714    Uiso  ? N
   N19        1.0     0.231567     0.518801     0.879096    Uiso  ? N
   N20        1.0     0.107430     0.432566     0.628283    Uiso  ? N
   N21        1.0     0.897187     0.524001     0.387063    Uiso  ? N
   N22        1.0     0.790344     0.437912     0.135520    Uiso  ? N
   N23        1.0     0.558220     0.538420     0.854673    Uiso  ? N
   N24        1.0     0.423277     0.437762     0.630325    Uiso  ? N
   N25        1.0     0.227947     0.878775     0.319204    Uiso  ? N
   N26        1.0     0.110998     0.761581     0.098246    Uiso  ? N
   N27        1.0     0.869178     0.883948     0.878336    Uiso  ? N
   N28        1.0     0.782438     0.760230     0.622493    Uiso  ? N
   N29        1.0     0.545457     0.859795     0.317945    Uiso  ? N
   N30        1.0     0.440876     0.776381     0.065632    Uiso  ? N
   N31        1.0     0.230998     0.884313     0.823658    Uiso  ? N
   N32        1.0     0.109857     0.759195     0.625256    Uiso  ? N
   N33        1.0     0.883006     0.887833     0.385572    Uiso  ? N
   N34        1.0     0.780906     0.760139     0.115365    Uiso  ? N
   N35        1.0     0.558701     0.860946     0.820628    Uiso  ? N
   N36        1.0     0.430343     0.781062     0.572190    Uiso  ? N
