
#======================================================================
# CRYSTAL DATA
#----------------------------------------------------------------------
data_VESTA_phase_1

_chemical_name_common                  'Al   Hf   Mg   N '
_cell_length_a                         9.802197
_cell_length_b                         9.768375
_cell_length_c                         10.146338
_cell_angle_alpha                      89.897987
_cell_angle_beta                       89.790108
_cell_angle_gamma                      60.127670
_cell_volume                           842.442070
_space_group_name_H-M_alt              'P 1'
_space_group_IT_number                 1

loop_
_space_group_symop_operation_xyz
   'x, y, z'

loop_
   _atom_site_label
   _atom_site_occupancy
   _atom_site_fract_x
   _atom_site_fract_y
   _atom_site_fract_z
   _atom_site_adp_type
   _atom_site_U_iso_or_equiv
   _atom_site_type_symbol
   Al1        1.0     0.103426     0.100304     0.320245    Uiso  ? Al
   Al2        1.0     0.211616     0.210735     0.073104    Uiso  ? Al
   Al3        1.0     0.786471     0.098790     0.826670    Uiso  ? Al
   Al4        1.0     0.895920     0.206427     0.572661    Uiso  ? Al
   Al5        1.0     0.560054     0.203620     0.064903    Uiso  ? Al
   Al6        1.0     0.104684     0.105901     0.820116    Uiso  ? Al
   Al7        1.0     0.209261     0.209698     0.572039    Uiso  ? Al
   Al8        1.0     0.785176     0.096253     0.319465    Uiso  ? Al
   Al9        1.0     0.096028     0.428477     0.320273    Uiso  ? Al
   Al10       1.0     0.224991     0.525839     0.069265    Uiso  ? Al
   Al11       1.0     0.785011     0.422691     0.820614    Uiso  ? Al
   Al12       1.0     0.891577     0.533904     0.573774    Uiso  ? Al
   Al13       1.0     0.107447     0.421349     0.823199    Uiso  ? Al
   Al14       1.0     0.212766     0.536951     0.578477    Uiso  ? Al
   Al15       1.0     0.786094     0.429983     0.320689    Uiso  ? Al
   Al16       1.0     0.886792     0.541590     0.070633    Uiso  ? Al
   Al17       1.0     0.446694     0.430209     0.824309    Uiso  ? Al
   Al18       1.0     0.225745     0.885038     0.067159    Uiso  ? Al
   Al19       1.0     0.779318     0.754812     0.821746    Uiso  ? Al
   Al20       1.0     0.889324     0.870489     0.573055    Uiso  ? Al
   Al21       1.0     0.449839     0.761323     0.397074    Uiso  ? Al
   Al22       1.0     0.556708     0.862611     0.130702    Uiso  ? Al
   Al23       1.0     0.218154     0.882269     0.576362    Uiso  ? Al
   Al24       1.0     0.870318     0.879118     0.069098    Uiso  ? Al
   Al25       1.0     0.455121     0.759199     0.883267    Uiso  ? Al
   Al26       1.0     0.549871     0.868905     0.639440    Uiso  ? Al
   Hf1        1.0     0.437939     0.096170     0.339493    Uiso  ? Hf
   Hf2        1.0     0.560027     0.197985     0.603663    Uiso  ? Hf
   Hf3        1.0     0.450276     0.430061     0.329399    Uiso  ? Hf
   Hf4        1.0     0.106113     0.766445     0.316647    Uiso  ? Hf
   Hf5        1.0     0.110565     0.761866     0.833999    Uiso  ? Hf
   Mg1        1.0     0.891849     0.207778     0.075947    Uiso  ? Mg
   Mg2        1.0     0.440243     0.088606     0.872653    Uiso  ? Mg
   Mg3        1.0     0.568206     0.532590     0.073988    Uiso  ? Mg
   Mg4        1.0     0.562546     0.540958     0.604286    Uiso  ? Mg
   Mg5        1.0     0.782021     0.751817     0.327481    Uiso  ? Mg
   N1         1.0     0.197580     0.217298     0.381642    Uiso  ? N
   N2         1.0     0.126102     0.087271     0.137260    Uiso  ? N
   N3         1.0     0.891825     0.205065     0.872530    Uiso  ? N
   N4         1.0     0.803600     0.081245     0.636723    Uiso  ? N
   N5         1.0     0.578326     0.198680     0.391761    Uiso  ? N
   N6         1.0     0.441888     0.100509     0.114329    Uiso  ? N
   N7         1.0     0.202235     0.215118     0.886041    Uiso  ? N
   N8         1.0     0.110713     0.096025     0.629926    Uiso  ? N
   N9         1.0     0.888823     0.205458     0.379692    Uiso  ? N
   N10        1.0     0.767706     0.089154     0.133110    Uiso  ? N
   N11        1.0     0.565502     0.210257     0.865103    Uiso  ? N
   N12        1.0     0.433742     0.084566     0.581196    Uiso  ? N
   N13        1.0     0.210837     0.532745     0.386881    Uiso  ? N
   N14        1.0     0.109324     0.430815     0.132048    Uiso  ? N
   N15        1.0     0.891377     0.539369     0.878758    Uiso  ? N
   N16        1.0     0.800057     0.415523     0.634226    Uiso  ? N
   N17        1.0     0.567895     0.542576     0.374638    Uiso  ? N
   N18        1.0     0.438997     0.417862     0.125048    Uiso  ? N
   N19        1.0     0.230282     0.520115     0.881661    Uiso  ? N
   N20        1.0     0.110834     0.425640     0.634082    Uiso  ? N
   N21        1.0     0.896444     0.525975     0.389332    Uiso  ? N
   N22        1.0     0.791711     0.434114     0.137728    Uiso  ? N
   N23        1.0     0.558604     0.536489     0.855841    Uiso  ? N
   N24        1.0     0.423018     0.436648     0.631867    Uiso  ? N
   N25        1.0     0.219230     0.882706     0.382211    Uiso  ? N
   N26        1.0     0.110898     0.762083     0.105031    Uiso  ? N
   N27        1.0     0.871568     0.881883     0.880227    Uiso  ? N
   N28        1.0     0.784963     0.758071     0.626115    Uiso  ? N
   N29        1.0     0.544073     0.862413     0.321273    Uiso  ? N
   N30        1.0     0.442445     0.772859     0.070881    Uiso  ? N
   N31        1.0     0.222967     0.887116     0.873084    Uiso  ? N
   N32        1.0     0.111139     0.759948     0.623367    Uiso  ? N
   N33        1.0     0.882433     0.887649     0.385886    Uiso  ? N
   N34        1.0     0.780140     0.759362     0.116655    Uiso  ? N
   N35        1.0     0.560728     0.859889     0.825161    Uiso  ? N
   N36        1.0     0.436118     0.777125     0.583106    Uiso  ? N
