
#======================================================================
# CRYSTAL DATA
#----------------------------------------------------------------------
data_VESTA_phase_1

_chemical_name_common                  'Al   Hf   Mg   N                      '
_cell_length_a                         9.869584
_cell_length_b                         9.865986
_cell_length_c                         9.929378
_cell_angle_alpha                      89.740646
_cell_angle_beta                       89.903740
_cell_angle_gamma                      59.937119
_cell_volume                           836.781200
_space_group_name_H-M_alt              'P 1'
_space_group_IT_number                 1

loop_
_space_group_symop_operation_xyz
   'x, y, z'

loop_
   _atom_site_label
   _atom_site_occupancy
   _atom_site_fract_x
   _atom_site_fract_y
   _atom_site_fract_z
   _atom_site_adp_type
   _atom_site_U_iso_or_equiv
   _atom_site_type_symbol
   Al1        1.0     0.108032     0.099116     0.375490    Uiso  ? Al
   Al2        1.0     0.215304     0.210459     0.128744    Uiso  ? Al
   Al3        1.0     0.788827     0.099297     0.824902    Uiso  ? Al
   Al4        1.0     0.887151     0.214482     0.569684    Uiso  ? Al
   Al5        1.0     0.560640     0.195027     0.068725    Uiso  ? Al
   Al6        1.0     0.110812     0.102220     0.886001    Uiso  ? Al
   Al7        1.0     0.207223     0.209131     0.633798    Uiso  ? Al
   Al8        1.0     0.785392     0.091502     0.317298    Uiso  ? Al
   Al9        1.0     0.097459     0.426034     0.384431    Uiso  ? Al
   Al10       1.0     0.216346     0.531634     0.125347    Uiso  ? Al
   Al11       1.0     0.781100     0.425823     0.873182    Uiso  ? Al
   Al12       1.0     0.885849     0.537828     0.640491    Uiso  ? Al
   Al13       1.0     0.107706     0.422193     0.881107    Uiso  ? Al
   Al14       1.0     0.217683     0.531893     0.633801    Uiso  ? Al
   Al15       1.0     0.785180     0.425212     0.305694    Uiso  ? Al
   Al16       1.0     0.894946     0.541019     0.125265    Uiso  ? Al
   Al17       1.0     0.445679     0.430390     0.891841    Uiso  ? Al
   Al18       1.0     0.232071     0.880495     0.129178    Uiso  ? Al
   Al19       1.0     0.771022     0.757636     0.878385    Uiso  ? Al
   Al20       1.0     0.880470     0.876505     0.580542    Uiso  ? Al
   Al21       1.0     0.453037     0.758396     0.384222    Uiso  ? Al
   Al22       1.0     0.558391     0.865456     0.128273    Uiso  ? Al
   Al23       1.0     0.229372     0.884753     0.630156    Uiso  ? Al
   Al24       1.0     0.878444     0.876670     0.072948    Uiso  ? Al
   Al25       1.0     0.448398     0.763932     0.884149    Uiso  ? Al
   Al26       1.0     0.556932     0.863673     0.636724    Uiso  ? Al
   Hf1        1.0     0.443301     0.088002     0.358446    Uiso  ? Hf
   Hf2        1.0     0.551356     0.207898     0.618714    Uiso  ? Hf
   Hf3        1.0     0.452013     0.426362     0.354669    Uiso  ? Hf
   Hf4        1.0     0.117064     0.761249     0.378264    Uiso  ? Hf
   Hf5        1.0     0.115344     0.762521     0.863003    Uiso  ? Hf
   Mg1        1.0     0.891602     0.198712     0.085058    Uiso  ? Mg
   Mg2        1.0     0.433167     0.086812     0.880677    Uiso  ? Mg
   Mg3        1.0     0.553487     0.549161     0.103950    Uiso  ? Mg
   Mg4        1.0     0.557544     0.544870     0.635129    Uiso  ? Mg
   Mg5        1.0     0.779442     0.747091     0.381651    Uiso  ? Mg
   N1         1.0     0.201854     0.216316     0.322675    Uiso  ? N
   N2         1.0     0.130839     0.087677     0.076449    Uiso  ? N
   N3         1.0     0.892037     0.202573     0.871107    Uiso  ? N
   N4         1.0     0.797006     0.087993     0.631108    Uiso  ? N
   N5         1.0     0.582595     0.189631     0.388511    Uiso  ? N
   N6         1.0     0.444305     0.095914     0.107272    Uiso  ? N
   N7         1.0     0.203694     0.215288     0.821987    Uiso  ? N
   N8         1.0     0.112214     0.094189     0.568880    Uiso  ? N
   N9         1.0     0.884513     0.207767     0.361375    Uiso  ? N
   N10        1.0     0.767684     0.084012     0.128969    Uiso  ? N
   N11        1.0     0.562612     0.209952     0.854618    Uiso  ? N
   N12        1.0     0.430373     0.087607     0.580860    Uiso  ? N
   N13        1.0     0.208087     0.528866     0.318524    Uiso  ? N
   N14        1.0     0.112676     0.426280     0.070852    Uiso  ? N
   N15        1.0     0.892642     0.541852     0.835216    Uiso  ? N
   N16        1.0     0.791337     0.419751     0.617063    Uiso  ? N
   N17        1.0     0.564198     0.548227     0.327342    Uiso  ? N
   N18        1.0     0.436705     0.416573     0.092674    Uiso  ? N
   N19        1.0     0.231995     0.519235     0.827373    Uiso  ? N
   N20        1.0     0.107238     0.429593     0.576981    Uiso  ? N
   N21        1.0     0.899678     0.526600     0.316885    Uiso  ? N
   N22        1.0     0.788392     0.433489     0.094964    Uiso  ? N
   N23        1.0     0.549058     0.541810     0.854118    Uiso  ? N
   N24        1.0     0.421951     0.443972     0.569052    Uiso  ? N
   N25        1.0     0.231884     0.881237     0.323342    Uiso  ? N
   N26        1.0     0.114976     0.760381     0.085746    Uiso  ? N
   N27        1.0     0.873753     0.884010     0.872197    Uiso  ? N
   N28        1.0     0.776677     0.760576     0.595041    Uiso  ? N
   N29        1.0     0.555796     0.857632     0.318724    Uiso  ? N
   N30        1.0     0.435958     0.782015     0.070510    Uiso  ? N
   N31        1.0     0.230132     0.886168     0.821898    Uiso  ? N
   N32        1.0     0.113051     0.760059     0.601013    Uiso  ? N
   N33        1.0     0.884326     0.886961     0.381605    Uiso  ? N
   N34        1.0     0.775799     0.759324     0.076390    Uiso  ? N
   N35        1.0     0.561576     0.857824     0.825481    Uiso  ? N
   N36        1.0     0.437069     0.776091     0.572454    Uiso  ? N
