
#======================================================================
# CRYSTAL DATA
#----------------------------------------------------------------------
data_VESTA_phase_1

_chemical_name_common                  'Al   Hf   Mg   N                      '
_cell_length_a                         9.812629
_cell_length_b                         9.800993
_cell_length_c                         10.028976
_cell_angle_alpha                      90.030838
_cell_angle_beta                       89.801193
_cell_angle_gamma                      59.942570
_cell_volume                           834.808673
_space_group_name_H-M_alt              'P 1'
_space_group_IT_number                 1

loop_
_space_group_symop_operation_xyz
   'x, y, z'

loop_
   _atom_site_label
   _atom_site_occupancy
   _atom_site_fract_x
   _atom_site_fract_y
   _atom_site_fract_z
   _atom_site_adp_type
   _atom_site_U_iso_or_equiv
   _atom_site_type_symbol
   Al1        1.0     0.101504     0.102459     0.393746    Uiso  ? Al
   Al2        1.0     0.213647     0.209906     0.139742    Uiso  ? Al
   Al3        1.0     0.781948     0.098356     0.893760    Uiso  ? Al
   Al4        1.0     0.896739     0.205576     0.647014    Uiso  ? Al
   Al5        1.0     0.553492     0.200757     0.087803    Uiso  ? Al
   Al6        1.0     0.110975     0.102308     0.894803    Uiso  ? Al
   Al7        1.0     0.212452     0.208343     0.644883    Uiso  ? Al
   Al8        1.0     0.789411     0.095447     0.359222    Uiso  ? Al
   Al9        1.0     0.097222     0.426941     0.394111    Uiso  ? Al
   Al10       1.0     0.214300     0.534142     0.136781    Uiso  ? Al
   Al11       1.0     0.779167     0.431370     0.894437    Uiso  ? Al
   Al12       1.0     0.888883     0.539055     0.644373    Uiso  ? Al
   Al13       1.0     0.105363     0.423007     0.892711    Uiso  ? Al
   Al14       1.0     0.218791     0.532403     0.645856    Uiso  ? Al
   Al15       1.0     0.788253     0.423580     0.396932    Uiso  ? Al
   Al16       1.0     0.888814     0.536214     0.143183    Uiso  ? Al
   Al17       1.0     0.446327     0.432846     0.902101    Uiso  ? Al
   Al18       1.0     0.229695     0.880708     0.140671    Uiso  ? Al
   Al19       1.0     0.773859     0.754590     0.893624    Uiso  ? Al
   Al20       1.0     0.880907     0.871809     0.651760    Uiso  ? Al
   Al21       1.0     0.450202     0.759702     0.395900    Uiso  ? Al
   Al22       1.0     0.557727     0.864601     0.137901    Uiso  ? Al
   Al23       1.0     0.229824     0.882052     0.643183    Uiso  ? Al
   Al24       1.0     0.880456     0.872895     0.134653    Uiso  ? Al
   Al25       1.0     0.451241     0.759220     0.895389    Uiso  ? Al
   Al26       1.0     0.558627     0.862800     0.648150    Uiso  ? Al
   Hf1        1.0     0.441513     0.087059     0.371724    Uiso  ? Hf
   Hf2        1.0     0.558243     0.204728     0.637702    Uiso  ? Hf
   Hf3        1.0     0.447243     0.430678     0.370155    Uiso  ? Hf
   Hf4        1.0     0.104339     0.768481     0.394119    Uiso  ? Hf
   Hf5        1.0     0.114735     0.762224     0.882747    Uiso  ? Hf
   Mg1        1.0     0.892922     0.212099     0.132657    Uiso  ? Mg
   Mg2        1.0     0.433859     0.085784     0.893497    Uiso  ? Mg
   Mg3        1.0     0.564102     0.544675     0.131054    Uiso  ? Mg
   Mg4        1.0     0.558826     0.544799     0.642454    Uiso  ? Mg
   Mg5        1.0     0.778632     0.752888     0.391348    Uiso  ? Mg
   N1         1.0     0.200317     0.215373     0.333061    Uiso  ? N
   N2         1.0     0.127210     0.088454     0.080841    Uiso  ? N
   N3         1.0     0.892485     0.204803     0.841061    Uiso  ? N
   N4         1.0     0.798300     0.084289     0.605328    Uiso  ? N
   N5         1.0     0.577377     0.192667     0.377588    Uiso  ? N
   N6         1.0     0.442283     0.095162     0.116285    Uiso  ? N
   N7         1.0     0.205081     0.215278     0.831286    Uiso  ? N
   N8         1.0     0.111733     0.094694     0.584616    Uiso  ? N
   N9         1.0     0.890723     0.206702     0.341971    Uiso  ? N
   N10        1.0     0.772315     0.088560     0.087681    Uiso  ? N
   N11        1.0     0.558224     0.212585     0.859380    Uiso  ? N
   N12        1.0     0.435218     0.086062     0.590694    Uiso  ? N
   N13        1.0     0.203013     0.536396     0.328749    Uiso  ? N
   N14        1.0     0.109673     0.427533     0.082547    Uiso  ? N
   N15        1.0     0.892048     0.539866     0.834160    Uiso  ? N
   N16        1.0     0.796783     0.418237     0.588117    Uiso  ? N
   N17        1.0     0.569031     0.544916     0.346694    Uiso  ? N
   N18        1.0     0.434658     0.422651     0.100844    Uiso  ? N
   N19        1.0     0.230917     0.520717     0.837625    Uiso  ? N
   N20        1.0     0.110773     0.428133     0.584969    Uiso  ? N
   N21        1.0     0.894913     0.524786     0.332077    Uiso  ? N
   N22        1.0     0.789051     0.436854     0.076331    Uiso  ? N
   N23        1.0     0.552409     0.539198     0.852062    Uiso  ? N
   N24        1.0     0.424972     0.440564     0.580667    Uiso  ? N
   N25        1.0     0.228121     0.880289     0.334943    Uiso  ? N
   N26        1.0     0.113340     0.761133     0.094008    Uiso  ? N
   N27        1.0     0.874739     0.877722     0.844013    Uiso  ? N
   N28        1.0     0.778373     0.761679     0.598011    Uiso  ? N
   N29        1.0     0.554253     0.856585     0.326293    Uiso  ? N
   N30        1.0     0.436310     0.777305     0.081241    Uiso  ? N
   N31        1.0     0.231312     0.883439     0.832561    Uiso  ? N
   N32        1.0     0.109386     0.761245     0.609519    Uiso  ? N
   N33        1.0     0.882015     0.882998     0.324450    Uiso  ? N
   N34        1.0     0.778827     0.758593     0.085742    Uiso  ? N
   N35        1.0     0.564173     0.855171     0.835842    Uiso  ? N
   N36        1.0     0.437205     0.777021     0.582217    Uiso  ? N
