
#======================================================================
# CRYSTAL DATA
#----------------------------------------------------------------------
data_VESTA_phase_1

_chemical_name_common                  'Al   Hf   Mg   N                      '
_cell_length_a                         9.853886
_cell_length_b                         9.842569
_cell_length_c                         10.017997
_cell_angle_alpha                      89.917854
_cell_angle_beta                       89.934311
_cell_angle_gamma                      59.964825
_cell_volume                           841.149086
_space_group_name_H-M_alt              'P 1'
_space_group_IT_number                 1

loop_
_space_group_symop_operation_xyz
   'x, y, z'

loop_
   _atom_site_label
   _atom_site_occupancy
   _atom_site_fract_x
   _atom_site_fract_y
   _atom_site_fract_z
   _atom_site_adp_type
   _atom_site_U_iso_or_equiv
   _atom_site_type_symbol
   Al1        1.0     0.105916     0.100379     0.379036    Uiso  ? Al
   Al2        1.0     0.212282     0.211399     0.129219    Uiso  ? Al
   Al3        1.0     0.787982     0.097714     0.826683    Uiso  ? Al
   Al4        1.0     0.887738     0.210493     0.571588    Uiso  ? Al
   Al5        1.0     0.561329     0.195573     0.070709    Uiso  ? Al
   Al6        1.0     0.111573     0.100868     0.886780    Uiso  ? Al
   Al7        1.0     0.208908     0.208227     0.636950    Uiso  ? Al
   Al8        1.0     0.786308     0.093018     0.317650    Uiso  ? Al
   Al9        1.0     0.102878     0.423467     0.387757    Uiso  ? Al
   Al10       1.0     0.215813     0.531750     0.125607    Uiso  ? Al
   Al11       1.0     0.785137     0.421528     0.821810    Uiso  ? Al
   Al12       1.0     0.883170     0.537344     0.575670    Uiso  ? Al
   Al13       1.0     0.111127     0.420079     0.879558    Uiso  ? Al
   Al14       1.0     0.218816     0.532475     0.636640    Uiso  ? Al
   Al15       1.0     0.788499     0.428834     0.314334    Uiso  ? Al
   Al16       1.0     0.884957     0.543039     0.067427    Uiso  ? Al
   Al17       1.0     0.448712     0.430118     0.892964    Uiso  ? Al
   Al18       1.0     0.232328     0.879895     0.129429    Uiso  ? Al
   Al19       1.0     0.777022     0.756443     0.820243    Uiso  ? Al
   Al20       1.0     0.880364     0.876633     0.577419    Uiso  ? Al
   Al21       1.0     0.449841     0.760985     0.386042    Uiso  ? Al
   Al22       1.0     0.558024     0.865678     0.130051    Uiso  ? Al
   Al23       1.0     0.226824     0.884528     0.633141    Uiso  ? Al
   Al24       1.0     0.874411     0.875745     0.071777    Uiso  ? Al
   Al25       1.0     0.452087     0.760568     0.885153    Uiso  ? Al
   Al26       1.0     0.548010     0.869668     0.635681    Uiso  ? Al
   Hf1        1.0     0.440792     0.090496     0.358225    Uiso  ? Hf
   Hf2        1.0     0.550656     0.207674     0.618845    Uiso  ? Hf
   Hf3        1.0     0.451770     0.425860     0.354845    Uiso  ? Hf
   Hf4        1.0     0.117585     0.761229     0.379889    Uiso  ? Hf
   Hf5        1.0     0.115725     0.761934     0.868651    Uiso  ? Hf
   Mg1        1.0     0.887408     0.207773     0.080211    Uiso  ? Mg
   Mg2        1.0     0.434265     0.086031     0.884847    Uiso  ? Mg
   Mg3        1.0     0.563099     0.544457     0.106987    Uiso  ? Mg
   Mg4        1.0     0.550704     0.547907     0.627794    Uiso  ? Mg
   Mg5        1.0     0.787426     0.750081     0.327370    Uiso  ? Mg
   N1         1.0     0.198162     0.217699     0.321218    Uiso  ? N
   N2         1.0     0.129783     0.086932     0.074947    Uiso  ? N
   N3         1.0     0.890965     0.204471     0.869424    Uiso  ? N
   N4         1.0     0.796717     0.086498     0.634415    Uiso  ? N
   N5         1.0     0.583566     0.188692     0.389798    Uiso  ? N
   N6         1.0     0.444005     0.096475     0.108810    Uiso  ? N
   N7         1.0     0.205433     0.213000     0.823011    Uiso  ? N
   N8         1.0     0.112714     0.094235     0.571682    Uiso  ? N
   N9         1.0     0.882083     0.208904     0.373003    Uiso  ? N
   N10        1.0     0.769591     0.085480     0.129658    Uiso  ? N
   N11        1.0     0.562519     0.209443     0.855673    Uiso  ? N
   N12        1.0     0.429444     0.088289     0.579298    Uiso  ? N
   N13        1.0     0.206212     0.529427     0.317308    Uiso  ? N
   N14        1.0     0.114193     0.424971     0.070817    Uiso  ? N
   N15        1.0     0.887455     0.541400     0.868083    Uiso  ? N
   N16        1.0     0.792834     0.417927     0.632106    Uiso  ? N
   N17        1.0     0.562452     0.548947     0.338213    Uiso  ? N
   N18        1.0     0.438281     0.418012     0.093181    Uiso  ? N
   N19        1.0     0.233324     0.519807     0.828482    Uiso  ? N
   N20        1.0     0.116578     0.424357     0.581225    Uiso  ? N
   N21        1.0     0.889153     0.527291     0.387313    Uiso  ? N
   N22        1.0     0.795962     0.432453     0.129766    Uiso  ? N
   N23        1.0     0.553039     0.539191     0.849093    Uiso  ? N
   N24        1.0     0.421488     0.442949     0.568381    Uiso  ? N
   N25        1.0     0.229377     0.883266     0.322656    Uiso  ? N
   N26        1.0     0.115529     0.760266     0.085572    Uiso  ? N
   N27        1.0     0.871858     0.881251     0.875307    Uiso  ? N
   N28        1.0     0.780146     0.761595     0.622926    Uiso  ? N
   N29        1.0     0.550750     0.861064     0.322054    Uiso  ? N
   N30        1.0     0.438485     0.778614     0.070859    Uiso  ? N
   N31        1.0     0.230757     0.884094     0.823115    Uiso  ? N
   N32        1.0     0.113076     0.759986     0.599699    Uiso  ? N
   N33        1.0     0.883429     0.887495     0.384765    Uiso  ? N
   N34        1.0     0.781805     0.758276     0.113834    Uiso  ? N
   N35        1.0     0.558409     0.859763     0.824089    Uiso  ? N
   N36        1.0     0.433408     0.778483     0.572380    Uiso  ? N
