
#======================================================================
# CRYSTAL DATA
#----------------------------------------------------------------------
data_VESTA_phase_1

_chemical_name_common                  'Al   Hf   Mg   N                      '
_cell_length_a                         9.850942
_cell_length_b                         9.816392
_cell_length_c                         10.047582
_cell_angle_alpha                      90.257805
_cell_angle_beta                       90.143387
_cell_angle_gamma                      60.017326
_cell_volume                           841.575719
_space_group_name_H-M_alt              'P 1'
_space_group_IT_number                 1

loop_
_space_group_symop_operation_xyz
   'x, y, z'

loop_
   _atom_site_label
   _atom_site_occupancy
   _atom_site_fract_x
   _atom_site_fract_y
   _atom_site_fract_z
   _atom_site_adp_type
   _atom_site_U_iso_or_equiv
   _atom_site_type_symbol
   Al1        1.0     0.101277     0.103035     0.319263    Uiso  ? Al
   Al2        1.0     0.214668     0.212752     0.074647    Uiso  ? Al
   Al3        1.0     0.787291     0.098977     0.826173    Uiso  ? Al
   Al4        1.0     0.896141     0.205427     0.568803    Uiso  ? Al
   Al5        1.0     0.558928     0.204600     0.063425    Uiso  ? Al
   Al6        1.0     0.104704     0.106237     0.843063    Uiso  ? Al
   Al7        1.0     0.208948     0.207499     0.568354    Uiso  ? Al
   Al8        1.0     0.783389     0.096091     0.318956    Uiso  ? Al
   Al9        1.0     0.096490     0.427918     0.319533    Uiso  ? Al
   Al10       1.0     0.226764     0.522810     0.068366    Uiso  ? Al
   Al11       1.0     0.784982     0.422738     0.820081    Uiso  ? Al
   Al12       1.0     0.892522     0.531678     0.573359    Uiso  ? Al
   Al13       1.0     0.108203     0.420167     0.821037    Uiso  ? Al
   Al14       1.0     0.211720     0.537203     0.580339    Uiso  ? Al
   Al15       1.0     0.783489     0.433078     0.318606    Uiso  ? Al
   Al16       1.0     0.886738     0.542713     0.069074    Uiso  ? Al
   Al17       1.0     0.447066     0.431743     0.821964    Uiso  ? Al
   Al18       1.0     0.237171     0.877531     0.125357    Uiso  ? Al
   Al19       1.0     0.779013     0.754319     0.819190    Uiso  ? Al
   Al20       1.0     0.890985     0.870343     0.575142    Uiso  ? Al
   Al21       1.0     0.443544     0.763639     0.392112    Uiso  ? Al
   Al22       1.0     0.558415     0.862999     0.128288    Uiso  ? Al
   Al23       1.0     0.225188     0.880217     0.634093    Uiso  ? Al
   Al24       1.0     0.866629     0.880833     0.068058    Uiso  ? Al
   Al25       1.0     0.451716     0.761976     0.880722    Uiso  ? Al
   Al26       1.0     0.550098     0.868281     0.634815    Uiso  ? Al
   Hf1        1.0     0.440804     0.094470     0.340448    Uiso  ? Hf
   Hf2        1.0     0.560103     0.197962     0.605879    Uiso  ? Hf
   Hf3        1.0     0.450159     0.430360     0.332436    Uiso  ? Hf
   Hf4        1.0     0.101985     0.760551     0.316008    Uiso  ? Hf
   Hf5        1.0     0.110473     0.760867     0.845422    Uiso  ? Hf
   Mg1        1.0     0.885720     0.211576     0.081376    Uiso  ? Mg
   Mg2        1.0     0.441355     0.087639     0.868373    Uiso  ? Mg
   Mg3        1.0     0.565225     0.535503     0.072780    Uiso  ? Mg
   Mg4        1.0     0.562262     0.542837     0.601351    Uiso  ? Mg
   Mg5        1.0     0.780386     0.751713     0.330906    Uiso  ? Mg
   N1         1.0     0.200390     0.216072     0.374842    Uiso  ? N
   N2         1.0     0.121845     0.094903     0.127516    Uiso  ? N
   N3         1.0     0.890378     0.205856     0.875718    Uiso  ? N
   N4         1.0     0.803499     0.082338     0.635463    Uiso  ? N
   N5         1.0     0.578574     0.198949     0.391734    Uiso  ? N
   N6         1.0     0.443998     0.100225     0.113258    Uiso  ? N
   N7         1.0     0.205577     0.216263     0.886369    Uiso  ? N
   N8         1.0     0.108952     0.096394     0.613505    Uiso  ? N
   N9         1.0     0.886006     0.207273     0.372875    Uiso  ? N
   N10        1.0     0.765555     0.089519     0.131240    Uiso  ? N
   N11        1.0     0.565297     0.211021     0.861093    Uiso  ? N
   N12        1.0     0.434069     0.084719     0.580295    Uiso  ? N
   N13        1.0     0.211129     0.529741     0.387066    Uiso  ? N
   N14        1.0     0.108703     0.432961     0.130433    Uiso  ? N
   N15        1.0     0.892599     0.539166     0.875888    Uiso  ? N
   N16        1.0     0.799631     0.414767     0.632172    Uiso  ? N
   N17        1.0     0.567317     0.544005     0.372955    Uiso  ? N
   N18        1.0     0.439147     0.418107     0.124886    Uiso  ? N
   N19        1.0     0.232189     0.517535     0.879247    Uiso  ? N
   N20        1.0     0.111984     0.423179     0.631481    Uiso  ? N
   N21        1.0     0.897347     0.524595     0.387416    Uiso  ? N
   N22        1.0     0.788095     0.439680     0.134369    Uiso  ? N
   N23        1.0     0.558079     0.538008     0.853964    Uiso  ? N
   N24        1.0     0.423871     0.437315     0.627823    Uiso  ? N
   N25        1.0     0.230725     0.871340     0.326120    Uiso  ? N
   N26        1.0     0.110304     0.760409     0.099450    Uiso  ? N
   N27        1.0     0.869282     0.883134     0.878186    Uiso  ? N
   N28        1.0     0.784376     0.757739     0.622466    Uiso  ? N
   N29        1.0     0.544285     0.861326     0.320739    Uiso  ? N
   N30        1.0     0.439573     0.777040     0.067102    Uiso  ? N
   N31        1.0     0.231219     0.882280     0.832656    Uiso  ? N
   N32        1.0     0.110299     0.757723     0.627086    Uiso  ? N
   N33        1.0     0.880610     0.889403     0.386062    Uiso  ? N
   N34        1.0     0.780293     0.759702     0.115935    Uiso  ? N
   N35        1.0     0.561419     0.858210     0.823122    Uiso  ? N
   N36        1.0     0.430859     0.780651     0.577527    Uiso  ? N
