
#======================================================================
# CRYSTAL DATA
#----------------------------------------------------------------------
data_VESTA_phase_1

_chemical_name_common                  'Al   Hf   Mg   N                      '
_cell_length_a                         9.801972
_cell_length_b                         9.768247
_cell_length_c                         10.146715
_cell_angle_alpha                      89.895927
_cell_angle_beta                       89.788353
_cell_angle_gamma                      60.127316
_cell_volume                           842.439971
_space_group_name_H-M_alt              'P 1'
_space_group_IT_number                 1

loop_
_space_group_symop_operation_xyz
   'x, y, z'

loop_
   _atom_site_label
   _atom_site_occupancy
   _atom_site_fract_x
   _atom_site_fract_y
   _atom_site_fract_z
   _atom_site_adp_type
   _atom_site_U_iso_or_equiv
   _atom_site_type_symbol
   Al1        1.0     0.103405     0.100303     0.315825    Uiso  ? Al
   Al2        1.0     0.211585     0.210750     0.068714    Uiso  ? Al
   Al3        1.0     0.786482     0.098802     0.822253    Uiso  ? Al
   Al4        1.0     0.895912     0.206434     0.568252    Uiso  ? Al
   Al5        1.0     0.560075     0.203638     0.060513    Uiso  ? Al
   Al6        1.0     0.104672     0.105918     0.815699    Uiso  ? Al
   Al7        1.0     0.209258     0.209677     0.567590    Uiso  ? Al
   Al8        1.0     0.785187     0.096251     0.315051    Uiso  ? Al
   Al9        1.0     0.096013     0.428473     0.315847    Uiso  ? Al
   Al10       1.0     0.224977     0.525855     0.064849    Uiso  ? Al
   Al11       1.0     0.784993     0.422730     0.816189    Uiso  ? Al
   Al12       1.0     0.891580     0.533906     0.569357    Uiso  ? Al
   Al13       1.0     0.107465     0.421324     0.818786    Uiso  ? Al
   Al14       1.0     0.212797     0.536896     0.574043    Uiso  ? Al
   Al15       1.0     0.786072     0.430002     0.316282    Uiso  ? Al
   Al16       1.0     0.886770     0.541619     0.066207    Uiso  ? Al
   Al17       1.0     0.446708     0.430190     0.819900    Uiso  ? Al
   Al18       1.0     0.225699     0.885050     0.062721    Uiso  ? Al
   Al19       1.0     0.779310     0.754838     0.817338    Uiso  ? Al
   Al20       1.0     0.889322     0.870475     0.568608    Uiso  ? Al
   Al21       1.0     0.449831     0.761310     0.392668    Uiso  ? Al
   Al22       1.0     0.556684     0.862630     0.126284    Uiso  ? Al
   Al23       1.0     0.218150     0.882264     0.571945    Uiso  ? Al
   Al24       1.0     0.870340     0.879128     0.064683    Uiso  ? Al
   Al25       1.0     0.455083     0.759239     0.878823    Uiso  ? Al
   Al26       1.0     0.549871     0.868893     0.635017    Uiso  ? Al
   Hf1        1.0     0.437941     0.096141     0.335132    Uiso  ? Hf
   Hf2        1.0     0.560030     0.197936     0.599253    Uiso  ? Hf
   Hf3        1.0     0.450290     0.430031     0.324961    Uiso  ? Hf
   Hf4        1.0     0.106126     0.766417     0.312245    Uiso  ? Hf
   Hf5        1.0     0.110563     0.761842     0.829524    Uiso  ? Hf
   Mg1        1.0     0.891825     0.207830     0.071533    Uiso  ? Mg
   Mg2        1.0     0.440284     0.088567     0.868451    Uiso  ? Mg
   Mg3        1.0     0.568168     0.532639     0.069530    Uiso  ? Mg
   Mg4        1.0     0.562539     0.540930     0.599864    Uiso  ? Mg
   Mg5        1.0     0.782018     0.751811     0.323013    Uiso  ? Mg
   N1         1.0     0.197558     0.217296     0.377202    Uiso  ? N
   N2         1.0     0.126070     0.087275     0.132847    Uiso  ? N
   N3         1.0     0.891807     0.205107     0.868115    Uiso  ? N
   N4         1.0     0.803609     0.081228     0.632303    Uiso  ? N
   N5         1.0     0.578340     0.198657     0.387348    Uiso  ? N
   N6         1.0     0.441886     0.100522     0.109902    Uiso  ? N
   N7         1.0     0.202245     0.215101     0.881653    Uiso  ? N
   N8         1.0     0.110713     0.096019     0.625513    Uiso  ? N
   N9         1.0     0.888808     0.205471     0.375291    Uiso  ? N
   N10        1.0     0.767727     0.089164     0.128706    Uiso  ? N
   N11        1.0     0.565520     0.210245     0.860716    Uiso  ? N
   N12        1.0     0.433754     0.084509     0.576638    Uiso  ? N
   N13        1.0     0.210862     0.532701     0.382458    Uiso  ? N
   N14        1.0     0.109303     0.430831     0.127634    Uiso  ? N
   N15        1.0     0.891377     0.539384     0.874341    Uiso  ? N
   N16        1.0     0.800055     0.415533     0.629812    Uiso  ? N
   N17        1.0     0.567884     0.542559     0.370264    Uiso  ? N
   N18        1.0     0.438997     0.417891     0.120615    Uiso  ? N
   N19        1.0     0.230284     0.520106     0.877251    Uiso  ? N
   N20        1.0     0.110854     0.425601     0.629668    Uiso  ? N
   N21        1.0     0.896429     0.525992     0.384918    Uiso  ? N
   N22        1.0     0.791662     0.434170     0.133325    Uiso  ? N
   N23        1.0     0.558578     0.536523     0.851409    Uiso  ? N
   N24        1.0     0.423037     0.436592     0.627469    Uiso  ? N
   N25        1.0     0.219219     0.882709     0.377804    Uiso  ? N
   N26        1.0     0.110893     0.762082     0.100640    Uiso  ? N
   N27        1.0     0.871581     0.881894     0.875814    Uiso  ? N
   N28        1.0     0.784966     0.758069     0.621707    Uiso  ? N
   N29        1.0     0.544070     0.862370     0.316832    Uiso  ? N
   N30        1.0     0.442406     0.772911     0.066428    Uiso  ? N
   N31        1.0     0.222926     0.887118     0.868645    Uiso  ? N
   N32        1.0     0.111149     0.759913     0.618905    Uiso  ? N
   N33        1.0     0.882423     0.887635     0.381448    Uiso  ? N
   N34        1.0     0.780119     0.759396     0.112205    Uiso  ? N
   N35        1.0     0.560711     0.859922     0.820725    Uiso  ? N
   N36        1.0     0.436116     0.777106     0.578696    Uiso  ? N
