
#======================================================================
# CRYSTAL DATA
#----------------------------------------------------------------------
data_VESTA_phase_1

_chemical_name_common                  'Al   Hf   Mg   N                      '
_cell_length_a                         9.819067
_cell_length_b                         9.817474
_cell_length_c                         10.014094
_cell_angle_alpha                      90.058556
_cell_angle_beta                       89.809692
_cell_angle_gamma                      59.914631
_cell_volume                           835.282883
_space_group_name_H-M_alt              'P 1'
_space_group_IT_number                 1

loop_
_space_group_symop_operation_xyz
   'x, y, z'

loop_
   _atom_site_label
   _atom_site_occupancy
   _atom_site_fract_x
   _atom_site_fract_y
   _atom_site_fract_z
   _atom_site_adp_type
   _atom_site_U_iso_or_equiv
   _atom_site_type_symbol
   Al1        1.0     0.099798     0.102742     0.393033    Uiso  ? Al
   Al2        1.0     0.214548     0.209942     0.140269    Uiso  ? Al
   Al3        1.0     0.782246     0.098995     0.870380    Uiso  ? Al
   Al4        1.0     0.897463     0.207276     0.648703    Uiso  ? Al
   Al5        1.0     0.553675     0.200560     0.078499    Uiso  ? Al
   Al6        1.0     0.112658     0.102188     0.895077    Uiso  ? Al
   Al7        1.0     0.212261     0.208289     0.644253    Uiso  ? Al
   Al8        1.0     0.782562     0.099073     0.315807    Uiso  ? Al
   Al9        1.0     0.097458     0.426745     0.394168    Uiso  ? Al
   Al10       1.0     0.215014     0.533276     0.137513    Uiso  ? Al
   Al11       1.0     0.778945     0.432864     0.894949    Uiso  ? Al
   Al12       1.0     0.888792     0.538966     0.644080    Uiso  ? Al
   Al13       1.0     0.105483     0.422973     0.892563    Uiso  ? Al
   Al14       1.0     0.218151     0.533009     0.645472    Uiso  ? Al
   Al15       1.0     0.788378     0.421981     0.396359    Uiso  ? Al
   Al16       1.0     0.888819     0.536325     0.144014    Uiso  ? Al
   Al17       1.0     0.445681     0.434042     0.902331    Uiso  ? Al
   Al18       1.0     0.230205     0.880820     0.141277    Uiso  ? Al
   Al19       1.0     0.773720     0.753321     0.894353    Uiso  ? Al
   Al20       1.0     0.881569     0.869552     0.654192    Uiso  ? Al
   Al21       1.0     0.449703     0.759903     0.395966    Uiso  ? Al
   Al22       1.0     0.557629     0.864569     0.138174    Uiso  ? Al
   Al23       1.0     0.229235     0.882417     0.642935    Uiso  ? Al
   Al24       1.0     0.882595     0.868214     0.132700    Uiso  ? Al
   Al25       1.0     0.451155     0.759289     0.895218    Uiso  ? Al
   Al26       1.0     0.558144     0.862882     0.647916    Uiso  ? Al
   Hf1        1.0     0.442784     0.087246     0.370731    Uiso  ? Hf
   Hf2        1.0     0.556769     0.205254     0.633313    Uiso  ? Hf
   Hf3        1.0     0.448430     0.429116     0.369750    Uiso  ? Hf
   Hf4        1.0     0.103269     0.769322     0.393499    Uiso  ? Hf
   Hf5        1.0     0.116234     0.761386     0.883681    Uiso  ? Hf
   Mg1        1.0     0.895573     0.214374     0.127436    Uiso  ? Mg
   Mg2        1.0     0.433276     0.084956     0.892724    Uiso  ? Mg
   Mg3        1.0     0.563558     0.545135     0.131502    Uiso  ? Mg
   Mg4        1.0     0.558485     0.544903     0.641847    Uiso  ? Mg
   Mg5        1.0     0.778818     0.753006     0.391455    Uiso  ? Mg
   N1         1.0     0.200764     0.214945     0.333727    Uiso  ? N
   N2         1.0     0.129266     0.087975     0.080988    Uiso  ? N
   N3         1.0     0.894736     0.208015     0.844877    Uiso  ? N
   N4         1.0     0.796190     0.086195     0.638340    Uiso  ? N
   N5         1.0     0.582637     0.190107     0.388300    Uiso  ? N
   N6         1.0     0.443242     0.095418     0.117089    Uiso  ? N
   N7         1.0     0.205525     0.215500     0.830973    Uiso  ? N
   N8         1.0     0.110820     0.095006     0.584510    Uiso  ? N
   N9         1.0     0.889428     0.205673     0.340784    Uiso  ? N
   N10        1.0     0.770722     0.090213     0.105110    Uiso  ? N
   N11        1.0     0.556853     0.212598     0.865468    Uiso  ? N
   N12        1.0     0.434406     0.085404     0.590469    Uiso  ? N
   N13        1.0     0.203511     0.535900     0.329434    Uiso  ? N
   N14        1.0     0.109777     0.427458     0.082758    Uiso  ? N
   N15        1.0     0.892139     0.539785     0.834082    Uiso  ? N
   N16        1.0     0.796672     0.418283     0.588119    Uiso  ? N
   N17        1.0     0.568486     0.544991     0.347074    Uiso  ? N
   N18        1.0     0.435176     0.422228     0.101807    Uiso  ? N
   N19        1.0     0.231011     0.520678     0.837655    Uiso  ? N
   N20        1.0     0.110631     0.428180     0.585251    Uiso  ? N
   N21        1.0     0.894807     0.524369     0.332828    Uiso  ? N
   N22        1.0     0.787842     0.439151     0.076763    Uiso  ? N
   N23        1.0     0.552227     0.539317     0.851938    Uiso  ? N
   N24        1.0     0.423781     0.442235     0.580495    Uiso  ? N
   N25        1.0     0.227842     0.880603     0.335143    Uiso  ? N
   N26        1.0     0.114516     0.760238     0.094792    Uiso  ? N
   N27        1.0     0.876514     0.873866     0.849459    Uiso  ? N
   N28        1.0     0.778181     0.761756     0.598612    Uiso  ? N
   N29        1.0     0.553986     0.856709     0.326801    Uiso  ? N
   N30        1.0     0.436404     0.777342     0.081294    Uiso  ? N
   N31        1.0     0.231105     0.883973     0.832595    Uiso  ? N
   N32        1.0     0.108125     0.762064     0.609740    Uiso  ? N
   N33        1.0     0.882053     0.881518     0.324379    Uiso  ? N
   N34        1.0     0.778228     0.757657     0.086079    Uiso  ? N
   N35        1.0     0.564271     0.854867     0.835968    Uiso  ? N
   N36        1.0     0.436848     0.777026     0.582524    Uiso  ? N
