
#======================================================================
# CRYSTAL DATA
#----------------------------------------------------------------------
data_VESTA_phase_1

_chemical_name_common                  'Al   Hf   Mg   N                      '
_cell_length_a                         9.874567
_cell_length_b                         9.865438
_cell_length_c                         9.951312
_cell_angle_alpha                      89.873093
_cell_angle_beta                       89.894371
_cell_angle_gamma                      59.977673
_cell_volume                           839.356414
_space_group_name_H-M_alt              'P 1'
_space_group_IT_number                 1

loop_
_space_group_symop_operation_xyz
   'x, y, z'

loop_
   _atom_site_label
   _atom_site_occupancy
   _atom_site_fract_x
   _atom_site_fract_y
   _atom_site_fract_z
   _atom_site_adp_type
   _atom_site_U_iso_or_equiv
   _atom_site_type_symbol
   Al1        1.0     0.106170     0.100065     0.378234    Uiso  ? Al
   Al2        1.0     0.212867     0.210416     0.128374    Uiso  ? Al
   Al3        1.0     0.788247     0.097843     0.827214    Uiso  ? Al
   Al4        1.0     0.888109     0.209499     0.571517    Uiso  ? Al
   Al5        1.0     0.561486     0.195355     0.069611    Uiso  ? Al
   Al6        1.0     0.111436     0.100981     0.886175    Uiso  ? Al
   Al7        1.0     0.209237     0.208057     0.637066    Uiso  ? Al
   Al8        1.0     0.786303     0.093197     0.317162    Uiso  ? Al
   Al9        1.0     0.103088     0.423182     0.387468    Uiso  ? Al
   Al10       1.0     0.216340     0.531746     0.124833    Uiso  ? Al
   Al11       1.0     0.785511     0.421799     0.820430    Uiso  ? Al
   Al12       1.0     0.885726     0.536393     0.583428    Uiso  ? Al
   Al13       1.0     0.107603     0.421760     0.879184    Uiso  ? Al
   Al14       1.0     0.219145     0.531676     0.636612    Uiso  ? Al
   Al15       1.0     0.787149     0.427744     0.317040    Uiso  ? Al
   Al16       1.0     0.888733     0.541777     0.088178    Uiso  ? Al
   Al17       1.0     0.448600     0.430268     0.892055    Uiso  ? Al
   Al18       1.0     0.232534     0.879782     0.128869    Uiso  ? Al
   Al19       1.0     0.777078     0.756789     0.819646    Uiso  ? Al
   Al20       1.0     0.880759     0.877747     0.577524    Uiso  ? Al
   Al21       1.0     0.448937     0.761294     0.385726    Uiso  ? Al
   Al22       1.0     0.558473     0.865163     0.129974    Uiso  ? Al
   Al23       1.0     0.226815     0.884694     0.632719    Uiso  ? Al
   Al24       1.0     0.874662     0.875209     0.072457    Uiso  ? Al
   Al25       1.0     0.452295     0.760552     0.884248    Uiso  ? Al
   Al26       1.0     0.547604     0.870479     0.634621    Uiso  ? Al
   Hf1        1.0     0.440324     0.091408     0.357312    Uiso  ? Hf
   Hf2        1.0     0.551201     0.207379     0.618495    Uiso  ? Hf
   Hf3        1.0     0.451885     0.425508     0.353427    Uiso  ? Hf
   Hf4        1.0     0.117552     0.760857     0.378154    Uiso  ? Hf
   Hf5        1.0     0.115367     0.761816     0.867281    Uiso  ? Hf
   Mg1        1.0     0.887731     0.207071     0.080221    Uiso  ? Mg
   Mg2        1.0     0.434192     0.086140     0.883913    Uiso  ? Mg
   Mg3        1.0     0.563175     0.544510     0.104816    Uiso  ? Mg
   Mg4        1.0     0.550481     0.547691     0.625639    Uiso  ? Mg
   Mg5        1.0     0.783764     0.754067     0.336849    Uiso  ? Mg
   N1         1.0     0.198548     0.217256     0.321279    Uiso  ? N
   N2         1.0     0.129503     0.086797     0.075530    Uiso  ? N
   N3         1.0     0.891341     0.204685     0.868302    Uiso  ? N
   N4         1.0     0.796843     0.086620     0.634140    Uiso  ? N
   N5         1.0     0.583712     0.188714     0.389052    Uiso  ? N
   N6         1.0     0.444172     0.096416     0.108474    Uiso  ? N
   N7         1.0     0.205351     0.213537     0.824440    Uiso  ? N
   N8         1.0     0.112754     0.094329     0.572138    Uiso  ? N
   N9         1.0     0.882877     0.207637     0.372074    Uiso  ? N
   N10        1.0     0.769445     0.085256     0.128222    Uiso  ? N
   N11        1.0     0.562776     0.209547     0.855867    Uiso  ? N
   N12        1.0     0.428905     0.089178     0.579832    Uiso  ? N
   N13        1.0     0.207030     0.528746     0.317506    Uiso  ? N
   N14        1.0     0.112519     0.425839     0.072341    Uiso  ? N
   N15        1.0     0.890335     0.540628     0.852239    Uiso  ? N
   N16        1.0     0.791061     0.417092     0.628413    Uiso  ? N
   N17        1.0     0.561785     0.549229     0.339337    Uiso  ? N
   N18        1.0     0.438396     0.417514     0.093684    Uiso  ? N
   N19        1.0     0.233245     0.519564     0.829861    Uiso  ? N
   N20        1.0     0.117108     0.423763     0.580898    Uiso  ? N
   N21        1.0     0.890634     0.527172     0.382712    Uiso  ? N
   N22        1.0     0.794645     0.430934     0.130033    Uiso  ? N
   N23        1.0     0.553347     0.539142     0.849329    Uiso  ? N
   N24        1.0     0.421364     0.442202     0.568786    Uiso  ? N
   N25        1.0     0.229396     0.882981     0.323089    Uiso  ? N
   N26        1.0     0.115400     0.760108     0.086409    Uiso  ? N
   N27        1.0     0.871879     0.881259     0.874837    Uiso  ? N
   N28        1.0     0.777779     0.764873     0.618475    Uiso  ? N
   N29        1.0     0.549130     0.862209     0.322877    Uiso  ? N
   N30        1.0     0.438607     0.778647     0.071228    Uiso  ? N
   N31        1.0     0.230658     0.883999     0.823797    Uiso  ? N
   N32        1.0     0.113076     0.759533     0.600317    Uiso  ? N
   N33        1.0     0.884331     0.888552     0.383961    Uiso  ? N
   N34        1.0     0.781908     0.758412     0.115763    Uiso  ? N
   N35        1.0     0.558924     0.859808     0.824353    Uiso  ? N
   N36        1.0     0.433096     0.778803     0.573075    Uiso  ? N
