
#======================================================================
# CRYSTAL DATA
#----------------------------------------------------------------------
data_VESTA_phase_1

_chemical_name_common                  'Al   Hf   Mg   N                      '
_cell_length_a                         9.851969
_cell_length_b                         9.837797
_cell_length_c                         10.054159
_cell_angle_alpha                      90.022713
_cell_angle_beta                       89.975517
_cell_angle_gamma                      59.924831
_cell_volume                           843.271992
_space_group_name_H-M_alt              'P 1'
_space_group_IT_number                 1

loop_
_space_group_symop_operation_xyz
   'x, y, z'

loop_
   _atom_site_label
   _atom_site_occupancy
   _atom_site_fract_x
   _atom_site_fract_y
   _atom_site_fract_z
   _atom_site_adp_type
   _atom_site_U_iso_or_equiv
   _atom_site_type_symbol
   Al1        1.0     0.105450     0.100327     0.380626    Uiso  ? Al
   Al2        1.0     0.212031     0.211897     0.129447    Uiso  ? Al
   Al3        1.0     0.788865     0.096941     0.824413    Uiso  ? Al
   Al4        1.0     0.887561     0.210232     0.571478    Uiso  ? Al
   Al5        1.0     0.560723     0.196661     0.070439    Uiso  ? Al
   Al6        1.0     0.112196     0.100877     0.884626    Uiso  ? Al
   Al7        1.0     0.209021     0.207538     0.635934    Uiso  ? Al
   Al8        1.0     0.782541     0.096066     0.318388    Uiso  ? Al
   Al9        1.0     0.102748     0.422805     0.388212    Uiso  ? Al
   Al10       1.0     0.221462     0.523217     0.121846    Uiso  ? Al
   Al11       1.0     0.785938     0.421132     0.821348    Uiso  ? Al
   Al12       1.0     0.882987     0.537789     0.574016    Uiso  ? Al
   Al13       1.0     0.112235     0.419307     0.878122    Uiso  ? Al
   Al14       1.0     0.216235     0.536904     0.634681    Uiso  ? Al
   Al15       1.0     0.788943     0.428579     0.312594    Uiso  ? Al
   Al16       1.0     0.883957     0.543252     0.063473    Uiso  ? Al
   Al17       1.0     0.450266     0.429597     0.890713    Uiso  ? Al
   Al18       1.0     0.237103     0.884303     0.126690    Uiso  ? Al
   Al19       1.0     0.777968     0.756131     0.817992    Uiso  ? Al
   Al20       1.0     0.888342     0.872030     0.573406    Uiso  ? Al
   Al21       1.0     0.449445     0.760844     0.386334    Uiso  ? Al
   Al22       1.0     0.558013     0.866636     0.129734    Uiso  ? Al
   Al23       1.0     0.224446     0.880866     0.630210    Uiso  ? Al
   Al24       1.0     0.869311     0.878657     0.069545    Uiso  ? Al
   Al25       1.0     0.453671     0.759877     0.883610    Uiso  ? Al
   Al26       1.0     0.548585     0.868822     0.634922    Uiso  ? Al
   Hf1        1.0     0.439857     0.090854     0.359259    Uiso  ? Hf
   Hf2        1.0     0.551336     0.205718     0.620512    Uiso  ? Hf
   Hf3        1.0     0.449520     0.429289     0.363416    Uiso  ? Hf
   Hf4        1.0     0.107035     0.766812     0.333073    Uiso  ? Hf
   Hf5        1.0     0.115568     0.762477     0.862645    Uiso  ? Hf
   Mg1        1.0     0.887108     0.207942     0.078605    Uiso  ? Mg
   Mg2        1.0     0.434420     0.085679     0.884462    Uiso  ? Mg
   Mg3        1.0     0.562698     0.544006     0.109045    Uiso  ? Mg
   Mg4        1.0     0.551541     0.548660     0.630346    Uiso  ? Mg
   Mg5        1.0     0.785455     0.748927     0.325124    Uiso  ? Mg
   N1         1.0     0.197230     0.217309     0.320670    Uiso  ? N
   N2         1.0     0.129758     0.088830     0.072180    Uiso  ? N
   N3         1.0     0.891248     0.203842     0.868779    Uiso  ? N
   N4         1.0     0.797496     0.084855     0.632902    Uiso  ? N
   N5         1.0     0.580589     0.191427     0.390012    Uiso  ? N
   N6         1.0     0.443697     0.097156     0.107874    Uiso  ? N
   N7         1.0     0.206048     0.212625     0.821013    Uiso  ? N
   N8         1.0     0.112773     0.093280     0.571498    Uiso  ? N
   N9         1.0     0.881320     0.209338     0.373123    Uiso  ? N
   N10        1.0     0.768355     0.086958     0.130440    Uiso  ? N
   N11        1.0     0.563404     0.208240     0.853564    Uiso  ? N
   N12        1.0     0.429785     0.087164     0.578138    Uiso  ? N
   N13        1.0     0.208461     0.524528     0.315257    Uiso  ? N
   N14        1.0     0.114276     0.423437     0.068727    Uiso  ? N
   N15        1.0     0.887443     0.541590     0.869091    Uiso  ? N
   N16        1.0     0.794310     0.417758     0.632596    Uiso  ? N
   N17        1.0     0.562408     0.549174     0.335957    Uiso  ? N
   N18        1.0     0.439458     0.418216     0.087779    Uiso  ? N
   N19        1.0     0.233613     0.519737     0.829519    Uiso  ? N
   N20        1.0     0.117279     0.424182     0.580380    Uiso  ? N
   N21        1.0     0.888792     0.527078     0.387079    Uiso  ? N
   N22        1.0     0.796533     0.432574     0.128806    Uiso  ? N
   N23        1.0     0.554377     0.538877     0.847563    Uiso  ? N
   N24        1.0     0.422890     0.442576     0.572730    Uiso  ? N
   N25        1.0     0.230486     0.885148     0.320612    Uiso  ? N
   N26        1.0     0.112732     0.761545     0.097358    Uiso  ? N
   N27        1.0     0.872237     0.881433     0.877038    Uiso  ? N
   N28        1.0     0.782164     0.761003     0.622645    Uiso  ? N
   N29        1.0     0.549485     0.861451     0.320559    Uiso  ? N
   N30        1.0     0.440980     0.777889     0.068621    Uiso  ? N
   N31        1.0     0.232246     0.883503     0.823261    Uiso  ? N
   N32        1.0     0.111696     0.761174     0.608828    Uiso  ? N
   N33        1.0     0.880106     0.888595     0.383147    Uiso  ? N
   N34        1.0     0.781309     0.758151     0.112982    Uiso  ? N
   N35        1.0     0.559343     0.859524     0.822616    Uiso  ? N
   N36        1.0     0.433248     0.778223     0.571578    Uiso  ? N
