
#======================================================================
# CRYSTAL DATA
#----------------------------------------------------------------------
data_VESTA_phase_1

_chemical_name_common                  'Al   Hf   Mg   N                      '
_cell_length_a                         9.845776
_cell_length_b                         9.805826
_cell_length_c                         10.105673
_cell_angle_alpha                      90.316284
_cell_angle_beta                       90.293846
_cell_angle_gamma                      59.998226
_cell_volume                           844.916879
_space_group_name_H-M_alt              'P 1'
_space_group_IT_number                 1

loop_
_space_group_symop_operation_xyz
   'x, y, z'

loop_
   _atom_site_label
   _atom_site_occupancy
   _atom_site_fract_x
   _atom_site_fract_y
   _atom_site_fract_z
   _atom_site_adp_type
   _atom_site_U_iso_or_equiv
   _atom_site_type_symbol
   Al1        1.0     0.103093     0.093810     0.380969    Uiso  ? Al
   Al2        1.0     0.218911     0.213772     0.069996    Uiso  ? Al
   Al3        1.0     0.786804     0.099518     0.826396    Uiso  ? Al
   Al4        1.0     0.889132     0.208500     0.574178    Uiso  ? Al
   Al5        1.0     0.559362     0.204095     0.062338    Uiso  ? Al
   Al6        1.0     0.109402     0.099269     0.891551    Uiso  ? Al
   Al7        1.0     0.211430     0.209798     0.573327    Uiso  ? Al
   Al8        1.0     0.782512     0.096179     0.318903    Uiso  ? Al
   Al9        1.0     0.096157     0.426331     0.317754    Uiso  ? Al
   Al10       1.0     0.226259     0.524039     0.067410    Uiso  ? Al
   Al11       1.0     0.785492     0.422770     0.820279    Uiso  ? Al
   Al12       1.0     0.891734     0.532980     0.572006    Uiso  ? Al
   Al13       1.0     0.107623     0.422134     0.819721    Uiso  ? Al
   Al14       1.0     0.211425     0.538594     0.578830    Uiso  ? Al
   Al15       1.0     0.784020     0.431684     0.318372    Uiso  ? Al
   Al16       1.0     0.887112     0.541846     0.068715    Uiso  ? Al
   Al17       1.0     0.447046     0.431816     0.822092    Uiso  ? Al
   Al18       1.0     0.237009     0.881734     0.127880    Uiso  ? Al
   Al19       1.0     0.779413     0.753980     0.819144    Uiso  ? Al
   Al20       1.0     0.890987     0.869879     0.574624    Uiso  ? Al
   Al21       1.0     0.444010     0.763697     0.391020    Uiso  ? Al
   Al22       1.0     0.558759     0.862104     0.127619    Uiso  ? Al
   Al23       1.0     0.225101     0.881935     0.635443    Uiso  ? Al
   Al24       1.0     0.867316     0.880298     0.067588    Uiso  ? Al
   Al25       1.0     0.451099     0.762152     0.881754    Uiso  ? Al
   Al26       1.0     0.550254     0.867019     0.635552    Uiso  ? Al
   Hf1        1.0     0.439318     0.095273     0.336687    Uiso  ? Hf
   Hf2        1.0     0.559473     0.198666     0.603765    Uiso  ? Hf
   Hf3        1.0     0.449744     0.429989     0.330207    Uiso  ? Hf
   Hf4        1.0     0.101592     0.761381     0.313674    Uiso  ? Hf
   Hf5        1.0     0.110382     0.762453     0.843540    Uiso  ? Hf
   Mg1        1.0     0.885154     0.210949     0.083933    Uiso  ? Mg
   Mg2        1.0     0.442752     0.087850     0.861423    Uiso  ? Mg
   Mg3        1.0     0.566083     0.534356     0.072159    Uiso  ? Mg
   Mg4        1.0     0.560836     0.543703     0.600646    Uiso  ? Mg
   Mg5        1.0     0.780623     0.751481     0.329390    Uiso  ? Mg
   N1         1.0     0.201530     0.216341     0.374226    Uiso  ? N
   N2         1.0     0.125398     0.088675     0.084299    Uiso  ? N
   N3         1.0     0.890350     0.206266     0.872440    Uiso  ? N
   N4         1.0     0.802320     0.081787     0.636675    Uiso  ? N
   N5         1.0     0.577047     0.198561     0.391494    Uiso  ? N
   N6         1.0     0.444651     0.099842     0.113642    Uiso  ? N
   N7         1.0     0.209051     0.218068     0.878998    Uiso  ? N
   N8         1.0     0.110385     0.089053     0.575513    Uiso  ? N
   N9         1.0     0.880291     0.209814     0.375259    Uiso  ? N
   N10        1.0     0.765670     0.088960     0.132123    Uiso  ? N
   N11        1.0     0.565677     0.211398     0.862388    Uiso  ? N
   N12        1.0     0.433764     0.084810     0.585374    Uiso  ? N
   N13        1.0     0.210856     0.530779     0.386061    Uiso  ? N
   N14        1.0     0.109678     0.431878     0.129440    Uiso  ? N
   N15        1.0     0.892741     0.539320     0.876539    Uiso  ? N
   N16        1.0     0.798698     0.417018     0.633192    Uiso  ? N
   N17        1.0     0.566413     0.544010     0.372230    Uiso  ? N
   N18        1.0     0.439127     0.417704     0.124235    Uiso  ? N
   N19        1.0     0.231768     0.519754     0.879305    Uiso  ? N
   N20        1.0     0.110398     0.425856     0.630968    Uiso  ? N
   N21        1.0     0.897333     0.524341     0.387092    Uiso  ? N
   N22        1.0     0.788988     0.438742     0.135190    Uiso  ? N
   N23        1.0     0.558072     0.538114     0.854463    Uiso  ? N
   N24        1.0     0.423183     0.437621     0.628786    Uiso  ? N
   N25        1.0     0.228417     0.876971     0.322898    Uiso  ? N
   N26        1.0     0.110086     0.760338     0.100143    Uiso  ? N
   N27        1.0     0.869337     0.883196     0.878723    Uiso  ? N
   N28        1.0     0.784124     0.758015     0.622790    Uiso  ? N
   N29        1.0     0.544221     0.861486     0.319749    Uiso  ? N
   N30        1.0     0.439620     0.775669     0.067645    Uiso  ? N
   N31        1.0     0.231016     0.885195     0.827124    Uiso  ? N
   N32        1.0     0.109831     0.758209     0.627241    Uiso  ? N
   N33        1.0     0.881577     0.889037     0.386434    Uiso  ? N
   N34        1.0     0.780857     0.759189     0.116139    Uiso  ? N
   N35        1.0     0.562027     0.856434     0.822889    Uiso  ? N
   N36        1.0     0.430115     0.781349     0.575209    Uiso  ? N
