
#======================================================================
# CRYSTAL DATA
#----------------------------------------------------------------------
data_VESTA_phase_1

_chemical_name_common                  'Al   Hf   Mg   N                      '
_cell_length_a                         9.822674
_cell_length_b                         9.784025
_cell_length_c                         10.092069
_cell_angle_alpha                      90.062576
_cell_angle_beta                       89.942451
_cell_angle_gamma                      60.118931
_cell_volume                           840.962024
_space_group_name_H-M_alt              'P 1'
_space_group_IT_number                 1

loop_
_space_group_symop_operation_xyz
   'x, y, z'

loop_
   _atom_site_label
   _atom_site_occupancy
   _atom_site_fract_x
   _atom_site_fract_y
   _atom_site_fract_z
   _atom_site_adp_type
   _atom_site_U_iso_or_equiv
   _atom_site_type_symbol
   Al1        1.0     0.103803     0.098693     0.318788    Uiso  ? Al
   Al2        1.0     0.212007     0.211026     0.071641    Uiso  ? Al
   Al3        1.0     0.786772     0.099296     0.825922    Uiso  ? Al
   Al4        1.0     0.896298     0.206167     0.571127    Uiso  ? Al
   Al5        1.0     0.559625     0.204308     0.063968    Uiso  ? Al
   Al6        1.0     0.103962     0.107372     0.820050    Uiso  ? Al
   Al7        1.0     0.209612     0.209007     0.571074    Uiso  ? Al
   Al8        1.0     0.785063     0.096223     0.319325    Uiso  ? Al
   Al9        1.0     0.096452     0.427443     0.320031    Uiso  ? Al
   Al10       1.0     0.226771     0.522908     0.068540    Uiso  ? Al
   Al11       1.0     0.784998     0.423184     0.819969    Uiso  ? Al
   Al12       1.0     0.892300     0.533343     0.572997    Uiso  ? Al
   Al13       1.0     0.107892     0.421063     0.822068    Uiso  ? Al
   Al14       1.0     0.212692     0.536905     0.578915    Uiso  ? Al
   Al15       1.0     0.785697     0.430594     0.319725    Uiso  ? Al
   Al16       1.0     0.886679     0.542192     0.070082    Uiso  ? Al
   Al17       1.0     0.447357     0.430953     0.822653    Uiso  ? Al
   Al18       1.0     0.226785     0.883991     0.072591    Uiso  ? Al
   Al19       1.0     0.779038     0.755015     0.820524    Uiso  ? Al
   Al20       1.0     0.890251     0.870352     0.573368    Uiso  ? Al
   Al21       1.0     0.445553     0.763214     0.394986    Uiso  ? Al
   Al22       1.0     0.556565     0.863243     0.129489    Uiso  ? Al
   Al23       1.0     0.220105     0.878820     0.592887    Uiso  ? Al
   Al24       1.0     0.866971     0.880958     0.068316    Uiso  ? Al
   Al25       1.0     0.454697     0.759718     0.880494    Uiso  ? Al
   Al26       1.0     0.550685     0.868854     0.637339    Uiso  ? Al
   Hf1        1.0     0.438005     0.096209     0.339320    Uiso  ? Hf
   Hf2        1.0     0.560462     0.197857     0.604221    Uiso  ? Hf
   Hf3        1.0     0.450460     0.430330     0.330924    Uiso  ? Hf
   Hf4        1.0     0.104901     0.764375     0.314783    Uiso  ? Hf
   Hf5        1.0     0.109593     0.760866     0.840046    Uiso  ? Hf
   Mg1        1.0     0.890512     0.209174     0.075705    Uiso  ? Mg
   Mg2        1.0     0.440467     0.088628     0.870286    Uiso  ? Mg
   Mg3        1.0     0.567203     0.533898     0.073382    Uiso  ? Mg
   Mg4        1.0     0.563831     0.540967     0.601313    Uiso  ? Mg
   Mg5        1.0     0.780578     0.752274     0.329038    Uiso  ? Mg
   N1         1.0     0.197859     0.216049     0.380036    Uiso  ? N
   N2         1.0     0.124823     0.089414     0.134004    Uiso  ? N
   N3         1.0     0.891740     0.205676     0.871803    Uiso  ? N
   N4         1.0     0.804039     0.081605     0.635439    Uiso  ? N
   N5         1.0     0.578593     0.198542     0.391170    Uiso  ? N
   N6         1.0     0.442091     0.100824     0.112885    Uiso  ? N
   N7         1.0     0.203033     0.215197     0.884179    Uiso  ? N
   N8         1.0     0.110297     0.096860     0.628707    Uiso  ? N
   N9         1.0     0.889023     0.205526     0.377622    Uiso  ? N
   N10        1.0     0.766961     0.090105     0.131980    Uiso  ? N
   N11        1.0     0.565540     0.210833     0.862703    Uiso  ? N
   N12        1.0     0.433936     0.084796     0.580880    Uiso  ? N
   N13        1.0     0.211001     0.531473     0.386496    Uiso  ? N
   N14        1.0     0.109356     0.430813     0.131018    Uiso  ? N
   N15        1.0     0.892104     0.539831     0.877411    Uiso  ? N
   N16        1.0     0.800607     0.415379     0.632792    Uiso  ? N
   N17        1.0     0.567950     0.543609     0.373858    Uiso  ? N
   N18        1.0     0.439409     0.417987     0.125019    Uiso  ? N
   N19        1.0     0.232180     0.517684     0.880450    Uiso  ? N
   N20        1.0     0.111348     0.424981     0.632689    Uiso  ? N
   N21        1.0     0.896886     0.525656     0.387910    Uiso  ? N
   N22        1.0     0.790663     0.435704     0.135930    Uiso  ? N
   N23        1.0     0.559136     0.536766     0.854726    Uiso  ? N
   N24        1.0     0.423908     0.437036     0.629180    Uiso  ? N
   N25        1.0     0.220555     0.879006     0.372239    Uiso  ? N
   N26        1.0     0.110800     0.761871     0.100176    Uiso  ? N
   N27        1.0     0.869159     0.883453     0.879246    Uiso  ? N
   N28        1.0     0.784899     0.758111     0.624092    Uiso  ? N
   N29        1.0     0.542976     0.862744     0.321079    Uiso  ? N
   N30        1.0     0.441675     0.774236     0.068802    Uiso  ? N
   N31        1.0     0.225612     0.885184     0.862516    Uiso  ? N
   N32        1.0     0.110591     0.758510     0.626538    Uiso  ? N
   N33        1.0     0.882129     0.887971     0.385343    Uiso  ? N
   N34        1.0     0.779541     0.759788     0.116471    Uiso  ? N
   N35        1.0     0.561287     0.859642     0.824099    Uiso  ? N
   N36        1.0     0.435688     0.777566     0.582308    Uiso  ? N
