
#======================================================================
# CRYSTAL DATA
#----------------------------------------------------------------------
data_VESTA_phase_1

_chemical_name_common                  'Al   Hf   Mg   N                      '
_cell_length_a                         9.795303
_cell_length_b                         9.777283
_cell_length_c                         10.061041
_cell_angle_alpha                      90.131958
_cell_angle_beta                       89.981094
_cell_angle_gamma                      60.129406
_cell_volume                           835.550421
_space_group_name_H-M_alt              'P 1'
_space_group_IT_number                 1

loop_
_space_group_symop_operation_xyz
   'x, y, z'

loop_
   _atom_site_label
   _atom_site_occupancy
   _atom_site_fract_x
   _atom_site_fract_y
   _atom_site_fract_z
   _atom_site_adp_type
   _atom_site_U_iso_or_equiv
   _atom_site_type_symbol
   Al1        1.0     0.105250     0.101206     0.313387    Uiso  ? Al
   Al2        1.0     0.214005     0.208315     0.059629    Uiso  ? Al
   Al3        1.0     0.786253     0.098851     0.817655    Uiso  ? Al
   Al4        1.0     0.896047     0.206407     0.564387    Uiso  ? Al
   Al5        1.0     0.558615     0.201500     0.049082    Uiso  ? Al
   Al6        1.0     0.103303     0.106600     0.811904    Uiso  ? Al
   Al7        1.0     0.211994     0.209407     0.567240    Uiso  ? Al
   Al8        1.0     0.784158     0.095018     0.309999    Uiso  ? Al
   Al9        1.0     0.098637     0.426054     0.312203    Uiso  ? Al
   Al10       1.0     0.224842     0.524538     0.060736    Uiso  ? Al
   Al11       1.0     0.784328     0.423216     0.813267    Uiso  ? Al
   Al12       1.0     0.891008     0.533875     0.565455    Uiso  ? Al
   Al13       1.0     0.105540     0.423142     0.814072    Uiso  ? Al
   Al14       1.0     0.211603     0.538738     0.570101    Uiso  ? Al
   Al15       1.0     0.786189     0.429508     0.311428    Uiso  ? Al
   Al16       1.0     0.886772     0.541043     0.062309    Uiso  ? Al
   Al17       1.0     0.446036     0.431047     0.814909    Uiso  ? Al
   Al18       1.0     0.232196     0.883613     0.061970    Uiso  ? Al
   Al19       1.0     0.774888     0.757178     0.813327    Uiso  ? Al
   Al20       1.0     0.888756     0.870851     0.565331    Uiso  ? Al
   Al21       1.0     0.447296     0.759848     0.350826    Uiso  ? Al
   Al22       1.0     0.561458     0.862832     0.055127    Uiso  ? Al
   Al23       1.0     0.221011     0.880999     0.571503    Uiso  ? Al
   Al24       1.0     0.870513     0.878817     0.061150    Uiso  ? Al
   Al25       1.0     0.450455     0.759800     0.824332    Uiso  ? Al
   Al26       1.0     0.554867     0.868539     0.573016    Uiso  ? Al
   Hf1        1.0     0.443010     0.088830     0.313697    Uiso  ? Hf
   Hf2        1.0     0.559886     0.200013     0.595138    Uiso  ? Hf
   Hf3        1.0     0.449774     0.427624     0.320243    Uiso  ? Hf
   Hf4        1.0     0.106751     0.767167     0.308327    Uiso  ? Hf
   Hf5        1.0     0.110225     0.762575     0.829417    Uiso  ? Hf
   Mg1        1.0     0.890924     0.207923     0.068566    Uiso  ? Mg
   Mg2        1.0     0.434485     0.090609     0.824295    Uiso  ? Mg
   Mg3        1.0     0.563821     0.539632     0.063829    Uiso  ? Mg
   Mg4        1.0     0.562800     0.540925     0.589775    Uiso  ? Mg
   Mg5        1.0     0.778594     0.751440     0.313812    Uiso  ? Mg
   N1         1.0     0.207126     0.213449     0.375029    Uiso  ? N
   N2         1.0     0.125926     0.088959     0.128856    Uiso  ? N
   N3         1.0     0.891131     0.205327     0.863971    Uiso  ? N
   N4         1.0     0.803819     0.081700     0.626629    Uiso  ? N
   N5         1.0     0.573928     0.194545     0.380989    Uiso  ? N
   N6         1.0     0.444618     0.094988     0.102309    Uiso  ? N
   N7         1.0     0.201546     0.216119     0.873645    Uiso  ? N
   N8         1.0     0.110036     0.096712     0.620655    Uiso  ? N
   N9         1.0     0.888570     0.205047     0.369937    Uiso  ? N
   N10        1.0     0.765640     0.089481     0.122644    Uiso  ? N
   N11        1.0     0.564707     0.210968     0.852239    Uiso  ? N
   N12        1.0     0.430779     0.090017     0.607635    Uiso  ? N
   N13        1.0     0.210285     0.534157     0.376763    Uiso  ? N
   N14        1.0     0.110667     0.428071     0.122531    Uiso  ? N
   N15        1.0     0.890813     0.540382     0.869288    Uiso  ? N
   N16        1.0     0.799373     0.415815     0.625313    Uiso  ? N
   N17        1.0     0.567073     0.542113     0.369379    Uiso  ? N
   N18        1.0     0.439118     0.414885     0.115037    Uiso  ? N
   N19        1.0     0.229642     0.520373     0.871894    Uiso  ? N
   N20        1.0     0.109361     0.427913     0.624186    Uiso  ? N
   N21        1.0     0.897606     0.524975     0.379501    Uiso  ? N
   N22        1.0     0.789773     0.434922     0.127639    Uiso  ? N
   N23        1.0     0.557152     0.537492     0.849384    Uiso  ? N
   N24        1.0     0.422613     0.438402     0.620583    Uiso  ? N
   N25        1.0     0.223108     0.882102     0.378032    Uiso  ? N
   N26        1.0     0.110004     0.761838     0.095414    Uiso  ? N
   N27        1.0     0.871041     0.882534     0.870770    Uiso  ? N
   N28        1.0     0.779489     0.761110     0.620298    Uiso  ? N
   N29        1.0     0.553692     0.866163     0.382218    Uiso  ? N
   N30        1.0     0.440016     0.773639     0.108329    Uiso  ? N
   N31        1.0     0.226437     0.886688     0.868381    Uiso  ? N
   N32        1.0     0.109793     0.760786     0.616212    Uiso  ? N
   N33        1.0     0.882845     0.886480     0.376221    Uiso  ? N
   N34        1.0     0.778231     0.760480     0.109118    Uiso  ? N
   N35        1.0     0.565858     0.857341     0.866290    Uiso  ? N
   N36        1.0     0.433443     0.776633     0.614695    Uiso  ? N
