
#======================================================================
# CRYSTAL DATA
#----------------------------------------------------------------------
data_VESTA_phase_1

_chemical_name_common                  'Al   Hf   Mg   N                      '
_cell_length_a                         9.841157
_cell_length_b                         9.838742
_cell_length_c                         10.046251
_cell_angle_alpha                      89.752586
_cell_angle_beta                       89.806900
_cell_angle_gamma                      59.923767
_cell_volume                           841.747459
_space_group_name_H-M_alt              'P 1'
_space_group_IT_number                 1

loop_
_space_group_symop_operation_xyz
   'x, y, z'

loop_
   _atom_site_label
   _atom_site_occupancy
   _atom_site_fract_x
   _atom_site_fract_y
   _atom_site_fract_z
   _atom_site_adp_type
   _atom_site_U_iso_or_equiv
   _atom_site_type_symbol
   Al1        1.0     0.106764     0.100469     0.378449    Uiso  ? Al
   Al2        1.0     0.213773     0.210359     0.129556    Uiso  ? Al
   Al3        1.0     0.788321     0.096918     0.824321    Uiso  ? Al
   Al4        1.0     0.887113     0.212799     0.570237    Uiso  ? Al
   Al5        1.0     0.560961     0.195083     0.069773    Uiso  ? Al
   Al6        1.0     0.111936     0.101318     0.885623    Uiso  ? Al
   Al7        1.0     0.207745     0.209159     0.635218    Uiso  ? Al
   Al8        1.0     0.786815     0.093057     0.317512    Uiso  ? Al
   Al9        1.0     0.099087     0.426543     0.385243    Uiso  ? Al
   Al10       1.0     0.217080     0.531564     0.125660    Uiso  ? Al
   Al11       1.0     0.782438     0.420176     0.826357    Uiso  ? Al
   Al12       1.0     0.888738     0.542334     0.637487    Uiso  ? Al
   Al13       1.0     0.106338     0.422416     0.882789    Uiso  ? Al
   Al14       1.0     0.217252     0.532491     0.635631    Uiso  ? Al
   Al15       1.0     0.785867     0.424979     0.306392    Uiso  ? Al
   Al16       1.0     0.894399     0.539366     0.131492    Uiso  ? Al
   Al17       1.0     0.446902     0.429412     0.890968    Uiso  ? Al
   Al18       1.0     0.231494     0.880458     0.128872    Uiso  ? Al
   Al19       1.0     0.771052     0.755252     0.882279    Uiso  ? Al
   Al20       1.0     0.880751     0.877256     0.578587    Uiso  ? Al
   Al21       1.0     0.451235     0.760931     0.384949    Uiso  ? Al
   Al22       1.0     0.557686     0.864861     0.128992    Uiso  ? Al
   Al23       1.0     0.228397     0.885375     0.632099    Uiso  ? Al
   Al24       1.0     0.878652     0.876739     0.073587    Uiso  ? Al
   Al25       1.0     0.450116     0.761628     0.883849    Uiso  ? Al
   Al26       1.0     0.556553     0.864429     0.637955    Uiso  ? Al
   Hf1        1.0     0.442524     0.088263     0.359587    Uiso  ? Hf
   Hf2        1.0     0.550582     0.207145     0.619103    Uiso  ? Hf
   Hf3        1.0     0.452690     0.425374     0.356234    Uiso  ? Hf
   Hf4        1.0     0.119367     0.760577     0.380882    Uiso  ? Hf
   Hf5        1.0     0.115684     0.761809     0.865763    Uiso  ? Hf
   Mg1        1.0     0.887212     0.205229     0.076376    Uiso  ? Mg
   Mg2        1.0     0.433283     0.086361     0.882801    Uiso  ? Mg
   Mg3        1.0     0.558976     0.545198     0.101911    Uiso  ? Mg
   Mg4        1.0     0.551293     0.548333     0.627350    Uiso  ? Mg
   Mg5        1.0     0.778302     0.750544     0.381660    Uiso  ? Mg
   N1         1.0     0.200789     0.216686     0.321813    Uiso  ? N
   N2         1.0     0.129771     0.087634     0.073736    Uiso  ? N
   N3         1.0     0.891687     0.202403     0.867818    Uiso  ? N
   N4         1.0     0.796713     0.087333     0.632825    Uiso  ? N
   N5         1.0     0.583782     0.187816     0.389932    Uiso  ? N
   N6         1.0     0.443945     0.095799     0.107049    Uiso  ? N
   N7         1.0     0.203818     0.215503     0.821283    Uiso  ? N
   N8         1.0     0.112443     0.094746     0.570178    Uiso  ? N
   N9         1.0     0.882201     0.210311     0.371805    Uiso  ? N
   N10        1.0     0.768886     0.084943     0.130648    Uiso  ? N
   N11        1.0     0.562564     0.208792     0.853782    Uiso  ? N
   N12        1.0     0.429737     0.087404     0.579825    Uiso  ? N
   N13        1.0     0.209333     0.529050     0.316814    Uiso  ? N
   N14        1.0     0.111487     0.426939     0.071068    Uiso  ? N
   N15        1.0     0.893309     0.542257     0.830807    Uiso  ? N
   N16        1.0     0.792177     0.418182     0.630914    Uiso  ? N
   N17        1.0     0.563345     0.548933     0.336745    Uiso  ? N
   N18        1.0     0.437448     0.417210     0.089918    Uiso  ? N
   N19        1.0     0.231998     0.518802     0.826792    Uiso  ? N
   N20        1.0     0.108392     0.429264     0.576049    Uiso  ? N
   N21        1.0     0.900020     0.529034     0.323663    Uiso  ? N
   N22        1.0     0.789780     0.429988     0.117637    Uiso  ? N
   N23        1.0     0.550440     0.540171     0.847928    Uiso  ? N
   N24        1.0     0.420646     0.443040     0.568117    Uiso  ? N
   N25        1.0     0.230432     0.883418     0.321764    Uiso  ? N
   N26        1.0     0.115569     0.759905     0.084334    Uiso  ? N
   N27        1.0     0.873362     0.883170     0.875045    Uiso  ? N
   N28        1.0     0.775274     0.762567     0.591912    Uiso  ? N
   N29        1.0     0.554976     0.858270     0.317014    Uiso  ? N
   N30        1.0     0.436719     0.779619     0.068986    Uiso  ? N
   N31        1.0     0.230874     0.885069     0.821382    Uiso  ? N
   N32        1.0     0.113137     0.760260     0.600517    Uiso  ? N
   N33        1.0     0.886241     0.888067     0.382169    Uiso  ? N
   N34        1.0     0.776126     0.757641     0.077307    Uiso  ? N
   N35        1.0     0.562417     0.857029     0.824759    Uiso  ? N
   N36        1.0     0.435252     0.779439     0.571261    Uiso  ? N
