
#======================================================================
# CRYSTAL DATA
#----------------------------------------------------------------------
data_VESTA_phase_1

_chemical_name_common                  'Al   Hf   Mg   N                      '
_cell_length_a                         9.839662
_cell_length_b                         9.793101
_cell_length_c                         10.133082
_cell_angle_alpha                      90.257324
_cell_angle_beta                       90.059174
_cell_angle_gamma                      60.009964
_cell_volume                           845.690411
_space_group_name_H-M_alt              'P 1'
_space_group_IT_number                 1

loop_
_space_group_symop_operation_xyz
   'x, y, z'

loop_
   _atom_site_label
   _atom_site_occupancy
   _atom_site_fract_x
   _atom_site_fract_y
   _atom_site_fract_z
   _atom_site_adp_type
   _atom_site_U_iso_or_equiv
   _atom_site_type_symbol
   Al1        1.0     0.106107     0.094819     0.382119    Uiso  ? Al
   Al2        1.0     0.212439     0.214441     0.131761    Uiso  ? Al
   Al3        1.0     0.786862     0.100108     0.826100    Uiso  ? Al
   Al4        1.0     0.889503     0.208805     0.571832    Uiso  ? Al
   Al5        1.0     0.560022     0.203415     0.064391    Uiso  ? Al
   Al6        1.0     0.111452     0.102389     0.888980    Uiso  ? Al
   Al7        1.0     0.212023     0.202147     0.636939    Uiso  ? Al
   Al8        1.0     0.784229     0.094717     0.319523    Uiso  ? Al
   Al9        1.0     0.100037     0.423845     0.368088    Uiso  ? Al
   Al10       1.0     0.228414     0.522133     0.062952    Uiso  ? Al
   Al11       1.0     0.784116     0.422831     0.819402    Uiso  ? Al
   Al12       1.0     0.885272     0.537500     0.576267    Uiso  ? Al
   Al13       1.0     0.105536     0.425669     0.834508    Uiso  ? Al
   Al14       1.0     0.214700     0.540875     0.581973    Uiso  ? Al
   Al15       1.0     0.784815     0.430380     0.316834    Uiso  ? Al
   Al16       1.0     0.888615     0.541380     0.067558    Uiso  ? Al
   Al17       1.0     0.449163     0.431703     0.822036    Uiso  ? Al
   Al18       1.0     0.237181     0.883135     0.123676    Uiso  ? Al
   Al19       1.0     0.775510     0.758803     0.818924    Uiso  ? Al
   Al20       1.0     0.891572     0.870100     0.573408    Uiso  ? Al
   Al21       1.0     0.444297     0.761575     0.389068    Uiso  ? Al
   Al22       1.0     0.557922     0.864793     0.129089    Uiso  ? Al
   Al23       1.0     0.224436     0.881770     0.633588    Uiso  ? Al
   Al24       1.0     0.867041     0.880970     0.066510    Uiso  ? Al
   Al25       1.0     0.450870     0.763101     0.881117    Uiso  ? Al
   Al26       1.0     0.547118     0.869318     0.636029    Uiso  ? Al
   Hf1        1.0     0.441785     0.088847     0.355496    Uiso  ? Hf
   Hf2        1.0     0.558261     0.196685     0.610356    Uiso  ? Hf
   Hf3        1.0     0.452799     0.425106     0.328120    Uiso  ? Hf
   Hf4        1.0     0.103864     0.759499     0.308722    Uiso  ? Hf
   Hf5        1.0     0.109849     0.764794     0.843602    Uiso  ? Hf
   Mg1        1.0     0.886447     0.210857     0.081637    Uiso  ? Mg
   Mg2        1.0     0.434751     0.088438     0.887049    Uiso  ? Mg
   Mg3        1.0     0.567079     0.535171     0.071421    Uiso  ? Mg
   Mg4        1.0     0.561244     0.542464     0.597504    Uiso  ? Mg
   Mg5        1.0     0.783193     0.749616     0.325405    Uiso  ? Mg
   N1         1.0     0.200511     0.211528     0.325331    Uiso  ? N
   N2         1.0     0.129401     0.090563     0.075151    Uiso  ? N
   N3         1.0     0.890502     0.206534     0.872339    Uiso  ? N
   N4         1.0     0.802417     0.082540     0.635876    Uiso  ? N
   N5         1.0     0.579593     0.195609     0.395122    Uiso  ? N
   N6         1.0     0.444599     0.099158     0.109965    Uiso  ? N
   N7         1.0     0.208556     0.208908     0.822763    Uiso  ? N
   N8         1.0     0.113275     0.090956     0.571177    Uiso  ? N
   N9         1.0     0.882320     0.208697     0.374847    Uiso  ? N
   N10        1.0     0.766839     0.089233     0.132895    Uiso  ? N
   N11        1.0     0.564292     0.210251     0.861137    Uiso  ? N
   N12        1.0     0.428425     0.085786     0.574141    Uiso  ? N
   N13        1.0     0.215637     0.531414     0.388145    Uiso  ? N
   N14        1.0     0.108871     0.432157     0.103387    Uiso  ? N
   N15        1.0     0.887640     0.542614     0.872852    Uiso  ? N
   N16        1.0     0.797434     0.416256     0.633618    Uiso  ? N
   N17        1.0     0.566306     0.541700     0.371471    Uiso  ? N
   N18        1.0     0.439964     0.418115     0.122490    Uiso  ? N
   N19        1.0     0.233429     0.520971     0.874067    Uiso  ? N
   N20        1.0     0.109004     0.428362     0.612518    Uiso  ? N
   N21        1.0     0.890499     0.526981     0.391077    Uiso  ? N
   N22        1.0     0.789705     0.438443     0.134816    Uiso  ? N
   N23        1.0     0.558272     0.538897     0.855124    Uiso  ? N
   N24        1.0     0.426103     0.435881     0.630014    Uiso  ? N
   N25        1.0     0.228130     0.877903     0.319445    Uiso  ? N
   N26        1.0     0.111331     0.761619     0.095899    Uiso  ? N
   N27        1.0     0.868305     0.884585     0.878434    Uiso  ? N
   N28        1.0     0.780715     0.762463     0.623721    Uiso  ? N
   N29        1.0     0.546754     0.858167     0.319085    Uiso  ? N
   N30        1.0     0.440842     0.776507     0.066590    Uiso  ? N
   N31        1.0     0.231282     0.885668     0.825274    Uiso  ? N
   N32        1.0     0.109474     0.760204     0.627577    Uiso  ? N
   N33        1.0     0.885085     0.886114     0.385225    Uiso  ? N
   N34        1.0     0.780707     0.759687     0.114790    Uiso  ? N
   N35        1.0     0.557463     0.862554     0.822094    Uiso  ? N
   N36        1.0     0.429947     0.780809     0.573352    Uiso  ? N
