
#======================================================================
# CRYSTAL DATA
#----------------------------------------------------------------------
data_VESTA_phase_1

_chemical_name_common                  'Al   Hf   Mg   N                      '
_cell_length_a                         9.830396
_cell_length_b                         9.796581
_cell_length_c                         10.101034
_cell_angle_alpha                      90.261024
_cell_angle_beta                       90.170105
_cell_angle_gamma                      60.032154
_cell_volume                           842.709702
_space_group_name_H-M_alt              'P 1'
_space_group_IT_number                 1

loop_
_space_group_symop_operation_xyz
   'x, y, z'

loop_
   _atom_site_label
   _atom_site_occupancy
   _atom_site_fract_x
   _atom_site_fract_y
   _atom_site_fract_z
   _atom_site_adp_type
   _atom_site_U_iso_or_equiv
   _atom_site_type_symbol
   Al1        1.0     0.100500     0.103961     0.317019    Uiso  ? Al
   Al2        1.0     0.212886     0.211316     0.070813    Uiso  ? Al
   Al3        1.0     0.786754     0.099346     0.825709    Uiso  ? Al
   Al4        1.0     0.896054     0.206085     0.570761    Uiso  ? Al
   Al5        1.0     0.559523     0.204432     0.063610    Uiso  ? Al
   Al6        1.0     0.103441     0.109434     0.822172    Uiso  ? Al
   Al7        1.0     0.209441     0.208508     0.570521    Uiso  ? Al
   Al8        1.0     0.784528     0.096047     0.319244    Uiso  ? Al
   Al9        1.0     0.096651     0.426345     0.319942    Uiso  ? Al
   Al10       1.0     0.226966     0.521846     0.068383    Uiso  ? Al
   Al11       1.0     0.784009     0.423873     0.819717    Uiso  ? Al
   Al12       1.0     0.892227     0.532681     0.573058    Uiso  ? Al
   Al13       1.0     0.107906     0.421134     0.821436    Uiso  ? Al
   Al14       1.0     0.211933     0.537507     0.580405    Uiso  ? Al
   Al15       1.0     0.784670     0.431486     0.318931    Uiso  ? Al
   Al16       1.0     0.886814     0.542090     0.069623    Uiso  ? Al
   Al17       1.0     0.447492     0.431465     0.822324    Uiso  ? Al
   Al18       1.0     0.236596     0.877961     0.126063    Uiso  ? Al
   Al19       1.0     0.778772     0.754692     0.819226    Uiso  ? Al
   Al20       1.0     0.891161     0.870039     0.574942    Uiso  ? Al
   Al21       1.0     0.443319     0.763655     0.391457    Uiso  ? Al
   Al22       1.0     0.557813     0.863895     0.128547    Uiso  ? Al
   Al23       1.0     0.226753     0.876618     0.634886    Uiso  ? Al
   Al24       1.0     0.866529     0.881137     0.067973    Uiso  ? Al
   Al25       1.0     0.450977     0.762561     0.881864    Uiso  ? Al
   Al26       1.0     0.549897     0.868480     0.635350    Uiso  ? Al
   Hf1        1.0     0.438725     0.095732     0.339506    Uiso  ? Hf
   Hf2        1.0     0.560354     0.198335     0.604136    Uiso  ? Hf
   Hf3        1.0     0.450265     0.430378     0.330950    Uiso  ? Hf
   Hf4        1.0     0.101353     0.759419     0.314900    Uiso  ? Hf
   Hf5        1.0     0.110557     0.761157     0.846491    Uiso  ? Hf
   Mg1        1.0     0.889666     0.209628     0.075717    Uiso  ? Mg
   Mg2        1.0     0.441166     0.088164     0.868120    Uiso  ? Mg
   Mg3        1.0     0.566304     0.534791     0.072600    Uiso  ? Mg
   Mg4        1.0     0.562064     0.543020     0.599833    Uiso  ? Mg
   Mg5        1.0     0.779825     0.751993     0.330300    Uiso  ? Mg
   N1         1.0     0.198605     0.215176     0.379677    Uiso  ? N
   N2         1.0     0.122236     0.095445     0.131618    Uiso  ? N
   N3         1.0     0.891524     0.205801     0.872205    Uiso  ? N
   N4         1.0     0.803677     0.082110     0.635671    Uiso  ? N
   N5         1.0     0.578429     0.198885     0.391210    Uiso  ? N
   N6         1.0     0.442924     0.100834     0.112965    Uiso  ? N
   N7         1.0     0.204169     0.215563     0.883925    Uiso  ? N
   N8         1.0     0.108834     0.098917     0.626054    Uiso  ? N
   N9         1.0     0.888196     0.205707     0.376963    Uiso  ? N
   N10        1.0     0.766906     0.089964     0.131983    Uiso  ? N
   N11        1.0     0.565484     0.211135     0.862493    Uiso  ? N
   N12        1.0     0.434232     0.084909     0.580729    Uiso  ? N
   N13        1.0     0.211704     0.528611     0.387698    Uiso  ? N
   N14        1.0     0.109458     0.431025     0.131110    Uiso  ? N
   N15        1.0     0.892164     0.539755     0.877057    Uiso  ? N
   N16        1.0     0.799148     0.416096     0.632547    Uiso  ? N
   N17        1.0     0.568071     0.543414     0.373140    Uiso  ? N
   N18        1.0     0.439409     0.418220     0.125031    Uiso  ? N
   N19        1.0     0.232450     0.517316     0.880368    Uiso  ? N
   N20        1.0     0.111381     0.424507     0.632551    Uiso  ? N
   N21        1.0     0.897205     0.524891     0.387819    Uiso  ? N
   N22        1.0     0.789730     0.437041     0.135363    Uiso  ? N
   N23        1.0     0.558161     0.538243     0.855267    Uiso  ? N
   N24        1.0     0.423982     0.437564     0.629286    Uiso  ? N
   N25        1.0     0.229807     0.870672     0.326831    Uiso  ? N
   N26        1.0     0.110206     0.760299     0.099397    Uiso  ? N
   N27        1.0     0.868624     0.883729     0.879013    Uiso  ? N
   N28        1.0     0.784205     0.758018     0.623204    Uiso  ? N
   N29        1.0     0.543246     0.862422     0.320145    Uiso  ? N
   N30        1.0     0.439199     0.777307     0.067489    Uiso  ? N
   N31        1.0     0.232129     0.881106     0.831186    Uiso  ? N
   N32        1.0     0.110065     0.757741     0.627908    Uiso  ? N
   N33        1.0     0.880669     0.889060     0.386762    Uiso  ? N
   N34        1.0     0.780317     0.759600     0.116754    Uiso  ? N
   N35        1.0     0.560817     0.858327     0.822642    Uiso  ? N
   N36        1.0     0.430778     0.781217     0.575678    Uiso  ? N
