
#======================================================================
# CRYSTAL DATA
#----------------------------------------------------------------------
data_VESTA_phase_1

_chemical_name_common                  'supercell of 100% icsd_608626.cif, 0% '
_cell_length_a                         9.756597
_cell_length_b                         9.744651
_cell_length_c                         10.140322
_cell_angle_alpha                      89.969482
_cell_angle_beta                       89.903893
_cell_angle_gamma                      60.010162
_cell_volume                           835.008357
_space_group_name_H-M_alt              'P 1'
_space_group_IT_number                 1

loop_
_space_group_symop_operation_xyz
   'x, y, z'

loop_
   _atom_site_label
   _atom_site_occupancy
   _atom_site_fract_x
   _atom_site_fract_y
   _atom_site_fract_z
   _atom_site_adp_type
   _atom_site_U_iso_or_equiv
   _atom_site_type_symbol
   Al1        1.0     0.102361     0.102142     0.411147    Uiso  ? Al
   Al2        1.0     0.212470     0.209371     0.155436    Uiso  ? Al
   Al3        1.0     0.776745     0.100346     0.914083    Uiso  ? Al
   Al4        1.0     0.896446     0.206737     0.660158    Uiso  ? Al
   Al5        1.0     0.561806     0.198173     0.151304    Uiso  ? Al
   Al6        1.0     0.109002     0.102514     0.910266    Uiso  ? Al
   Al7        1.0     0.213462     0.207943     0.662089    Uiso  ? Al
   Al8        1.0     0.791396     0.094133     0.408660    Uiso  ? Al
   Al9        1.0     0.097351     0.426601     0.410228    Uiso  ? Al
   Al10       1.0     0.215523     0.533033     0.152523    Uiso  ? Al
   Al11       1.0     0.779138     0.429192     0.911091    Uiso  ? Al
   Al12       1.0     0.888223     0.539578     0.661564    Uiso  ? Al
   Al13       1.0     0.105767     0.422669     0.908629    Uiso  ? Al
   Al14       1.0     0.219205     0.532416     0.662342    Uiso  ? Al
   Al15       1.0     0.788555     0.424585     0.413371    Uiso  ? Al
   Al16       1.0     0.889255     0.535252     0.157727    Uiso  ? Al
   Al17       1.0     0.449670     0.426982     0.923173    Uiso  ? Al
   Al18       1.0     0.229372     0.881101     0.156408    Uiso  ? Al
   Al19       1.0     0.772958     0.757352     0.909288    Uiso  ? Al
   Al20       1.0     0.882015     0.870461     0.663358    Uiso  ? Al
   Al21       1.0     0.450249     0.760506     0.413039    Uiso  ? Al
   Al22       1.0     0.557523     0.865192     0.154611    Uiso  ? Al
   Al23       1.0     0.229507     0.880485     0.660220    Uiso  ? Al
   Al24       1.0     0.878705     0.877001     0.156298    Uiso  ? Al
   Al25       1.0     0.450908     0.760108     0.911809    Uiso  ? Al
   Al26       1.0     0.558050     0.863892     0.664957    Uiso  ? Al
   Hf1        1.0     0.441360     0.087622     0.386321    Uiso  ? Hf
   Hf2        1.0     0.556703     0.204897     0.661075    Uiso  ? Hf
   Hf3        1.0     0.447755     0.431700     0.385945    Uiso  ? Hf
   Hf4        1.0     0.106646     0.767031     0.408384    Uiso  ? Hf
   Hf5        1.0     0.111863     0.763162     0.901813    Uiso  ? Hf
   Mg1        1.0     0.889953     0.207993     0.156923    Uiso  ? Mg
   Mg2        1.0     0.438304     0.091098     0.919290    Uiso  ? Mg
   Mg3        1.0     0.564812     0.544403     0.146660    Uiso  ? Mg
   Mg4        1.0     0.558534     0.544384     0.661635    Uiso  ? Mg
   Mg5        1.0     0.779339     0.752060     0.407609    Uiso  ? Mg
   N1         1.0     0.199947     0.215113     0.347586    Uiso  ? N
   N2         1.0     0.123719     0.089184     0.095233    Uiso  ? N
   N3         1.0     0.889882     0.202904     0.850736    Uiso  ? N
   N4         1.0     0.794683     0.084784     0.599848    Uiso  ? N
   N5         1.0     0.580179     0.193085     0.350362    Uiso  ? N
   N6         1.0     0.441627     0.095545     0.134654    Uiso  ? N
   N7         1.0     0.207252     0.213795     0.846975    Uiso  ? N
   N8         1.0     0.112632     0.093750     0.600558    Uiso  ? N
   N9         1.0     0.889823     0.206232     0.363395    Uiso  ? N
   N10        1.0     0.772445     0.086933     0.097254    Uiso  ? N
   N11        1.0     0.559370     0.214180     0.863215    Uiso  ? N
   N12        1.0     0.436391     0.087993     0.601485    Uiso  ? N
   N13        1.0     0.204480     0.534703     0.342614    Uiso  ? N
   N14        1.0     0.109872     0.427219     0.096765    Uiso  ? N
   N15        1.0     0.891139     0.540560     0.849840    Uiso  ? N
   N16        1.0     0.795225     0.419934     0.602780    Uiso  ? N
   N17        1.0     0.569006     0.546592     0.361256    Uiso  ? N
   N18        1.0     0.436386     0.420786     0.117134    Uiso  ? N
   N19        1.0     0.231448     0.521296     0.852597    Uiso  ? N
   N20        1.0     0.110430     0.428228     0.600069    Uiso  ? N
   N21        1.0     0.895428     0.524816     0.345499    Uiso  ? N
   N22        1.0     0.791310     0.432117     0.091558    Uiso  ? N
   N23        1.0     0.552079     0.538695     0.869064    Uiso  ? N
   N24        1.0     0.427035     0.435261     0.592837    Uiso  ? N
   N25        1.0     0.229239     0.881017     0.349422    Uiso  ? N
   N26        1.0     0.111928     0.761790     0.111042    Uiso  ? N
   N27        1.0     0.872411     0.881741     0.851724    Uiso  ? N
   N28        1.0     0.777309     0.761449     0.612114    Uiso  ? N
   N29        1.0     0.554545     0.856753     0.341567    Uiso  ? N
   N30        1.0     0.436296     0.777764     0.095864    Uiso  ? N
   N31        1.0     0.230084     0.882074     0.847797    Uiso  ? N
   N32        1.0     0.110367     0.760825     0.621354    Uiso  ? N
   N33        1.0     0.881435     0.886370     0.344488    Uiso  ? N
   N34        1.0     0.779522     0.759810     0.100896    Uiso  ? N
   N35        1.0     0.562154     0.859187     0.851013    Uiso  ? N
   N36        1.0     0.437059     0.776785     0.597927    Uiso  ? N
