
#======================================================================
# CRYSTAL DATA
#----------------------------------------------------------------------
data_VESTA_phase_1

_chemical_name_common                  'Al   Hf   Mg   N                      '
_cell_length_a                         9.880569
_cell_length_b                         9.875750
_cell_length_c                         9.936399
_cell_angle_alpha                      89.830734
_cell_angle_beta                       89.865547
_cell_angle_gamma                      59.978088
_cell_volume                           839.486415
_space_group_name_H-M_alt              'P 1'
_space_group_IT_number                 1

loop_
_space_group_symop_operation_xyz
   'x, y, z'

loop_
   _atom_site_label
   _atom_site_occupancy
   _atom_site_fract_x
   _atom_site_fract_y
   _atom_site_fract_z
   _atom_site_adp_type
   _atom_site_U_iso_or_equiv
   _atom_site_type_symbol
   Al1        1.0     0.106591     0.099740     0.377996    Uiso  ? Al
   Al2        1.0     0.212839     0.210325     0.128155    Uiso  ? Al
   Al3        1.0     0.788265     0.097867     0.827059    Uiso  ? Al
   Al4        1.0     0.888275     0.209100     0.571248    Uiso  ? Al
   Al5        1.0     0.561582     0.195319     0.069440    Uiso  ? Al
   Al6        1.0     0.111619     0.101014     0.885848    Uiso  ? Al
   Al7        1.0     0.209325     0.207773     0.636730    Uiso  ? Al
   Al8        1.0     0.786357     0.093184     0.316802    Uiso  ? Al
   Al9        1.0     0.102531     0.423471     0.387109    Uiso  ? Al
   Al10       1.0     0.216394     0.531561     0.124466    Uiso  ? Al
   Al11       1.0     0.784406     0.421140     0.821338    Uiso  ? Al
   Al12       1.0     0.890465     0.535882     0.615081    Uiso  ? Al
   Al13       1.0     0.104361     0.423276     0.880831    Uiso  ? Al
   Al14       1.0     0.218893     0.531655     0.636334    Uiso  ? Al
   Al15       1.0     0.785326     0.424827     0.316217    Uiso  ? Al
   Al16       1.0     0.893973     0.539285     0.130545    Uiso  ? Al
   Al17       1.0     0.448290     0.430181     0.891665    Uiso  ? Al
   Al18       1.0     0.232548     0.879854     0.128681    Uiso  ? Al
   Al19       1.0     0.776207     0.758657     0.822955    Uiso  ? Al
   Al20       1.0     0.881016     0.878336     0.577554    Uiso  ? Al
   Al21       1.0     0.448694     0.761399     0.385617    Uiso  ? Al
   Al22       1.0     0.559222     0.864461     0.129582    Uiso  ? Al
   Al23       1.0     0.226803     0.884651     0.632554    Uiso  ? Al
   Al24       1.0     0.874470     0.874791     0.072638    Uiso  ? Al
   Al25       1.0     0.452127     0.760684     0.883996    Uiso  ? Al
   Al26       1.0     0.547593     0.870654     0.634128    Uiso  ? Al
   Hf1        1.0     0.440392     0.091564     0.356634    Uiso  ? Hf
   Hf2        1.0     0.551391     0.207185     0.618236    Uiso  ? Hf
   Hf3        1.0     0.451923     0.425345     0.353008    Uiso  ? Hf
   Hf4        1.0     0.117657     0.760604     0.377477    Uiso  ? Hf
   Hf5        1.0     0.115500     0.761617     0.867146    Uiso  ? Hf
   Mg1        1.0     0.887772     0.206558     0.079397    Uiso  ? Mg
   Mg2        1.0     0.433762     0.086586     0.883814    Uiso  ? Mg
   Mg3        1.0     0.562832     0.544774     0.103474    Uiso  ? Mg
   Mg4        1.0     0.550433     0.547682     0.624507    Uiso  ? Mg
   Mg5        1.0     0.781083     0.757869     0.344205    Uiso  ? Mg
   N1         1.0     0.199367     0.216472     0.321605    Uiso  ? N
   N2         1.0     0.129519     0.086774     0.075439    Uiso  ? N
   N3         1.0     0.891770     0.204277     0.867307    Uiso  ? N
   N4         1.0     0.796846     0.086736     0.633969    Uiso  ? N
   N5         1.0     0.583875     0.188737     0.388893    Uiso  ? N
   N6         1.0     0.444088     0.096547     0.108388    Uiso  ? N
   N7         1.0     0.204759     0.214584     0.824535    Uiso  ? N
   N8         1.0     0.112794     0.094227     0.572190    Uiso  ? N
   N9         1.0     0.883395     0.206827     0.371929    Uiso  ? N
   N10        1.0     0.769497     0.084983     0.127792    Uiso  ? N
   N11        1.0     0.562888     0.209540     0.855757    Uiso  ? N
   N12        1.0     0.428492     0.089674     0.579900    Uiso  ? N
   N13        1.0     0.207951     0.528458     0.317526    Uiso  ? N
   N14        1.0     0.109839     0.427279     0.072603    Uiso  ? N
   N15        1.0     0.894275     0.539477     0.826234    Uiso  ? N
   N16        1.0     0.790274     0.416607     0.625214    Uiso  ? N
   N17        1.0     0.561656     0.549287     0.340004    Uiso  ? N
   N18        1.0     0.438154     0.417427     0.093445    Uiso  ? N
   N19        1.0     0.232812     0.519360     0.829920    Uiso  ? N
   N20        1.0     0.114852     0.424738     0.578460    Uiso  ? N
   N21        1.0     0.896259     0.526804     0.350482    Uiso  ? N
   N22        1.0     0.792388     0.429413     0.126355    Uiso  ? N
   N23        1.0     0.553121     0.539260     0.848775    Uiso  ? N
   N24        1.0     0.420968     0.441869     0.568869    Uiso  ? N
   N25        1.0     0.229441     0.882798     0.323135    Uiso  ? N
   N26        1.0     0.115404     0.760021     0.086557    Uiso  ? N
   N27        1.0     0.872177     0.881603     0.874440    Uiso  ? N
   N28        1.0     0.776234     0.766927     0.614950    Uiso  ? N
   N29        1.0     0.548611     0.862432     0.322823    Uiso  ? N
   N30        1.0     0.438379     0.778834     0.071140    Uiso  ? N
   N31        1.0     0.230652     0.883973     0.823840    Uiso  ? N
   N32        1.0     0.113078     0.759342     0.600326    Uiso  ? N
   N33        1.0     0.884815     0.889287     0.383807    Uiso  ? N
   N34        1.0     0.781204     0.758400     0.112666    Uiso  ? N
   N35        1.0     0.558768     0.860059     0.824216    Uiso  ? N
   N36        1.0     0.432944     0.778997     0.573185    Uiso  ? N
