
#======================================================================
# CRYSTAL DATA
#----------------------------------------------------------------------
data_VESTA_phase_1

_chemical_name_common                  'Al   Hf   Mg   N                      '
_cell_length_a                         9.799547
_cell_length_b                         9.766805
_cell_length_c                         10.146297
_cell_angle_alpha                      90.001389
_cell_angle_beta                       89.852142
_cell_angle_gamma                      60.164238
_cell_volume                           842.386043
_space_group_name_H-M_alt              'P 1'
_space_group_IT_number                 1

loop_
_space_group_symop_operation_xyz
   'x, y, z'

loop_
   _atom_site_label
   _atom_site_occupancy
   _atom_site_fract_x
   _atom_site_fract_y
   _atom_site_fract_z
   _atom_site_adp_type
   _atom_site_U_iso_or_equiv
   _atom_site_type_symbol
   Al1        1.0     0.104234     0.100223     0.311920    Uiso  ? Al
   Al2        1.0     0.212480     0.209791     0.061005    Uiso  ? Al
   Al3        1.0     0.786376     0.098748     0.817204    Uiso  ? Al
   Al4        1.0     0.895869     0.206391     0.563359    Uiso  ? Al
   Al5        1.0     0.559706     0.202698     0.052316    Uiso  ? Al
   Al6        1.0     0.103514     0.105933     0.810698    Uiso  ? Al
   Al7        1.0     0.210683     0.209222     0.565504    Uiso  ? Al
   Al8        1.0     0.784919     0.095609     0.309926    Uiso  ? Al
   Al9        1.0     0.096930     0.427386     0.311802    Uiso  ? Al
   Al10       1.0     0.225189     0.525373     0.060337    Uiso  ? Al
   Al11       1.0     0.784803     0.422634     0.811543    Uiso  ? Al
   Al12       1.0     0.891316     0.534193     0.564790    Uiso  ? Al
   Al13       1.0     0.106470     0.422273     0.813654    Uiso  ? Al
   Al14       1.0     0.212814     0.536898     0.569050    Uiso  ? Al
   Al15       1.0     0.785993     0.430137     0.311645    Uiso  ? Al
   Al16       1.0     0.887607     0.540350     0.061732    Uiso  ? Al
   Al17       1.0     0.446708     0.430367     0.814552    Uiso  ? Al
   Al18       1.0     0.225454     0.884796     0.058755    Uiso  ? Al
   Al19       1.0     0.779857     0.754318     0.814813    Uiso  ? Al
   Al20       1.0     0.888820     0.870280     0.564120    Uiso  ? Al
   Al21       1.0     0.450153     0.762721     0.387979    Uiso  ? Al
   Al22       1.0     0.557350     0.862078     0.117186    Uiso  ? Al
   Al23       1.0     0.218142     0.882596     0.567281    Uiso  ? Al
   Al24       1.0     0.871110     0.878796     0.059961    Uiso  ? Al
   Al25       1.0     0.454701     0.758777     0.875278    Uiso  ? Al
   Al26       1.0     0.550942     0.867664     0.633756    Uiso  ? Al
   Hf1        1.0     0.437048     0.098296     0.320137    Uiso  ? Hf
   Hf2        1.0     0.560640     0.198902     0.592703    Uiso  ? Hf
   Hf3        1.0     0.450717     0.430056     0.320063    Uiso  ? Hf
   Hf4        1.0     0.106220     0.766230     0.308274    Uiso  ? Hf
   Hf5        1.0     0.110844     0.761561     0.824321    Uiso  ? Hf
   Mg1        1.0     0.891981     0.207386     0.067358    Uiso  ? Mg
   Mg2        1.0     0.436329     0.093360     0.843941    Uiso  ? Mg
   Mg3        1.0     0.568303     0.531564     0.064861    Uiso  ? Mg
   Mg4        1.0     0.562288     0.541863     0.595140    Uiso  ? Mg
   Mg5        1.0     0.781484     0.751895     0.317020    Uiso  ? Mg
   N1         1.0     0.200494     0.215760     0.374992    Uiso  ? N
   N2         1.0     0.126995     0.087465     0.128585    Uiso  ? N
   N3         1.0     0.891312     0.205292     0.863794    Uiso  ? N
   N4         1.0     0.803897     0.080983     0.627499    Uiso  ? N
   N5         1.0     0.576898     0.197453     0.381646    Uiso  ? N
   N6         1.0     0.441529     0.100407     0.103952    Uiso  ? N
   N7         1.0     0.200889     0.215866     0.875302    Uiso  ? N
   N8         1.0     0.110022     0.096171     0.620705    Uiso  ? N
   N9         1.0     0.888664     0.205362     0.370236    Uiso  ? N
   N10        1.0     0.766898     0.088935     0.123612    Uiso  ? N
   N11        1.0     0.565744     0.210944     0.855574    Uiso  ? N
   N12        1.0     0.432032     0.087656     0.592240    Uiso  ? N
   N13        1.0     0.211537     0.532260     0.377461    Uiso  ? N
   N14        1.0     0.110294     0.429295     0.123165    Uiso  ? N
   N15        1.0     0.891591     0.538756     0.870130    Uiso  ? N
   N16        1.0     0.799837     0.415575     0.625040    Uiso  ? N
   N17        1.0     0.567800     0.543438     0.365714    Uiso  ? N
   N18        1.0     0.439248     0.416586     0.115907    Uiso  ? N
   N19        1.0     0.230328     0.520003     0.872601    Uiso  ? N
   N20        1.0     0.110059     0.426694     0.624850    Uiso  ? N
   N21        1.0     0.896786     0.526028     0.380085    Uiso  ? N
   N22        1.0     0.791641     0.433877     0.128794    Uiso  ? N
   N23        1.0     0.558475     0.536484     0.846662    Uiso  ? N
   N24        1.0     0.423020     0.437415     0.622185    Uiso  ? N
   N25        1.0     0.219479     0.882761     0.373295    Uiso  ? N
   N26        1.0     0.110896     0.761849     0.096728    Uiso  ? N
   N27        1.0     0.872328     0.881877     0.871220    Uiso  ? N
   N28        1.0     0.784728     0.757979     0.618486    Uiso  ? N
   N29        1.0     0.543514     0.864426     0.311227    Uiso  ? N
   N30        1.0     0.441832     0.771456     0.062743    Uiso  ? N
   N31        1.0     0.222562     0.887370     0.864368    Uiso  ? N
   N32        1.0     0.111113     0.759969     0.613721    Uiso  ? N
   N33        1.0     0.882155     0.887317     0.376762    Uiso  ? N
   N34        1.0     0.780732     0.758712     0.106415    Uiso  ? N
   N35        1.0     0.561977     0.858210     0.820119    Uiso  ? N
   N36        1.0     0.436252     0.778289     0.574172    Uiso  ? N
