
#======================================================================
# CRYSTAL DATA
#----------------------------------------------------------------------
data_VESTA_phase_1

_chemical_name_common                  'Al   Hf   Mg   N                      '
_cell_length_a                         9.815742
_cell_length_b                         9.808964
_cell_length_c                         10.021293
_cell_angle_alpha                      90.042397
_cell_angle_beta                       89.808472
_cell_angle_gamma                      59.931515
_cell_volume                           835.019052
_space_group_name_H-M_alt              'P 1'
_space_group_IT_number                 1

loop_
_space_group_symop_operation_xyz
   'x, y, z'

loop_
   _atom_site_label
   _atom_site_occupancy
   _atom_site_fract_x
   _atom_site_fract_y
   _atom_site_fract_z
   _atom_site_adp_type
   _atom_site_U_iso_or_equiv
   _atom_site_type_symbol
   Al1        1.0     0.100792     0.102517     0.393624    Uiso  ? Al
   Al2        1.0     0.214147     0.209869     0.140024    Uiso  ? Al
   Al3        1.0     0.782262     0.098543     0.888436    Uiso  ? Al
   Al4        1.0     0.896637     0.205855     0.648056    Uiso  ? Al
   Al5        1.0     0.552390     0.201248     0.083144    Uiso  ? Al
   Al6        1.0     0.111761     0.102221     0.894864    Uiso  ? Al
   Al7        1.0     0.212448     0.208286     0.644605    Uiso  ? Al
   Al8        1.0     0.785635     0.097642     0.332472    Uiso  ? Al
   Al9        1.0     0.097314     0.426899     0.394180    Uiso  ? Al
   Al10       1.0     0.214572     0.533875     0.137162    Uiso  ? Al
   Al11       1.0     0.779099     0.431995     0.894569    Uiso  ? Al
   Al12       1.0     0.888925     0.538954     0.644243    Uiso  ? Al
   Al13       1.0     0.105444     0.422965     0.892642    Uiso  ? Al
   Al14       1.0     0.218718     0.532480     0.645666    Uiso  ? Al
   Al15       1.0     0.788208     0.422989     0.396854    Uiso  ? Al
   Al16       1.0     0.888786     0.536306     0.143558    Uiso  ? Al
   Al17       1.0     0.445952     0.433524     0.902231    Uiso  ? Al
   Al18       1.0     0.229947     0.880655     0.140906    Uiso  ? Al
   Al19       1.0     0.773818     0.753943     0.893835    Uiso  ? Al
   Al20       1.0     0.880745     0.871586     0.653233    Uiso  ? Al
   Al21       1.0     0.450024     0.759747     0.395949    Uiso  ? Al
   Al22       1.0     0.557606     0.864593     0.138044    Uiso  ? Al
   Al23       1.0     0.229576     0.882272     0.643096    Uiso  ? Al
   Al24       1.0     0.882099     0.869640     0.133134    Uiso  ? Al
   Al25       1.0     0.451227     0.759234     0.895306    Uiso  ? Al
   Al26       1.0     0.558486     0.862831     0.648028    Uiso  ? Al
   Hf1        1.0     0.442006     0.087133     0.371726    Uiso  ? Hf
   Hf2        1.0     0.558424     0.204577     0.636655    Uiso  ? Hf
   Hf3        1.0     0.447567     0.430200     0.370400    Uiso  ? Hf
   Hf4        1.0     0.103502     0.769193     0.394275    Uiso  ? Hf
   Hf5        1.0     0.115557     0.761714     0.882783    Uiso  ? Hf
   Mg1        1.0     0.894871     0.213754     0.129980    Uiso  ? Mg
   Mg2        1.0     0.433515     0.085297     0.893099    Uiso  ? Mg
   Mg3        1.0     0.563797     0.544915     0.131299    Uiso  ? Mg
   Mg4        1.0     0.558755     0.544802     0.642188    Uiso  ? Mg
   Mg5        1.0     0.778612     0.752983     0.391542    Uiso  ? Mg
   N1         1.0     0.200472     0.215193     0.333381    Uiso  ? N
   N2         1.0     0.128324     0.088127     0.080898    Uiso  ? N
   N3         1.0     0.893418     0.206016     0.843350    Uiso  ? N
   N4         1.0     0.797104     0.085254     0.620785    Uiso  ? N
   N5         1.0     0.579456     0.191687     0.381649    Uiso  ? N
   N6         1.0     0.442631     0.095138     0.116565    Uiso  ? N
   N7         1.0     0.205258     0.215382     0.831174    Uiso  ? N
   N8         1.0     0.111274     0.094899     0.584637    Uiso  ? N
   N9         1.0     0.890313     0.206365     0.340966    Uiso  ? N
   N10        1.0     0.771967     0.089285     0.094740    Uiso  ? N
   N11        1.0     0.557691     0.212478     0.863258    Uiso  ? N
   N12        1.0     0.435097     0.085613     0.590728    Uiso  ? N
   N13        1.0     0.203017     0.536568     0.329160    Uiso  ? N
   N14        1.0     0.109727     0.427506     0.082706    Uiso  ? N
   N15        1.0     0.892138     0.539763     0.834146    Uiso  ? N
   N16        1.0     0.796904     0.418071     0.588202    Uiso  ? N
   N17        1.0     0.568826     0.544921     0.346824    Uiso  ? N
   N18        1.0     0.434720     0.422722     0.101301    Uiso  ? N
   N19        1.0     0.231035     0.520538     0.837640    Uiso  ? N
   N20        1.0     0.110792     0.428103     0.585091    Uiso  ? N
   N21        1.0     0.894830     0.524631     0.332425    Uiso  ? N
   N22        1.0     0.788361     0.438122     0.076460    Uiso  ? N
   N23        1.0     0.552338     0.539248     0.852025    Uiso  ? N
   N24        1.0     0.424690     0.441256     0.580749    Uiso  ? N
   N25        1.0     0.227880     0.880340     0.335064    Uiso  ? N
   N26        1.0     0.113931     0.760691     0.094084    Uiso  ? N
   N27        1.0     0.875495     0.876147     0.847133    Uiso  ? N
   N28        1.0     0.778464     0.761659     0.598426    Uiso  ? N
   N29        1.0     0.554094     0.856680     0.326510    Uiso  ? N
   N30        1.0     0.436340     0.777292     0.081288    Uiso  ? N
   N31        1.0     0.231311     0.883700     0.832605    Uiso  ? N
   N32        1.0     0.108879     0.761504     0.609934    Uiso  ? N
   N33        1.0     0.882041     0.881960     0.323598    Uiso  ? N
   N34        1.0     0.778443     0.758073     0.085787    Uiso  ? N
   N35        1.0     0.564243     0.854984     0.835914    Uiso  ? N
   N36        1.0     0.437071     0.777008     0.582348    Uiso  ? N
