
#======================================================================
# CRYSTAL DATA
#----------------------------------------------------------------------
data_VESTA_phase_1

_chemical_name_common                  'Al   Hf   Mg   N                      '
_cell_length_a                         9.842291
_cell_length_b                         9.830416
_cell_length_c                         10.070438
_cell_angle_alpha                      90.010742
_cell_angle_beta                       89.972511
_cell_angle_gamma                      59.930866
_cell_volume                           843.226056
_space_group_name_H-M_alt              'P 1'
_space_group_IT_number                 1

loop_
_space_group_symop_operation_xyz
   'x, y, z'

loop_
   _atom_site_label
   _atom_site_occupancy
   _atom_site_fract_x
   _atom_site_fract_y
   _atom_site_fract_z
   _atom_site_adp_type
   _atom_site_U_iso_or_equiv
   _atom_site_type_symbol
   Al1        1.0     0.105461     0.100758     0.379967    Uiso  ? Al
   Al2        1.0     0.212003     0.211831     0.128906    Uiso  ? Al
   Al3        1.0     0.789195     0.096537     0.824498    Uiso  ? Al
   Al4        1.0     0.887552     0.210457     0.571009    Uiso  ? Al
   Al5        1.0     0.560354     0.196997     0.070377    Uiso  ? Al
   Al6        1.0     0.112159     0.100564     0.884623    Uiso  ? Al
   Al7        1.0     0.208952     0.207744     0.635871    Uiso  ? Al
   Al8        1.0     0.783278     0.095584     0.317257    Uiso  ? Al
   Al9        1.0     0.102883     0.422837     0.387816    Uiso  ? Al
   Al10       1.0     0.219467     0.526515     0.124469    Uiso  ? Al
   Al11       1.0     0.785814     0.421138     0.821113    Uiso  ? Al
   Al12       1.0     0.883043     0.537638     0.573722    Uiso  ? Al
   Al13       1.0     0.112235     0.419656     0.878065    Uiso  ? Al
   Al14       1.0     0.216609     0.536666     0.634352    Uiso  ? Al
   Al15       1.0     0.788928     0.428681     0.312392    Uiso  ? Al
   Al16       1.0     0.884075     0.543153     0.063071    Uiso  ? Al
   Al17       1.0     0.449650     0.429880     0.890637    Uiso  ? Al
   Al18       1.0     0.234854     0.882672     0.128696    Uiso  ? Al
   Al19       1.0     0.778127     0.756068     0.818604    Uiso  ? Al
   Al20       1.0     0.884443     0.873832     0.573051    Uiso  ? Al
   Al21       1.0     0.449949     0.760931     0.386028    Uiso  ? Al
   Al22       1.0     0.557320     0.866670     0.129231    Uiso  ? Al
   Al23       1.0     0.225080     0.881434     0.629990    Uiso  ? Al
   Al24       1.0     0.870891     0.877993     0.071345    Uiso  ? Al
   Al25       1.0     0.453145     0.759928     0.883807    Uiso  ? Al
   Al26       1.0     0.548539     0.868860     0.635182    Uiso  ? Al
   Hf1        1.0     0.440199     0.090566     0.359026    Uiso  ? Hf
   Hf2        1.0     0.551151     0.205960     0.620454    Uiso  ? Hf
   Hf3        1.0     0.450170     0.428330     0.362508    Uiso  ? Hf
   Hf4        1.0     0.112079     0.764244     0.360570    Uiso  ? Hf
   Hf5        1.0     0.116965     0.761720     0.873472    Uiso  ? Hf
   Mg1        1.0     0.887170     0.208051     0.078208    Uiso  ? Mg
   Mg2        1.0     0.434423     0.085675     0.884636    Uiso  ? Mg
   Mg3        1.0     0.562264     0.544182     0.108946    Uiso  ? Mg
   Mg4        1.0     0.551507     0.548657     0.630333    Uiso  ? Mg
   Mg5        1.0     0.786521     0.748360     0.322985    Uiso  ? Mg
   N1         1.0     0.197402     0.217521     0.320062    Uiso  ? N
   N2         1.0     0.130072     0.087827     0.071935    Uiso  ? N
   N3         1.0     0.891060     0.204031     0.868696    Uiso  ? N
   N4         1.0     0.797812     0.084632     0.633088    Uiso  ? N
   N5         1.0     0.581316     0.190738     0.389963    Uiso  ? N
   N6         1.0     0.443651     0.097090     0.107517    Uiso  ? N
   N7         1.0     0.205998     0.212663     0.820780    Uiso  ? N
   N8         1.0     0.112816     0.093531     0.570939    Uiso  ? N
   N9         1.0     0.881217     0.209479     0.373150    Uiso  ? N
   N10        1.0     0.768234     0.087277     0.129917    Uiso  ? N
   N11        1.0     0.563076     0.208467     0.852993    Uiso  ? N
   N12        1.0     0.429878     0.087093     0.577856    Uiso  ? N
   N13        1.0     0.207930     0.525810     0.315445    Uiso  ? N
   N14        1.0     0.114665     0.424110     0.068405    Uiso  ? N
   N15        1.0     0.887329     0.541370     0.869003    Uiso  ? N
   N16        1.0     0.794279     0.417751     0.632590    Uiso  ? N
   N17        1.0     0.562270     0.549198     0.335816    Uiso  ? N
   N18        1.0     0.438465     0.418719     0.087492    Uiso  ? N
   N19        1.0     0.232282     0.521699     0.826834    Uiso  ? N
   N20        1.0     0.117351     0.424207     0.579922    Uiso  ? N
   N21        1.0     0.888683     0.527256     0.387155    Uiso  ? N
   N22        1.0     0.796460     0.432694     0.128936    Uiso  ? N
   N23        1.0     0.554026     0.538983     0.847238    Uiso  ? N
   N24        1.0     0.423166     0.442513     0.571923    Uiso  ? N
   N25        1.0     0.229853     0.885193     0.320640    Uiso  ? N
   N26        1.0     0.114361     0.760842     0.092263    Uiso  ? N
   N27        1.0     0.873161     0.880829     0.876499    Uiso  ? N
   N28        1.0     0.782238     0.760773     0.623267    Uiso  ? N
   N29        1.0     0.549918     0.861232     0.319953    Uiso  ? N
   N30        1.0     0.439502     0.778277     0.068542    Uiso  ? N
   N31        1.0     0.230836     0.882782     0.821111    Uiso  ? N
   N32        1.0     0.113863     0.759998     0.591685    Uiso  ? N
   N33        1.0     0.878847     0.888818     0.381673    Uiso  ? N
   N34        1.0     0.780930     0.758268     0.112027    Uiso  ? N
   N35        1.0     0.559016     0.859511     0.822510    Uiso  ? N
   N36        1.0     0.433738     0.778085     0.571169    Uiso  ? N
