
#======================================================================
# CRYSTAL DATA
#----------------------------------------------------------------------
data_VESTA_phase_1

_chemical_name_common                  'Al   Hf   Mg   N                      '
_cell_length_a                         9.809307
_cell_length_b                         9.772867
_cell_length_c                         10.108412
_cell_angle_alpha                      90.186661
_cell_angle_beta                       90.012398
_cell_angle_gamma                      60.148788
_cell_volume                           840.466087
_space_group_name_H-M_alt              'P 1'
_space_group_IT_number                 1

loop_
_space_group_symop_operation_xyz
   'x, y, z'

loop_
   _atom_site_label
   _atom_site_occupancy
   _atom_site_fract_x
   _atom_site_fract_y
   _atom_site_fract_z
   _atom_site_adp_type
   _atom_site_U_iso_or_equiv
   _atom_site_type_symbol
   Al1        1.0     0.106429     0.099500     0.314287    Uiso  ? Al
   Al2        1.0     0.211475     0.209905     0.058206    Uiso  ? Al
   Al3        1.0     0.786521     0.099074     0.816544    Uiso  ? Al
   Al4        1.0     0.895310     0.206480     0.562921    Uiso  ? Al
   Al5        1.0     0.560988     0.203595     0.048820    Uiso  ? Al
   Al6        1.0     0.101672     0.106812     0.810091    Uiso  ? Al
   Al7        1.0     0.212479     0.208103     0.567049    Uiso  ? Al
   Al8        1.0     0.784476     0.094685     0.310618    Uiso  ? Al
   Al9        1.0     0.098439     0.425837     0.313161    Uiso  ? Al
   Al10       1.0     0.226018     0.524431     0.061015    Uiso  ? Al
   Al11       1.0     0.785365     0.421889     0.811887    Uiso  ? Al
   Al12       1.0     0.890217     0.534881     0.564494    Uiso  ? Al
   Al13       1.0     0.105487     0.422708     0.812934    Uiso  ? Al
   Al14       1.0     0.212120     0.536582     0.568794    Uiso  ? Al
   Al15       1.0     0.785317     0.431087     0.312463    Uiso  ? Al
   Al16       1.0     0.888662     0.539004     0.061922    Uiso  ? Al
   Al17       1.0     0.446621     0.429600     0.813508    Uiso  ? Al
   Al18       1.0     0.226679     0.884590     0.059230    Uiso  ? Al
   Al19       1.0     0.782651     0.753191     0.817155    Uiso  ? Al
   Al20       1.0     0.886992     0.869952     0.563796    Uiso  ? Al
   Al21       1.0     0.450940     0.763642     0.395148    Uiso  ? Al
   Al22       1.0     0.561655     0.867514     0.068126    Uiso  ? Al
   Al23       1.0     0.216413     0.882810     0.570827    Uiso  ? Al
   Al24       1.0     0.873687     0.879151     0.060454    Uiso  ? Al
   Al25       1.0     0.450617     0.756246     0.869520    Uiso  ? Al
   Al26       1.0     0.550934     0.868910     0.636112    Uiso  ? Al
   Hf1        1.0     0.439502     0.094398     0.307371    Uiso  ? Hf
   Hf2        1.0     0.559812     0.197342     0.592014    Uiso  ? Hf
   Hf3        1.0     0.451124     0.428977     0.322115    Uiso  ? Hf
   Hf4        1.0     0.107313     0.766145     0.309975    Uiso  ? Hf
   Hf5        1.0     0.110479     0.760706     0.824780    Uiso  ? Hf
   Mg1        1.0     0.892360     0.207255     0.068970    Uiso  ? Mg
   Mg2        1.0     0.431457     0.100387     0.834729    Uiso  ? Mg
   Mg3        1.0     0.567613     0.533188     0.066015    Uiso  ? Mg
   Mg4        1.0     0.562737     0.539833     0.597292    Uiso  ? Mg
   Mg5        1.0     0.776689     0.753368     0.311181    Uiso  ? Mg
   N1         1.0     0.205409     0.213596     0.376130    Uiso  ? N
   N2         1.0     0.128644     0.087202     0.129666    Uiso  ? N
   N3         1.0     0.890855     0.205434     0.864492    Uiso  ? N
   N4         1.0     0.803263     0.081021     0.626562    Uiso  ? N
   N5         1.0     0.575226     0.194703     0.380798    Uiso  ? N
   N6         1.0     0.443924     0.097419     0.092551    Uiso  ? N
   N7         1.0     0.197868     0.217216     0.873930    Uiso  ? N
   N8         1.0     0.108651     0.097124     0.620280    Uiso  ? N
   N9         1.0     0.888810     0.205111     0.369621    Uiso  ? N
   N10        1.0     0.766736     0.089130     0.123471    Uiso  ? N
   N11        1.0     0.566876     0.211791     0.854524    Uiso  ? N
   N12        1.0     0.428962     0.090481     0.613535    Uiso  ? N
   N13        1.0     0.211720     0.532285     0.377104    Uiso  ? N
   N14        1.0     0.111358     0.428130     0.123431    Uiso  ? N
   N15        1.0     0.892040     0.537939     0.870324    Uiso  ? N
   N16        1.0     0.800148     0.415451     0.624885    Uiso  ? N
   N17        1.0     0.567166     0.544159     0.368440    Uiso  ? N
   N18        1.0     0.439856     0.415625     0.116738    Uiso  ? N
   N19        1.0     0.230827     0.518940     0.872544    Uiso  ? N
   N20        1.0     0.108843     0.427594     0.624109    Uiso  ? N
   N21        1.0     0.896949     0.527181     0.379083    Uiso  ? N
   N22        1.0     0.791355     0.434354     0.128857    Uiso  ? N
   N23        1.0     0.558817     0.534901     0.845119    Uiso  ? N
   N24        1.0     0.422762     0.436198     0.620514    Uiso  ? N
   N25        1.0     0.221109     0.881998     0.376678    Uiso  ? N
   N26        1.0     0.111756     0.761644     0.097171    Uiso  ? N
   N27        1.0     0.873094     0.882622     0.871277    Uiso  ? N
   N28        1.0     0.782152     0.758987     0.622809    Uiso  ? N
   N29        1.0     0.545950     0.869299     0.337532    Uiso  ? N
   N30        1.0     0.441777     0.771413     0.060650    Uiso  ? N
   N31        1.0     0.220724     0.888067     0.863118    Uiso  ? N
   N32        1.0     0.109316     0.759561     0.613798    Uiso  ? N
   N33        1.0     0.882466     0.885743     0.375729    Uiso  ? N
   N34        1.0     0.780295     0.759896     0.101739    Uiso  ? N
   N35        1.0     0.564466     0.859004     0.837245    Uiso  ? N
   N36        1.0     0.434126     0.777281     0.585994    Uiso  ? N
