
#======================================================================
# CRYSTAL DATA
#----------------------------------------------------------------------
data_VESTA_phase_1

_chemical_name_common                  'Al   Hf   Mg   N                      '
_cell_length_a                         9.823838
_cell_length_b                         9.788970
_cell_length_c                         10.095040
_cell_angle_alpha                      90.142830
_cell_angle_beta                       90.025337
_cell_angle_gamma                      60.121132
_cell_volume                           841.752014
_space_group_name_H-M_alt              'P 1'
_space_group_IT_number                 1

loop_
_space_group_symop_operation_xyz
   'x, y, z'

loop_
   _atom_site_label
   _atom_site_occupancy
   _atom_site_fract_x
   _atom_site_fract_y
   _atom_site_fract_z
   _atom_site_adp_type
   _atom_site_U_iso_or_equiv
   _atom_site_type_symbol
   Al1        1.0     0.102502     0.100754     0.317898    Uiso  ? Al
   Al2        1.0     0.212149     0.211505     0.070860    Uiso  ? Al
   Al3        1.0     0.786627     0.099356     0.825728    Uiso  ? Al
   Al4        1.0     0.896419     0.206010     0.570864    Uiso  ? Al
   Al5        1.0     0.559609     0.204408     0.063849    Uiso  ? Al
   Al6        1.0     0.103207     0.109338     0.820467    Uiso  ? Al
   Al7        1.0     0.209600     0.208923     0.570718    Uiso  ? Al
   Al8        1.0     0.784964     0.096234     0.319426    Uiso  ? Al
   Al9        1.0     0.096692     0.426882     0.320140    Uiso  ? Al
   Al10       1.0     0.227213     0.521973     0.068413    Uiso  ? Al
   Al11       1.0     0.784570     0.423587     0.819736    Uiso  ? Al
   Al12       1.0     0.892378     0.533226     0.572992    Uiso  ? Al
   Al13       1.0     0.107924     0.421109     0.821686    Uiso  ? Al
   Al14       1.0     0.212608     0.537041     0.579405    Uiso  ? Al
   Al15       1.0     0.785294     0.431001     0.319663    Uiso  ? Al
   Al16       1.0     0.886711     0.542151     0.070018    Uiso  ? Al
   Al17       1.0     0.447626     0.431006     0.822516    Uiso  ? Al
   Al18       1.0     0.230784     0.879629     0.104987    Uiso  ? Al
   Al19       1.0     0.778802     0.754951     0.820134    Uiso  ? Al
   Al20       1.0     0.890697     0.870289     0.573850    Uiso  ? Al
   Al21       1.0     0.443012     0.764279     0.393597    Uiso  ? Al
   Al22       1.0     0.556740     0.863715     0.129133    Uiso  ? Al
   Al23       1.0     0.225202     0.876508     0.627057    Uiso  ? Al
   Al24       1.0     0.866135     0.881488     0.068134    Uiso  ? Al
   Al25       1.0     0.452563     0.761041     0.880565    Uiso  ? Al
   Al26       1.0     0.550628     0.868778     0.636527    Uiso  ? Al
   Hf1        1.0     0.438199     0.095999     0.339407    Uiso  ? Hf
   Hf2        1.0     0.560515     0.198089     0.603973    Uiso  ? Hf
   Hf3        1.0     0.450630     0.430464     0.330942    Uiso  ? Hf
   Hf4        1.0     0.103202     0.761699     0.315341    Uiso  ? Hf
   Hf5        1.0     0.109513     0.760348     0.843545    Uiso  ? Hf
   Mg1        1.0     0.889933     0.209656     0.075252    Uiso  ? Mg
   Mg2        1.0     0.440792     0.088384     0.869686    Uiso  ? Mg
   Mg3        1.0     0.567008     0.534154     0.072800    Uiso  ? Mg
   Mg4        1.0     0.563428     0.541667     0.600208    Uiso  ? Mg
   Mg5        1.0     0.780031     0.752340     0.329484    Uiso  ? Mg
   N1         1.0     0.198097     0.215692     0.379889    Uiso  ? N
   N2         1.0     0.122620     0.093690     0.132107    Uiso  ? N
   N3         1.0     0.891591     0.205797     0.871713    Uiso  ? N
   N4         1.0     0.803905     0.081792     0.635554    Uiso  ? N
   N5         1.0     0.578474     0.198787     0.391059    Uiso  ? N
   N6         1.0     0.442187     0.100877     0.112728    Uiso  ? N
   N7         1.0     0.203532     0.215436     0.883829    Uiso  ? N
   N8         1.0     0.109409     0.098498     0.627338    Uiso  ? N
   N9         1.0     0.888853     0.205629     0.377452    Uiso  ? N
   N10        1.0     0.766933     0.090202     0.132033    Uiso  ? N
   N11        1.0     0.565552     0.210973     0.862829    Uiso  ? N
   N12        1.0     0.434114     0.084819     0.580811    Uiso  ? N
   N13        1.0     0.211963     0.529494     0.387069    Uiso  ? N
   N14        1.0     0.109340     0.431043     0.131095    Uiso  ? N
   N15        1.0     0.892233     0.539866     0.877386    Uiso  ? N
   N16        1.0     0.800195     0.415663     0.632648    Uiso  ? N
   N17        1.0     0.568043     0.543862     0.373942    Uiso  ? N
   N18        1.0     0.439490     0.418180     0.124956    Uiso  ? N
   N19        1.0     0.232577     0.517077     0.880524    Uiso  ? N
   N20        1.0     0.111403     0.424854     0.632611    Uiso  ? N
   N21        1.0     0.897103     0.525579     0.387824    Uiso  ? N
   N22        1.0     0.790166     0.436295     0.135844    Uiso  ? N
   N23        1.0     0.558974     0.537300     0.855055    Uiso  ? N
   N24        1.0     0.424103     0.437195     0.629388    Uiso  ? N
   N25        1.0     0.226108     0.874430     0.342600    Uiso  ? N
   N26        1.0     0.110522     0.761429     0.098737    Uiso  ? N
   N27        1.0     0.868445     0.883928     0.879297    Uiso  ? N
   N28        1.0     0.784605     0.758101     0.623876    Uiso  ? N
   N29        1.0     0.542982     0.862608     0.320649    Uiso  ? N
   N30        1.0     0.439723     0.776030     0.067144    Uiso  ? N
   N31        1.0     0.229924     0.881834     0.838470    Uiso  ? N
   N32        1.0     0.110118     0.757721     0.626984    Uiso  ? N
   N33        1.0     0.881036     0.888845     0.385955    Uiso  ? N
   N34        1.0     0.779557     0.759775     0.116476    Uiso  ? N
   N35        1.0     0.561086     0.859110     0.823604    Uiso  ? N
   N36        1.0     0.433168     0.779456     0.579210    Uiso  ? N
