
#======================================================================
# CRYSTAL DATA
#----------------------------------------------------------------------
data_VESTA_phase_1

_chemical_name_common                  'Al   Hf   Mg   N                      '
_cell_length_a                         9.806297
_cell_length_b                         9.770771
_cell_length_c                         10.119154
_cell_angle_alpha                      90.128540
_cell_angle_beta                       89.954857
_cell_angle_gamma                      60.160522
_cell_volume                           841.020928
_space_group_name_H-M_alt              'P 1'
_space_group_IT_number                 1

loop_
_space_group_symop_operation_xyz
   'x, y, z'

loop_
   _atom_site_label
   _atom_site_occupancy
   _atom_site_fract_x
   _atom_site_fract_y
   _atom_site_fract_z
   _atom_site_adp_type
   _atom_site_U_iso_or_equiv
   _atom_site_type_symbol
   Al1        1.0     0.105832     0.099655     0.313658    Uiso  ? Al
   Al2        1.0     0.211440     0.210052     0.058494    Uiso  ? Al
   Al3        1.0     0.786600     0.098927     0.816633    Uiso  ? Al
   Al4        1.0     0.895420     0.206458     0.563044    Uiso  ? Al
   Al5        1.0     0.560753     0.203372     0.049282    Uiso  ? Al
   Al6        1.0     0.102144     0.106468     0.810197    Uiso  ? Al
   Al7        1.0     0.212143     0.208339     0.567090    Uiso  ? Al
   Al8        1.0     0.784603     0.094865     0.310439    Uiso  ? Al
   Al9        1.0     0.097911     0.426395     0.312882    Uiso  ? Al
   Al10       1.0     0.225908     0.524607     0.060928    Uiso  ? Al
   Al11       1.0     0.785112     0.422195     0.811760    Uiso  ? Al
   Al12       1.0     0.890419     0.534910     0.564824    Uiso  ? Al
   Al13       1.0     0.105703     0.422677     0.813045    Uiso  ? Al
   Al14       1.0     0.212305     0.536658     0.568826    Uiso  ? Al
   Al15       1.0     0.785541     0.430809     0.312276    Uiso  ? Al
   Al16       1.0     0.888587     0.539152     0.061760    Uiso  ? Al
   Al17       1.0     0.446630     0.429985     0.813600    Uiso  ? Al
   Al18       1.0     0.225959     0.884625     0.059050    Uiso  ? Al
   Al19       1.0     0.781165     0.753827     0.817520    Uiso  ? Al
   Al20       1.0     0.887521     0.869935     0.564101    Uiso  ? Al
   Al21       1.0     0.451065     0.764061     0.391715    Uiso  ? Al
   Al22       1.0     0.559197     0.864894     0.096005    Uiso  ? Al
   Al23       1.0     0.217331     0.882712     0.569490    Uiso  ? Al
   Al24       1.0     0.873021     0.879047     0.060150    Uiso  ? Al
   Al25       1.0     0.452697     0.757462     0.872652    Uiso  ? Al
   Al26       1.0     0.550859     0.868152     0.638539    Uiso  ? Al
   Hf1        1.0     0.437614     0.097764     0.309748    Uiso  ? Hf
   Hf2        1.0     0.560015     0.197687     0.592513    Uiso  ? Hf
   Hf3        1.0     0.451272     0.429452     0.321931    Uiso  ? Hf
   Hf4        1.0     0.107038     0.766192     0.309603    Uiso  ? Hf
   Hf5        1.0     0.110778     0.760863     0.824511    Uiso  ? Hf
   Mg1        1.0     0.892279     0.207262     0.068613    Uiso  ? Mg
   Mg2        1.0     0.433133     0.097644     0.837239    Uiso  ? Mg
   Mg3        1.0     0.567886     0.532160     0.065601    Uiso  ? Mg
   Mg4        1.0     0.562498     0.540978     0.596556    Uiso  ? Mg
   Mg5        1.0     0.779164     0.752601     0.313137    Uiso  ? Mg
   N1         1.0     0.204066     0.214200     0.376108    Uiso  ? N
   N2         1.0     0.128315     0.087287     0.129388    Uiso  ? N
   N3         1.0     0.890942     0.205438     0.864365    Uiso  ? N
   N4         1.0     0.803476     0.080980     0.626755    Uiso  ? N
   N5         1.0     0.575633     0.195232     0.381154    Uiso  ? N
   N6         1.0     0.442696     0.099114     0.095576    Uiso  ? N
   N7         1.0     0.198605     0.216894     0.874010    Uiso  ? N
   N8         1.0     0.108989     0.096774     0.620310    Uiso  ? N
   N9         1.0     0.888744     0.205180     0.369734    Uiso  ? N
   N10        1.0     0.766654     0.089039     0.123547    Uiso  ? N
   N11        1.0     0.566587     0.211671     0.854584    Uiso  ? N
   N12        1.0     0.429741     0.089624     0.608858    Uiso  ? N
   N13        1.0     0.211786     0.532170     0.377123    Uiso  ? N
   N14        1.0     0.111191     0.428263     0.123456    Uiso  ? N
   N15        1.0     0.892022     0.538018     0.870312    Uiso  ? N
   N16        1.0     0.800015     0.415484     0.624894    Uiso  ? N
   N17        1.0     0.567520     0.544216     0.367683    Uiso  ? N
   N18        1.0     0.439771     0.415644     0.116874    Uiso  ? N
   N19        1.0     0.230782     0.519164     0.872623    Uiso  ? N
   N20        1.0     0.109156     0.427397     0.624262    Uiso  ? N
   N21        1.0     0.896837     0.526895     0.379506    Uiso  ? N
   N22        1.0     0.791405     0.434263     0.128901    Uiso  ? N
   N23        1.0     0.558522     0.535629     0.845509    Uiso  ? N
   N24        1.0     0.422899     0.436650     0.620677    Uiso  ? N
   N25        1.0     0.220607     0.882357     0.375459    Uiso  ? N
   N26        1.0     0.111509     0.761682     0.097211    Uiso  ? N
   N27        1.0     0.873102     0.882444     0.871242    Uiso  ? N
   N28        1.0     0.783060     0.758669     0.621313    Uiso  ? N
   N29        1.0     0.543810     0.867065     0.317439    Uiso  ? N
   N30        1.0     0.441419     0.770771     0.061549    Uiso  ? N
   N31        1.0     0.221421     0.887786     0.863511    Uiso  ? N
   N32        1.0     0.110103     0.759653     0.613616    Uiso  ? N
   N33        1.0     0.882263     0.886173     0.376114    Uiso  ? N
   N34        1.0     0.781390     0.758936     0.103014    Uiso  ? N
   N35        1.0     0.563465     0.858321     0.829537    Uiso  ? N
   N36        1.0     0.435503     0.778360     0.580346    Uiso  ? N
