
#======================================================================
# CRYSTAL DATA
#----------------------------------------------------------------------
data_VESTA_phase_1

_chemical_name_common                  'Al   Hf   Mg   N                      '
_cell_length_a                         9.802220
_cell_length_b                         9.768241
_cell_length_c                         10.147774
_cell_angle_alpha                      89.872025
_cell_angle_beta                       89.774040
_cell_angle_gamma                      60.116108
_cell_volume                           842.453154
_space_group_name_H-M_alt              'P 1'
_space_group_IT_number                 1

loop_
_space_group_symop_operation_xyz
   'x, y, z'

loop_
   _atom_site_label
   _atom_site_occupancy
   _atom_site_fract_x
   _atom_site_fract_y
   _atom_site_fract_z
   _atom_site_adp_type
   _atom_site_U_iso_or_equiv
   _atom_site_type_symbol
   Al1        1.0     0.103309     0.100315     0.311355    Uiso  ? Al
   Al2        1.0     0.211319     0.210970     0.064663    Uiso  ? Al
   Al3        1.0     0.786485     0.098852     0.817868    Uiso  ? Al
   Al4        1.0     0.895843     0.206480     0.563870    Uiso  ? Al
   Al5        1.0     0.560193     0.203855     0.056532    Uiso  ? Al
   Al6        1.0     0.104853     0.105942     0.811282    Uiso  ? Al
   Al7        1.0     0.209051     0.209712     0.562788    Uiso  ? Al
   Al8        1.0     0.785196     0.096354     0.310773    Uiso  ? Al
   Al9        1.0     0.095865     0.428687     0.311359    Uiso  ? Al
   Al10       1.0     0.224991     0.525908     0.060425    Uiso  ? Al
   Al11       1.0     0.785042     0.422747     0.811758    Uiso  ? Al
   Al12       1.0     0.891584     0.533904     0.564923    Uiso  ? Al
   Al13       1.0     0.107656     0.421129     0.814424    Uiso  ? Al
   Al14       1.0     0.212744     0.536907     0.569680    Uiso  ? Al
   Al15       1.0     0.786055     0.430040     0.311871    Uiso  ? Al
   Al16       1.0     0.886664     0.541825     0.061732    Uiso  ? Al
   Al17       1.0     0.446729     0.430085     0.815548    Uiso  ? Al
   Al18       1.0     0.225750     0.885121     0.058117    Uiso  ? Al
   Al19       1.0     0.779259     0.754929     0.812633    Uiso  ? Al
   Al20       1.0     0.889390     0.870511     0.564170    Uiso  ? Al
   Al21       1.0     0.449804     0.761155     0.388368    Uiso  ? Al
   Al22       1.0     0.556686     0.862594     0.122249    Uiso  ? Al
   Al23       1.0     0.218103     0.882204     0.567597    Uiso  ? Al
   Al24       1.0     0.870256     0.879231     0.060256    Uiso  ? Al
   Al25       1.0     0.455134     0.759260     0.874142    Uiso  ? Al
   Al26       1.0     0.549666     0.869028     0.630315    Uiso  ? Al
   Hf1        1.0     0.438034     0.095907     0.331628    Uiso  ? Hf
   Hf2        1.0     0.559806     0.197614     0.595227    Uiso  ? Hf
   Hf3        1.0     0.450245     0.429988     0.320751    Uiso  ? Hf
   Hf4        1.0     0.106155     0.766492     0.307659    Uiso  ? Hf
   Hf5        1.0     0.110530     0.761859     0.825237    Uiso  ? Hf
   Mg1        1.0     0.891798     0.207932     0.067056    Uiso  ? Mg
   Mg2        1.0     0.440865     0.087777     0.866912    Uiso  ? Mg
   Mg3        1.0     0.568113     0.532801     0.065112    Uiso  ? Mg
   Mg4        1.0     0.562582     0.540701     0.595499    Uiso  ? Mg
   Mg5        1.0     0.782065     0.751876     0.318740    Uiso  ? Mg
   N1         1.0     0.197262     0.217490     0.372413    Uiso  ? N
   N2         1.0     0.125963     0.087233     0.128427    Uiso  ? N
   N3         1.0     0.891895     0.205073     0.863658    Uiso  ? N
   N4         1.0     0.803471     0.081314     0.627892    Uiso  ? N
   N5         1.0     0.578459     0.198673     0.383173    Uiso  ? N
   N6         1.0     0.441998     0.100474     0.105319    Uiso  ? N
   N7         1.0     0.202431     0.214963     0.877512    Uiso  ? N
   N8         1.0     0.110744     0.096019     0.621080    Uiso  ? N
   N9         1.0     0.888795     0.205527     0.370947    Uiso  ? N
   N10        1.0     0.767852     0.089229     0.124423    Uiso  ? N
   N11        1.0     0.565515     0.210124     0.856433    Uiso  ? N
   N12        1.0     0.433786     0.084087     0.570240    Uiso  ? N
   N13        1.0     0.210712     0.532850     0.378103    Uiso  ? N
   N14        1.0     0.109166     0.431077     0.123214    Uiso  ? N
   N15        1.0     0.891379     0.539465     0.869853    Uiso  ? N
   N16        1.0     0.800090     0.415552     0.625425    Uiso  ? N
   N17        1.0     0.567889     0.542447     0.365938    Uiso  ? N
   N18        1.0     0.438964     0.418067     0.116374    Uiso  ? N
   N19        1.0     0.230325     0.520055     0.872856    Uiso  ? N
   N20        1.0     0.110949     0.425431     0.625259    Uiso  ? N
   N21        1.0     0.896341     0.526038     0.380530    Uiso  ? N
   N22        1.0     0.791641     0.434279     0.128903    Uiso  ? N
   N23        1.0     0.558580     0.536475     0.846954    Uiso  ? N
   N24        1.0     0.423047     0.436351     0.623089    Uiso  ? N
   N25        1.0     0.219198     0.882698     0.373460    Uiso  ? N
   N26        1.0     0.110924     0.762140     0.096044    Uiso  ? N
   N27        1.0     0.871470     0.881931     0.871394    Uiso  ? N
   N28        1.0     0.784940     0.758142     0.617104    Uiso  ? N
   N29        1.0     0.544098     0.862116     0.312465    Uiso  ? N
   N30        1.0     0.442497     0.773107     0.061756    Uiso  ? N
   N31        1.0     0.222974     0.887087     0.864104    Uiso  ? N
   N32        1.0     0.111130     0.759888     0.614642    Uiso  ? N
   N33        1.0     0.882529     0.887652     0.377047    Uiso  ? N
   N34        1.0     0.780098     0.759508     0.107922    Uiso  ? N
   N35        1.0     0.560585     0.860153     0.815909    Uiso  ? N
   N36        1.0     0.436086     0.776910     0.574381    Uiso  ? N
