
#======================================================================
# CRYSTAL DATA
#----------------------------------------------------------------------
data_VESTA_phase_1

_chemical_name_common                  'Al   Hf   Mg   N                      '
_cell_length_a                         9.790852
_cell_length_b                         9.772140
_cell_length_c                         10.073049
_cell_angle_alpha                      90.001427
_cell_angle_beta                       89.819565
_cell_angle_gamma                      59.977497
_cell_volume                           834.449906
_space_group_name_H-M_alt              'P 1'
_space_group_IT_number                 1

loop_
_space_group_symop_operation_xyz
   'x, y, z'

loop_
   _atom_site_label
   _atom_site_occupancy
   _atom_site_fract_x
   _atom_site_fract_y
   _atom_site_fract_z
   _atom_site_adp_type
   _atom_site_U_iso_or_equiv
   _atom_site_type_symbol
   Al1        1.0     0.102152     0.102368     0.394019    Uiso  ? Al
   Al2        1.0     0.212417     0.209788     0.139249    Uiso  ? Al
   Al3        1.0     0.778091     0.099760     0.896368    Uiso  ? Al
   Al4        1.0     0.897355     0.206225     0.644804    Uiso  ? Al
   Al5        1.0     0.557878     0.199258     0.118898    Uiso  ? Al
   Al6        1.0     0.109298     0.102488     0.894649    Uiso  ? Al
   Al7        1.0     0.212760     0.208373     0.645642    Uiso  ? Al
   Al8        1.0     0.792689     0.093598     0.392358    Uiso  ? Al
   Al9        1.0     0.097147     0.426864     0.393905    Uiso  ? Al
   Al10       1.0     0.214214     0.534067     0.136175    Uiso  ? Al
   Al11       1.0     0.779189     0.429892     0.894490    Uiso  ? Al
   Al12       1.0     0.888514     0.539488     0.644850    Uiso  ? Al
   Al13       1.0     0.105294     0.423021     0.892694    Uiso  ? Al
   Al14       1.0     0.218936     0.532402     0.646164    Uiso  ? Al
   Al15       1.0     0.788638     0.423887     0.397002    Uiso  ? Al
   Al16       1.0     0.888934     0.535721     0.142322    Uiso  ? Al
   Al17       1.0     0.448475     0.428807     0.903898    Uiso  ? Al
   Al18       1.0     0.229350     0.881003     0.140399    Uiso  ? Al
   Al19       1.0     0.773553     0.756420     0.893378    Uiso  ? Al
   Al20       1.0     0.881984     0.870606     0.648391    Uiso  ? Al
   Al21       1.0     0.450574     0.759821     0.396049    Uiso  ? Al
   Al22       1.0     0.557668     0.864816     0.137879    Uiso  ? Al
   Al23       1.0     0.230170     0.881207     0.643586    Uiso  ? Al
   Al24       1.0     0.878401     0.877199     0.139204    Uiso  ? Al
   Al25       1.0     0.451134     0.759433     0.895566    Uiso  ? Al
   Al26       1.0     0.558637     0.863116     0.648623    Uiso  ? Al
   Hf1        1.0     0.440970     0.087086     0.371330    Uiso  ? Hf
   Hf2        1.0     0.557280     0.205149     0.641096    Uiso  ? Hf
   Hf3        1.0     0.447233     0.431343     0.369463    Uiso  ? Hf
   Hf4        1.0     0.106206     0.767283     0.392761    Uiso  ? Hf
   Hf5        1.0     0.112629     0.763316     0.883899    Uiso  ? Hf
   Mg1        1.0     0.889791     0.209045     0.138921    Uiso  ? Mg
   Mg2        1.0     0.436403     0.088960     0.897545    Uiso  ? Mg
   Mg3        1.0     0.564705     0.544349     0.130472    Uiso  ? Mg
   Mg4        1.0     0.558766     0.544618     0.643737    Uiso  ? Mg
   Mg5        1.0     0.779171     0.752773     0.390830    Uiso  ? Mg
   N1         1.0     0.200021     0.215457     0.332068    Uiso  ? N
   N2         1.0     0.124332     0.089123     0.080371    Uiso  ? N
   N3         1.0     0.890725     0.203008     0.836471    Uiso  ? N
   N4         1.0     0.797851     0.083686     0.586958    Uiso  ? N
   N5         1.0     0.578766     0.192386     0.352076    Uiso  ? N
   N6         1.0     0.441359     0.095255     0.116638    Uiso  ? N
   N7         1.0     0.205649     0.214595     0.831389    Uiso  ? N
   N8         1.0     0.112760     0.094035     0.584519    Uiso  ? N
   N9         1.0     0.890205     0.205926     0.346276    Uiso  ? N
   N10        1.0     0.771746     0.087797     0.081607    Uiso  ? N
   N11        1.0     0.559192     0.213590     0.848319    Uiso  ? N
   N12        1.0     0.435767     0.087374     0.588474    Uiso  ? N
   N13        1.0     0.203621     0.535287     0.327293    Uiso  ? N
   N14        1.0     0.109480     0.427520     0.081657    Uiso  ? N
   N15        1.0     0.891525     0.540394     0.834077    Uiso  ? N
   N16        1.0     0.795996     0.419211     0.587634    Uiso  ? N
   N17        1.0     0.569348     0.545379     0.346010    Uiso  ? N
   N18        1.0     0.435212     0.421707     0.100608    Uiso  ? N
   N19        1.0     0.230986     0.521222     0.837333    Uiso  ? N
   N20        1.0     0.110536     0.428292     0.584522    Uiso  ? N
   N21        1.0     0.895108     0.524893     0.330817    Uiso  ? N
   N22        1.0     0.790655     0.433593     0.075993    Uiso  ? N
   N23        1.0     0.552340     0.538727     0.852534    Uiso  ? N
   N24        1.0     0.425885     0.437770     0.578571    Uiso  ? N
   N25        1.0     0.229200     0.880510     0.334193    Uiso  ? N
   N26        1.0     0.111942     0.762102     0.094506    Uiso  ? N
   N27        1.0     0.872981     0.880774     0.837891    Uiso  ? N
   N28        1.0     0.777776     0.761687     0.596685    Uiso  ? N
   N29        1.0     0.554665     0.856499     0.325720    Uiso  ? N
   N30        1.0     0.436229     0.777445     0.080672    Uiso  ? N
   N31        1.0     0.230862     0.882631     0.832275    Uiso  ? N
   N32        1.0     0.110237     0.760970     0.607419    Uiso  ? N
   N33        1.0     0.881919     0.886187     0.328135    Uiso  ? N
   N34        1.0     0.779491     0.759774     0.085614    Uiso  ? N
   N35        1.0     0.563370     0.856874     0.835583    Uiso  ? N
   N36        1.0     0.437456     0.776932     0.581934    Uiso  ? N
