
#======================================================================
# CRYSTAL DATA
#----------------------------------------------------------------------
data_VESTA_phase_1

_chemical_name_common                  'Al   Hf   Mg   N                      '
_cell_length_a                         9.752894
_cell_length_b                         9.745037
_cell_length_c                         10.125653
_cell_angle_alpha                      89.981049
_cell_angle_beta                       89.924332
_cell_angle_gamma                      60.086720
_cell_volume                           834.159565
_space_group_name_H-M_alt              'P 1'
_space_group_IT_number                 1

loop_
_space_group_symop_operation_xyz
   'x, y, z'

loop_
   _atom_site_label
   _atom_site_occupancy
   _atom_site_fract_x
   _atom_site_fract_y
   _atom_site_fract_z
   _atom_site_adp_type
   _atom_site_U_iso_or_equiv
   _atom_site_type_symbol
   Al1        1.0     0.105718     0.100636     0.306065    Uiso  ? Al
   Al2        1.0     0.214011     0.208660     0.052284    Uiso  ? Al
   Al3        1.0     0.786076     0.098311     0.810384    Uiso  ? Al
   Al4        1.0     0.896461     0.205478     0.557649    Uiso  ? Al
   Al5        1.0     0.558523     0.201801     0.041524    Uiso  ? Al
   Al6        1.0     0.105461     0.104422     0.805202    Uiso  ? Al
   Al7        1.0     0.212156     0.208793     0.559900    Uiso  ? Al
   Al8        1.0     0.784446     0.095024     0.302698    Uiso  ? Al
   Al9        1.0     0.098341     0.426220     0.304865    Uiso  ? Al
   Al10       1.0     0.223688     0.526153     0.052853    Uiso  ? Al
   Al11       1.0     0.781577     0.424170     0.804555    Uiso  ? Al
   Al12       1.0     0.890258     0.533778     0.558410    Uiso  ? Al
   Al13       1.0     0.105413     0.423155     0.806744    Uiso  ? Al
   Al14       1.0     0.212674     0.537939     0.562481    Uiso  ? Al
   Al15       1.0     0.785752     0.429699     0.303479    Uiso  ? Al
   Al16       1.0     0.886655     0.540766     0.054728    Uiso  ? Al
   Al17       1.0     0.447044     0.432199     0.806930    Uiso  ? Al
   Al18       1.0     0.231707     0.883201     0.056307    Uiso  ? Al
   Al19       1.0     0.772976     0.757082     0.807153    Uiso  ? Al
   Al20       1.0     0.888103     0.870424     0.558651    Uiso  ? Al
   Al21       1.0     0.448974     0.761412     0.302941    Uiso  ? Al
   Al22       1.0     0.561220     0.863371     0.049829    Uiso  ? Al
   Al23       1.0     0.226835     0.878488     0.558981    Uiso  ? Al
   Al24       1.0     0.871944     0.877951     0.054374    Uiso  ? Al
   Al25       1.0     0.451257     0.759728     0.803977    Uiso  ? Al
   Al26       1.0     0.552579     0.866345     0.560607    Uiso  ? Al
   Hf1        1.0     0.443097     0.089417     0.307077    Uiso  ? Hf
   Hf2        1.0     0.559768     0.200585     0.586934    Uiso  ? Hf
   Hf3        1.0     0.449859     0.427803     0.309914    Uiso  ? Hf
   Hf4        1.0     0.106691     0.767030     0.303268    Uiso  ? Hf
   Hf5        1.0     0.111612     0.763422     0.819186    Uiso  ? Hf
   Mg1        1.0     0.890466     0.208567     0.060120    Uiso  ? Mg
   Mg2        1.0     0.436165     0.088183     0.816834    Uiso  ? Mg
   Mg3        1.0     0.562834     0.541928     0.053435    Uiso  ? Mg
   Mg4        1.0     0.560610     0.545590     0.568172    Uiso  ? Mg
   Mg5        1.0     0.778247     0.752012     0.307604    Uiso  ? Mg
   N1         1.0     0.206863     0.213538     0.368598    Uiso  ? N
   N2         1.0     0.125799     0.089279     0.122313    Uiso  ? N
   N3         1.0     0.891601     0.204868     0.856223    Uiso  ? N
   N4         1.0     0.803781     0.080955     0.620620    Uiso  ? N
   N5         1.0     0.574099     0.195406     0.374424    Uiso  ? N
   N6         1.0     0.444500     0.094853     0.096609    Uiso  ? N
   N7         1.0     0.202559     0.215567     0.867097    Uiso  ? N
   N8         1.0     0.111789     0.093937     0.613834    Uiso  ? N
   N9         1.0     0.888634     0.204989     0.363702    Uiso  ? N
   N10        1.0     0.766033     0.089211     0.116274    Uiso  ? N
   N11        1.0     0.564266     0.211037     0.845841    Uiso  ? N
   N12        1.0     0.431887     0.088217     0.599508    Uiso  ? N
   N13        1.0     0.211060     0.532740     0.370307    Uiso  ? N
   N14        1.0     0.110481     0.428288     0.115786    Uiso  ? N
   N15        1.0     0.890116     0.539680     0.862394    Uiso  ? N
   N16        1.0     0.796180     0.416591     0.617193    Uiso  ? N
   N17        1.0     0.563883     0.546847     0.356590    Uiso  ? N
   N18        1.0     0.438773     0.416070     0.106562    Uiso  ? N
   N19        1.0     0.228748     0.521874     0.864734    Uiso  ? N
   N20        1.0     0.109415     0.427466     0.617652    Uiso  ? N
   N21        1.0     0.897034     0.525077     0.373249    Uiso  ? N
   N22        1.0     0.788413     0.435756     0.120829    Uiso  ? N
   N23        1.0     0.555819     0.539775     0.846352    Uiso  ? N
   N24        1.0     0.424089     0.439974     0.613926    Uiso  ? N
   N25        1.0     0.227877     0.879582     0.367923    Uiso  ? N
   N26        1.0     0.111032     0.761577     0.091609    Uiso  ? N
   N27        1.0     0.871973     0.881094     0.864617    Uiso  ? N
   N28        1.0     0.777076     0.761350     0.614003    Uiso  ? N
   N29        1.0     0.549783     0.864324     0.372749    Uiso  ? N
   N30        1.0     0.438825     0.776415     0.118152    Uiso  ? N
   N31        1.0     0.230303     0.884311     0.866540    Uiso  ? N
   N32        1.0     0.111163     0.760770     0.607430    Uiso  ? N
   N33        1.0     0.881643     0.886817     0.370841    Uiso  ? N
   N34        1.0     0.778301     0.760177     0.103636    Uiso  ? N
   N35        1.0     0.564219     0.854553     0.864773    Uiso  ? N
   N36        1.0     0.433701     0.777464     0.619411    Uiso  ? N
