
#======================================================================
# CRYSTAL DATA
#----------------------------------------------------------------------
data_VESTA_phase_1

_chemical_name_common                  'Al   Hf   Mg   N                      '
_cell_length_a                         9.860156
_cell_length_b                         9.819001
_cell_length_c                         10.049941
_cell_angle_alpha                      90.296631
_cell_angle_beta                       90.216499
_cell_angle_gamma                      59.996841
_cell_volume                           842.607256
_space_group_name_H-M_alt              'P 1'
_space_group_IT_number                 1

loop_
_space_group_symop_operation_xyz
   'x, y, z'

loop_
   _atom_site_label
   _atom_site_occupancy
   _atom_site_fract_x
   _atom_site_fract_y
   _atom_site_fract_z
   _atom_site_adp_type
   _atom_site_U_iso_or_equiv
   _atom_site_type_symbol
   Al1        1.0     0.103164     0.095676     0.363820    Uiso  ? Al
   Al2        1.0     0.218032     0.214739     0.075984    Uiso  ? Al
   Al3        1.0     0.787915     0.099307     0.826615    Uiso  ? Al
   Al4        1.0     0.891817     0.206878     0.569050    Uiso  ? Al
   Al5        1.0     0.558905     0.204520     0.062708    Uiso  ? Al
   Al6        1.0     0.108050     0.099979     0.895483    Uiso  ? Al
   Al7        1.0     0.210322     0.208520     0.567589    Uiso  ? Al
   Al8        1.0     0.782120     0.095984     0.318377    Uiso  ? Al
   Al9        1.0     0.096022     0.428566     0.318283    Uiso  ? Al
   Al10       1.0     0.226537     0.523765     0.067592    Uiso  ? Al
   Al11       1.0     0.786426     0.421394     0.820602    Uiso  ? Al
   Al12       1.0     0.892375     0.531747     0.573094    Uiso  ? Al
   Al13       1.0     0.108233     0.419790     0.820511    Uiso  ? Al
   Al14       1.0     0.211609     0.537562     0.580011    Uiso  ? Al
   Al15       1.0     0.782898     0.433722     0.317927    Uiso  ? Al
   Al16       1.0     0.886730     0.542952     0.068387    Uiso  ? Al
   Al17       1.0     0.446844     0.431945     0.821833    Uiso  ? Al
   Al18       1.0     0.237851     0.878861     0.127570    Uiso  ? Al
   Al19       1.0     0.779180     0.754209     0.819091    Uiso  ? Al
   Al20       1.0     0.891230     0.870117     0.575114    Uiso  ? Al
   Al21       1.0     0.444155     0.763337     0.392165    Uiso  ? Al
   Al22       1.0     0.558805     0.862095     0.127762    Uiso  ? Al
   Al23       1.0     0.223628     0.884211     0.634368    Uiso  ? Al
   Al24       1.0     0.866853     0.880497     0.067585    Uiso  ? Al
   Al25       1.0     0.450993     0.762626     0.880016    Uiso  ? Al
   Al26       1.0     0.550008     0.867919     0.634842    Uiso  ? Al
   Hf1        1.0     0.441896     0.094125     0.339064    Uiso  ? Hf
   Hf2        1.0     0.559855     0.197827     0.606251    Uiso  ? Hf
   Hf3        1.0     0.450150     0.430154     0.332399    Uiso  ? Hf
   Hf4        1.0     0.101917     0.760711     0.314877    Uiso  ? Hf
   Hf5        1.0     0.110588     0.762015     0.844160    Uiso  ? Hf
   Mg1        1.0     0.882302     0.212893     0.087336    Uiso  ? Mg
   Mg2        1.0     0.441125     0.087804     0.866475    Uiso  ? Mg
   Mg3        1.0     0.564966     0.535622     0.071994    Uiso  ? Mg
   Mg4        1.0     0.561878     0.543169     0.602249    Uiso  ? Mg
   Mg5        1.0     0.780572     0.751501     0.330675    Uiso  ? Mg
   N1         1.0     0.202637     0.217231     0.369421    Uiso  ? N
   N2         1.0     0.123331     0.090566     0.097225    Uiso  ? N
   N3         1.0     0.890330     0.205951     0.876179    Uiso  ? N
   N4         1.0     0.803438     0.082320     0.635807    Uiso  ? N
   N5         1.0     0.578280     0.198814     0.392224    Uiso  ? N
   N6         1.0     0.445168     0.099733     0.113706    Uiso  ? N
   N7         1.0     0.207439     0.217730     0.884963    Uiso  ? N
   N8         1.0     0.110957     0.088535     0.570390    Uiso  ? N
   N9         1.0     0.880365     0.210383     0.370016    Uiso  ? N
   N10        1.0     0.764702     0.088889     0.131150    Uiso  ? N
   N11        1.0     0.565456     0.210951     0.860705    Uiso  ? N
   N12        1.0     0.433557     0.084765     0.581133    Uiso  ? N
   N13        1.0     0.210908     0.530550     0.386704    Uiso  ? N
   N14        1.0     0.108336     0.434291     0.129814    Uiso  ? N
   N15        1.0     0.892767     0.539172     0.875416    Uiso  ? N
   N16        1.0     0.800159     0.414388     0.632509    Uiso  ? N
   N17        1.0     0.566779     0.544209     0.372994    Uiso  ? N
   N18        1.0     0.439062     0.417947     0.124675    Uiso  ? N
   N19        1.0     0.231947     0.518745     0.878514    Uiso  ? N
   N20        1.0     0.111791     0.422979     0.630673    Uiso  ? N
   N21        1.0     0.897476     0.524275     0.387330    Uiso  ? N
   N22        1.0     0.787295     0.441340     0.134055    Uiso  ? N
   N23        1.0     0.557906     0.538250     0.853127    Uiso  ? N
   N24        1.0     0.423760     0.437028     0.627473    Uiso  ? N
   N25        1.0     0.230789     0.872982     0.322777    Uiso  ? N
   N26        1.0     0.110253     0.760272     0.099458    Uiso  ? N
   N27        1.0     0.869719     0.882929     0.877842    Uiso  ? N
   N28        1.0     0.784236     0.757870     0.622182    Uiso  ? N
   N29        1.0     0.544627     0.860702     0.320443    Uiso  ? N
   N30        1.0     0.439559     0.776480     0.066632    Uiso  ? N
   N31        1.0     0.229079     0.887134     0.829188    Uiso  ? N
   N32        1.0     0.110218     0.757812     0.626990    Uiso  ? N
   N33        1.0     0.881257     0.889333     0.385959    Uiso  ? N
   N34        1.0     0.780454     0.759724     0.115771    Uiso  ? N
   N35        1.0     0.561789     0.857874     0.823055    Uiso  ? N
   N36        1.0     0.430252     0.780935     0.577495    Uiso  ? N
