# generated using pymatgen
data_Sc2Al7N9
_symmetry_space_group_name_H-M   'P 1'
_cell_length_a   10.11593416
_cell_length_b   10.15694917
_cell_length_c   8.95202810
_cell_angle_alpha   90.06809722
_cell_angle_beta   90.07442231
_cell_angle_gamma   60.12794148
_symmetry_Int_Tables_number   1
_chemical_formula_structural   Sc2Al7N9
_chemical_formula_sum   'Sc8 Al28 N36'
_cell_volume   797.58935765
_cell_formula_units_Z   4
loop_
 _symmetry_equiv_pos_site_id
 _symmetry_equiv_pos_as_xyz
  1  'x, y, z'
loop_
 _atom_site_type_symbol
 _atom_site_label
 _atom_site_symmetry_multiplicity
 _atom_site_fract_x
 _atom_site_fract_y
 _atom_site_fract_z
 _atom_site_occupancy
  Al  Al0  1  0.10566708  0.10195090  0.35690183  1
  Al  Al1  1  0.22841618  0.20198635  0.12338056  1
  Al  Al2  1  0.78018586  0.09838858  0.86531556  1
  Al  Al3  1  0.88833721  0.20737564  0.61725854  1
  Al  Al4  1  0.44245988  0.09609746  0.37143374  1
  Al  Al5  1  0.55999099  0.19613915  0.11030576  1
  Al  Al6  1  0.10598378  0.09663014  0.87924609  1
  Al  Al7  1  0.22060101  0.20157889  0.61248030  1
  Al  Al8  1  0.77768355  0.09546190  0.37457265  1
  Al  Al9  1  0.88288755  0.20216978  0.12371679  1
  Al  Al10  1  0.44030293  0.09604820  0.86798921  1
  Al  Al11  1  0.55726520  0.20253448  0.62561280  1
  Al  Al12  1  0.11265621  0.42251532  0.36145267  1
  Al  Al13  1  0.22313559  0.54090098  0.10999299  1
  Al  Al14  1  0.77892553  0.41315386  0.86819993  1
  Al  Al15  1  0.88647017  0.53156102  0.60725524  1
  Al  Al16  1  0.55893231  0.53533030  0.11441812  1
  Al  Al17  1  0.77986635  0.42166118  0.37069579  1
  Al  Al18  1  0.44976534  0.42340591  0.86900367  1
  Al  Al19  1  0.56610396  0.52909470  0.61927800  1
  Al  Al20  1  0.10507076  0.76945459  0.35503063  1
  Al  Al21  1  0.22207660  0.87488702  0.11726658  1
  Al  Al22  1  0.88622757  0.88134307  0.62112620  1
  Al  Al23  1  0.44740080  0.75911611  0.35873163  1
  Al  Al24  1  0.54734921  0.88106531  0.12324399  1
  Al  Al25  1  0.10984359  0.77008703  0.87799959  1
  Al  Al26  1  0.88554663  0.88425624  0.11647416  1
  Al  Al27  1  0.55296029  0.87689521  0.61105117  1
  Sc  Sc28  1  0.45268972  0.42012785  0.35035530  1
  Sc  Sc29  1  0.11824117  0.41963959  0.85359334  1
  Sc  Sc30  1  0.22201583  0.54533696  0.60299381  1
  Sc  Sc31  1  0.88772523  0.53188312  0.10716664  1
  Sc  Sc32  1  0.77631984  0.76716980  0.85433784  1
  Sc  Sc33  1  0.21668495  0.88236131  0.60067743  1
  Sc  Sc34  1  0.77825748  0.76587601  0.35819154  1
  Sc  Sc35  1  0.44512640  0.75775459  0.85740975  1
  N  N36  1  0.22545005  0.20539643  0.33989371  1
  N  N37  1  0.10740463  0.09901321  0.10060027  1
  N  N38  1  0.89311328  0.20154277  0.83453784  1
  N  N39  1  0.77416241  0.09768720  0.59310326  1
  N  N40  1  0.56776515  0.18145010  0.32950148  1
  N  N41  1  0.44203314  0.09399435  0.08551805  1
  N  N42  1  0.22821680  0.18407054  0.83416580  1
  N  N43  1  0.09753597  0.11572992  0.57344293  1
  N  N44  1  0.88254277  0.20588310  0.33852633  1
  N  N45  1  0.77705744  0.09669099  0.07981610  1
  N  N46  1  0.55314222  0.20448316  0.84454675  1
  N  N47  1  0.44245440  0.09894100  0.58752657  1
  N  N48  1  0.20650618  0.54840420  0.34077586  1
  N  N49  1  0.12960086  0.41673664  0.09854960  1
  N  N50  1  0.87888960  0.52725533  0.84408237  1
  N  N51  1  0.77853435  0.42248857  0.58830425  1
  N  N52  1  0.56778077  0.54523199  0.33376549  1
  N  N53  1  0.44667566  0.42437077  0.09382251  1
  N  N54  1  0.23094167  0.55337923  0.85298855  1
  N  N55  1  0.10656927  0.41915124  0.59466753  1
  N  N56  1  0.89647906  0.52104213  0.35258640  1
  N  N57  1  0.77117789  0.41140036  0.08652385  1
  N  N58  1  0.56703806  0.51719382  0.84132678  1
  N  N59  1  0.46422251  0.41515077  0.59379566  1
  N  N60  1  0.22375829  0.87411396  0.33955947  1
  N  N61  1  0.10953312  0.76438485  0.09787396  1
  N  N62  1  0.89844336  0.88402167  0.84008940  1
  N  N63  1  0.77942886  0.76291554  0.60047579  1
  N  N64  1  0.53588908  0.88429740  0.34449025  1
  N  N65  1  0.44602744  0.76037744  0.10173491  1
  N  N66  1  0.20527084  0.88553121  0.85221449  1
  N  N67  1  0.09070715  0.77631207  0.57729284  1
  N  N68  1  0.89350279  0.88888941  0.33270038  1
  N  N69  1  0.76766484  0.77912913  0.10201081  1
  N  N70  1  0.54470455  0.89095598  0.83054715  1
  N  N71  1  0.46276103  0.74710819  0.59144713  1
