# generated using pymatgen
data_Sc2Al7N9
_symmetry_space_group_name_H-M   'P 1'
_cell_length_a   9.86115311
_cell_length_b   9.89049483
_cell_length_c   9.72634239
_cell_angle_alpha   90.05263322
_cell_angle_beta   90.08111890
_cell_angle_gamma   60.07683781
_symmetry_Int_Tables_number   1
_chemical_formula_structural   Sc2Al7N9
_chemical_formula_sum   'Sc8 Al28 N36'
_cell_volume   822.16919308
_cell_formula_units_Z   4
loop_
 _symmetry_equiv_pos_site_id
 _symmetry_equiv_pos_as_xyz
  1  'x, y, z'
loop_
 _atom_site_type_symbol
 _atom_site_label
 _atom_site_symmetry_multiplicity
 _atom_site_fract_x
 _atom_site_fract_y
 _atom_site_fract_z
 _atom_site_occupancy
  Al  Al0  1  0.10499143  0.10383079  0.37149133  1
  Al  Al1  1  0.22709574  0.20375931  0.13135367  1
  Al  Al2  1  0.77929400  0.09865430  0.87672367  1
  Al  Al3  1  0.88677711  0.20845411  0.62856034  1
  Al  Al4  1  0.44150444  0.09514625  0.37987364  1
  Al  Al5  1  0.56085919  0.19374772  0.12455719  1
  Al  Al6  1  0.10700796  0.09444082  0.88481464  1
  Al  Al7  1  0.22152602  0.20006198  0.62705227  1
  Al  Al8  1  0.77941352  0.09459448  0.38206694  1
  Al  Al9  1  0.88385463  0.20223513  0.13115152  1
  Al  Al10  1  0.44064627  0.09659190  0.87927790  1
  Al  Al11  1  0.55752789  0.20395985  0.63220353  1
  Al  Al12  1  0.10890204  0.42171184  0.38417578  1
  Al  Al13  1  0.21937403  0.54104041  0.13077014  1
  Al  Al14  1  0.77621171  0.41265072  0.87873947  1
  Al  Al15  1  0.88219474  0.53456517  0.63135229  1
  Al  Al16  1  0.55794312  0.54051415  0.12851400  1
  Al  Al17  1  0.78190665  0.42318354  0.38157322  1
  Al  Al18  1  0.44866969  0.42454748  0.88673807  1
  Al  Al19  1  0.56715403  0.52538024  0.62897859  1
  Al  Al20  1  0.10352073  0.77025188  0.37155911  1
  Al  Al21  1  0.22375732  0.87340220  0.13455389  1
  Al  Al22  1  0.88551115  0.88096784  0.63158367  1
  Al  Al23  1  0.44910209  0.75944501  0.38087031  1
  Al  Al24  1  0.54542398  0.87992663  0.13374132  1
  Al  Al25  1  0.11202949  0.76917428  0.88503652  1
  Al  Al26  1  0.88761238  0.88267600  0.12826962  1
  Al  Al27  1  0.55504641  0.87743219  0.62542892  1
  Sc  Sc28  1  0.45367725  0.42044209  0.35513798  1
  Sc  Sc29  1  0.12090977  0.42157119  0.85998092  1
  Sc  Sc30  1  0.22664594  0.54324194  0.61145641  1
  Sc  Sc31  1  0.89077241  0.53039947  0.11519173  1
  Sc  Sc32  1  0.77509867  0.77004203  0.86732914  1
  Sc  Sc33  1  0.21498349  0.88303665  0.61158743  1
  Sc  Sc34  1  0.77911805  0.76321576  0.36733237  1
  Sc  Sc35  1  0.44296383  0.75748322  0.86465939  1
  N  N36  1  0.22365339  0.20722439  0.32794811  1
  N  N37  1  0.10910174  0.09640430  0.08540997  1
  N  N38  1  0.89193750  0.20169695  0.82500807  1
  N  N39  1  0.77502812  0.09695889  0.57972593  1
  N  N40  1  0.56924782  0.17766997  0.31944452  1
  N  N41  1  0.44206428  0.09358731  0.07545454  1
  N  N42  1  0.22957085  0.18239770  0.82246569  1
  N  N43  1  0.09558557  0.11923190  0.56515652  1
  N  N44  1  0.88325905  0.20705879  0.32660824  1
  N  N45  1  0.77756496  0.09541050  0.07158147  1
  N  N46  1  0.55205537  0.20652128  0.83204569  1
  N  N47  1  0.44241092  0.09824923  0.57561235  1
  N  N48  1  0.20217753  0.54829971  0.33467481  1
  N  N49  1  0.13339772  0.41602017  0.07799573  1
  N  N50  1  0.87661962  0.52757091  0.83458167  1
  N  N51  1  0.77937404  0.42388745  0.57746394  1
  N  N52  1  0.57007269  0.54909708  0.32309104  1
  N  N53  1  0.44529599  0.42639960  0.09276954  1
  N  N54  1  0.23545717  0.55461575  0.83272288  1
  N  N55  1  0.10332396  0.41986272  0.58963416  1
  N  N56  1  0.89886917  0.51844707  0.33408866  1
  N  N57  1  0.76790671  0.41194631  0.07282295  1
  N  N58  1  0.56670464  0.51325095  0.82513809  1
  N  N59  1  0.46852563  0.41286160  0.57206788  1
  N  N60  1  0.22434827  0.87365396  0.33660024  1
  N  N61  1  0.11158736  0.76302772  0.08421035  1
  N  N62  1  0.89960798  0.88494222  0.82687750  1
  N  N63  1  0.77948807  0.76156199  0.59609096  1
  N  N64  1  0.53408726  0.88407399  0.33009322  1
  N  N65  1  0.44347114  0.76159132  0.08508481  1
  N  N66  1  0.20298729  0.88595543  0.83097495  1
  N  N67  1  0.08738185  0.77648793  0.56436374  1
  N  N68  1  0.89510183  0.88850535  0.32098880  1
  N  N69  1  0.76721754  0.77999817  0.09586069  1
  N  N70  1  0.54340393  0.89315256  0.81846032  1
  N  N71  1  0.46523261  0.74657225  0.58311492  1
