# generated using pymatgen
data_Sc2Al7N9
_symmetry_space_group_name_H-M   'P 1'
_cell_length_a   10.05712658
_cell_length_b   10.09596798
_cell_length_c   9.13119029
_cell_angle_alpha   90.06866686
_cell_angle_beta   90.08017802
_cell_angle_gamma   60.11792732
_symmetry_Int_Tables_number   1
_chemical_formula_structural   Sc2Al7N9
_chemical_formula_sum   'Sc8 Al28 N36'
_cell_volume   803.88562138
_cell_formula_units_Z   4
loop_
 _symmetry_equiv_pos_site_id
 _symmetry_equiv_pos_as_xyz
  1  'x, y, z'
loop_
 _atom_site_type_symbol
 _atom_site_label
 _atom_site_symmetry_multiplicity
 _atom_site_fract_x
 _atom_site_fract_y
 _atom_site_fract_z
 _atom_site_occupancy
  Al  Al0  1  0.10531341  0.10274744  0.36016525  1
  Al  Al1  1  0.22824621  0.20270434  0.12611402  1
  Al  Al2  1  0.78028918  0.09836295  0.86827007  1
  Al  Al3  1  0.88820381  0.20763588  0.62072054  1
  Al  Al4  1  0.44230666  0.09619742  0.37442771  1
  Al  Al5  1  0.56050772  0.19503502  0.11399984  1
  Al  Al6  1  0.10629527  0.09593360  0.88177248  1
  Al  Al7  1  0.22081737  0.20082678  0.61713751  1
  Al  Al8  1  0.77779789  0.09531772  0.37760658  1
  Al  Al9  1  0.88266495  0.20222787  0.12641682  1
  Al  Al10  1  0.44020376  0.09600016  0.87153091  1
  Al  Al11  1  0.55695390  0.20336341  0.62849377  1
  Al  Al12  1  0.11166538  0.42226267  0.36834588  1
  Al  Al13  1  0.22208675  0.54074270  0.11575603  1
  Al  Al14  1  0.77831440  0.41269763  0.87176811  1
  Al  Al15  1  0.88529996  0.53246324  0.61339299  1
  Al  Al16  1  0.55879958  0.53704974  0.11864736  1
  Al  Al17  1  0.78026030  0.42210040  0.37426867  1
  Al  Al18  1  0.44914826  0.42395030  0.87547763  1
  Al  Al19  1  0.56637653  0.52765787  0.62311361  1
  Al  Al20  1  0.10444775  0.76975353  0.35931252  1
  Al  Al21  1  0.22310326  0.87427637  0.12272008  1
  Al  Al22  1  0.88641273  0.88114852  0.62457045  1
  Al  Al23  1  0.44801226  0.75886147  0.36576030  1
  Al  Al24  1  0.54664814  0.88083353  0.12712283  1
  Al  Al25  1  0.11064447  0.76985327  0.88105535  1
  Al  Al26  1  0.88564190  0.88424962  0.11997603  1
  Al  Al27  1  0.55351275  0.87715926  0.61469944  1
  Sc  Sc28  1  0.45333073  0.41984982  0.35088669  1
  Sc  Sc29  1  0.11901176  0.42005965  0.85428965  1
  Sc  Sc30  1  0.22343794  0.54496715  0.60433864  1
  Sc  Sc31  1  0.88858665  0.53144179  0.10818554  1
  Sc  Sc32  1  0.77591238  0.76784740  0.85643041  1
  Sc  Sc33  1  0.21587192  0.88281837  0.60274378  1
  Sc  Sc34  1  0.77867135  0.76514434  0.35962853  1
  Sc  Sc35  1  0.44437778  0.75799799  0.85830614  1
  N  N36  1  0.22524729  0.20597867  0.33630576  1
  N  N37  1  0.10787482  0.09827462  0.09724048  1
  N  N38  1  0.89317408  0.20143732  0.83149981  1
  N  N39  1  0.77411110  0.09757785  0.58975437  1
  N  N40  1  0.56837547  0.18013358  0.32566408  1
  N  N41  1  0.44193451  0.09365084  0.08225920  1
  N  N42  1  0.22847034  0.18329258  0.83037946  1
  N  N43  1  0.09681748  0.11690602  0.57001933  1
  N  N44  1  0.88220346  0.20630648  0.33513505  1
  N  N45  1  0.77731509  0.09637196  0.07671040  1
  N  N46  1  0.55255196  0.20532720  0.84148995  1
  N  N47  1  0.44244384  0.09917126  0.58401548  1
  N  N48  1  0.20551783  0.54811237  0.33949116  1
  N  N49  1  0.13051822  0.41645694  0.09229258  1
  N  N50  1  0.87828015  0.52718812  0.84225034  1
  N  N51  1  0.77860577  0.42279729  0.58511413  1
  N  N52  1  0.56856002  0.54621460  0.32998318  1
  N  N53  1  0.44631249  0.42503795  0.09393986  1
  N  N54  1  0.23204123  0.55386092  0.84746958  1
  N  N55  1  0.10587385  0.41922036  0.59383688  1
  N  N56  1  0.89699555  0.52042397  0.34774042  1
  N  N57  1  0.77043474  0.41122983  0.08233173  1
  N  N58  1  0.56690949  0.51599656  0.83671594  1
  N  N59  1  0.46542281  0.41441370  0.58672983  1
  N  N60  1  0.22421650  0.87388676  0.33929985  1
  N  N61  1  0.11019169  0.76411153  0.09480814  1
  N  N62  1  0.89916497  0.88399647  0.83636029  1
  N  N63  1  0.77970236  0.76239412  0.59979461  1
  N  N64  1  0.53533563  0.88439923  0.34103599  1
  N  N65  1  0.44543825  0.76086049  0.09658683  1
  N  N66  1  0.20450406  0.88578233  0.84582109  1
  N  N67  1  0.08969424  0.77650340  0.57234628  1
  N  N68  1  0.89358044  0.88926265  0.32902797  1
  N  N69  1  0.76734556  0.77950963  0.10100612  1
  N  N70  1  0.54432715  0.89173210  0.82610012  1
  N  N71  1  0.46348858  0.74660592  0.58950810  1
