# generated using pymatgen
data_Sc2Al7N9
_symmetry_space_group_name_H-M   'P 1'
_cell_length_a   10.14470985
_cell_length_b   10.18675063
_cell_length_c   8.86551070
_cell_angle_alpha   90.06625058
_cell_angle_beta   90.07066520
_cell_angle_gamma   60.13220365
_symmetry_Int_Tables_number   1
_chemical_formula_structural   Sc2Al7N9
_chemical_formula_sum   'Sc8 Al28 N36'
_cell_volume   794.48608377
_cell_formula_units_Z   4
loop_
 _symmetry_equiv_pos_site_id
 _symmetry_equiv_pos_as_xyz
  1  'x, y, z'
loop_
 _atom_site_type_symbol
 _atom_site_label
 _atom_site_symmetry_multiplicity
 _atom_site_fract_x
 _atom_site_fract_y
 _atom_site_fract_z
 _atom_site_occupancy
  Al  Al0  1  0.10584076  0.10158143  0.35545292  1
  Al  Al1  1  0.22837788  0.20164718  0.12151990  1
  Al  Al2  1  0.77997242  0.09845183  0.86383439  1
  Al  Al3  1  0.88828634  0.20723579  0.61530787  1
  Al  Al4  1  0.44247157  0.09591588  0.36938850  1
  Al  Al5  1  0.55964335  0.19676412  0.10850826  1
  Al  Al6  1  0.10588810  0.09688753  0.87744346  1
  Al  Al7  1  0.22055976  0.20196030  0.60991071  1
  Al  Al8  1  0.77775806  0.09551298  0.37242485  1
  Al  Al9  1  0.88318922  0.20213408  0.12189849  1
  Al  Al10  1  0.44043366  0.09616307  0.86592860  1
  Al  Al11  1  0.55752990  0.20204761  0.62347402  1
  Al  Al12  1  0.11301360  0.42261713  0.35853852  1
  Al  Al13  1  0.22353072  0.54105520  0.10760293  1
  Al  Al14  1  0.77910475  0.41347535  0.86599571  1
  Al  Al15  1  0.88695618  0.53107652  0.60501360  1
  Al  Al16  1  0.55893627  0.53453603  0.11208743  1
  Al  Al17  1  0.77978700  0.42144469  0.36847422  1
  Al  Al18  1  0.45013353  0.42310157  0.86550968  1
  Al  Al19  1  0.56596974  0.52983109  0.61662170  1
  Al  Al20  1  0.10539336  0.76928702  0.35299183  1
  Al  Al21  1  0.22152352  0.87517316  0.11466204  1
  Al  Al22  1  0.88601455  0.88155130  0.61899148  1
  Al  Al23  1  0.44717778  0.75928162  0.35568211  1
  Al  Al24  1  0.54770239  0.88109275  0.12066188  1
  Al  Al25  1  0.10948154  0.77017362  0.87576606  1
  Al  Al26  1  0.88568478  0.88409873  0.11444403  1
  Al  Al27  1  0.55268006  0.87682054  0.60926855  1
  Sc  Sc28  1  0.45230152  0.42034530  0.35013539  1
  Sc  Sc29  1  0.11798679  0.41947224  0.85338372  1
  Sc  Sc30  1  0.22137569  0.54547136  0.60253693  1
  Sc  Sc31  1  0.88738291  0.53207641  0.10675611  1
  Sc  Sc32  1  0.77655254  0.76692325  0.85351117  1
  Sc  Sc33  1  0.21709040  0.88212663  0.59985558  1
  Sc  Sc34  1  0.77799790  0.76615783  0.35753673  1
  Sc  Sc35  1  0.44548598  0.75750506  0.85701133  1
  N  N36  1  0.22539586  0.20515934  0.34179609  1
  N  N37  1  0.10723408  0.09925970  0.10205440  1
  N  N38  1  0.89293332  0.20164883  0.83648261  1
  N  N39  1  0.77429768  0.09774024  0.59474813  1
  N  N40  1  0.56738750  0.18218649  0.33212176  1
  N  N41  1  0.44214242  0.09424643  0.08762246  1
  N  N42  1  0.22816875  0.18453125  0.83659983  1
  N  N43  1  0.09791450  0.11516440  0.57576241  1
  N  N44  1  0.88291202  0.20564018  0.34035759  1
  N  N45  1  0.77684525  0.09685564  0.08195389  1
  N  N46  1  0.55348938  0.20404793  0.84598448  1
  N  N47  1  0.44240713  0.09870200  0.58948697  1
  N  N48  1  0.20686665  0.54861484  0.34137420  1
  N  N49  1  0.12923883  0.41687796  0.10133664  1
  N  N50  1  0.87918944  0.52730451  0.84468840  1
  N  N51  1  0.77855551  0.42231908  0.59010403  1
  N  N52  1  0.56732589  0.54485110  0.33626517  1
  N  N53  1  0.44679752  0.42405039  0.09385199  1
  N  N54  1  0.23052581  0.55309910  0.85526078  1
  N  N55  1  0.10685712  0.41912287  0.59496820  1
  N  N56  1  0.89625698  0.52130962  0.35457713  1
  N  N57  1  0.77144746  0.41161510  0.08904178  1
  N  N58  1  0.56709517  0.51772634  0.84380187  1
  N  N59  1  0.46368590  0.41551813  0.59737232  1
  N  N60  1  0.22350530  0.87420291  0.33974225  1
  N  N61  1  0.10926186  0.76448359  0.09915460  1
  N  N62  1  0.89794624  0.88417958  0.84221199  1
  N  N63  1  0.77916639  0.76325666  0.60078909  1
  N  N64  1  0.53614269  0.88416574  0.34612541  1
  N  N65  1  0.44627626  0.76005512  0.10403110  1
  N  N66  1  0.20565885  0.88538810  0.85507977  1
  N  N67  1  0.09121749  0.77617328  0.58056081  1
  N  N68  1  0.89360620  0.88853452  0.33490743  1
  N  N69  1  0.76792486  0.77887574  0.10241024  1
  N  N70  1  0.54487230  0.89057435  0.83345385  1
  N  N71  1  0.46239630  0.74748499  0.59243977  1
