# generated using pymatgen
data_Sc2Al7N9
_symmetry_space_group_name_H-M   'P 1'
_cell_length_a   9.77466547
_cell_length_b   9.79955085
_cell_length_c   9.97733521
_cell_angle_alpha   89.99647167
_cell_angle_beta   89.96589319
_cell_angle_gamma   60.01475795
_symmetry_Int_Tables_number   1
_chemical_formula_structural   Sc2Al7N9
_chemical_formula_sum   'Sc8 Al28 N36'
_cell_volume   827.78536039
_cell_formula_units_Z   4
loop_
 _symmetry_equiv_pos_site_id
 _symmetry_equiv_pos_as_xyz
  1  'x, y, z'
loop_
 _atom_site_type_symbol
 _atom_site_label
 _atom_site_symmetry_multiplicity
 _atom_site_fract_x
 _atom_site_fract_y
 _atom_site_fract_z
 _atom_site_occupancy
  Al  Al0  1  0.10865567  0.09650110  0.32193367  1
  Al  Al1  1  0.22943426  0.19597357  0.07627221  1
  Al  Al2  1  0.77794507  0.09793978  0.82635791  1
  Al  Al3  1  0.88646077  0.20717314  0.57515913  1
  Al  Al4  1  0.44048363  0.09459307  0.32481846  1
  Al  Al5  1  0.55467183  0.20453193  0.07239664  1
  Al  Al6  1  0.10577360  0.09780204  0.82640238  1
  Al  Al7  1  0.21814584  0.20710696  0.57184738  1
  Al  Al8  1  0.78187332  0.09506385  0.32224928  1
  Al  Al9  1  0.88598615  0.20275405  0.07288052  1
  Al  Al10  1  0.44308447  0.09659387  0.82361927  1
  Al  Al11  1  0.56266710  0.19594354  0.57627255  1
  Al  Al12  1  0.11742989  0.42144459  0.31816079  1
  Al  Al13  1  0.22950754  0.54066215  0.07030457  1
  Al  Al14  1  0.77870601  0.41817506  0.82154546  1
  Al  Al15  1  0.89048605  0.52768148  0.56401660  1
  Al  Al16  1  0.55882671  0.52497673  0.07342985  1
  Al  Al17  1  0.77871038  0.41844765  0.32648485  1
  Al  Al18  1  0.45531132  0.41990039  0.82117749  1
  Al  Al19  1  0.56625045  0.53875357  0.57467318  1
  Al  Al20  1  0.11044700  0.76510559  0.31662695  1
  Al  Al21  1  0.21509777  0.87808476  0.07640864  1
  Al  Al22  1  0.88761325  0.88390364  0.56993609  1
  Al  Al23  1  0.44294057  0.76310880  0.31463570  1
  Al  Al24  1  0.55432426  0.88329796  0.07708561  1
  Al  Al25  1  0.10478962  0.77364534  0.83180995  1
  Al  Al26  1  0.88624302  0.88061959  0.07604586  1
  Al  Al27  1  0.54796921  0.87583365  0.56974859  1
  Sc  Sc28  1  0.44724768  0.42470143  0.33616782  1
  Sc  Sc29  1  0.11134821  0.42135987  0.84151865  1
  Sc  Sc30  1  0.21562519  0.54241031  0.58834079  1
  Sc  Sc31  1  0.88113376  0.53901675  0.09468418  1
  Sc  Sc32  1  0.77909375  0.76523856  0.81916707  1
  Sc  Sc33  1  0.22366319  0.87569653  0.57756746  1
  Sc  Sc34  1  0.77489309  0.76944342  0.34580141  1
  Sc  Sc35  1  0.44790431  0.75645011  0.84726162  1
  N  N36  1  0.22152669  0.20591810  0.37791561  1
  N  N37  1  0.10703030  0.09812265  0.13073233  1
  N  N38  1  0.88852754  0.20495882  0.88055919  1
  N  N39  1  0.77746881  0.09592934  0.63404524  1
  N  N40  1  0.56858137  0.18019879  0.38528908  1
  N  N41  1  0.44380913  0.09751631  0.13392904  1
  N  N42  1  0.23278952  0.18235184  0.88667865  1
  N  N43  1  0.10062880  0.11286480  0.63395622  1
  N  N44  1  0.88924666  0.20331715  0.38306666  1
  N  N45  1  0.77525358  0.09739591  0.13004764  1
  N  N46  1  0.55418427  0.20432217  0.87823572  1
  N  N47  1  0.44099404  0.09576470  0.63038339  1
  N  N48  1  0.20120849  0.55081058  0.37443904  1
  N  N49  1  0.13246638  0.41719234  0.11998352  1
  N  N50  1  0.87145774  0.53350840  0.88367903  1
  N  N51  1  0.78047566  0.42462108  0.62764880  1
  N  N52  1  0.56486046  0.55152419  0.38265372  1
  N  N53  1  0.44410975  0.42453523  0.12354826  1
  N  N54  1  0.23428042  0.55037112  0.87268961  1
  N  N55  1  0.09942179  0.41882285  0.62803309  1
  N  N56  1  0.89997566  0.51611943  0.36600901  1
  N  N57  1  0.76648717  0.41098354  0.13862440  1
  N  N58  1  0.57034065  0.51105158  0.88392220  1
  N  N59  1  0.46611046  0.41668633  0.62311614  1
  N  N60  1  0.22373851  0.87137905  0.36230573  1
  N  N61  1  0.11031492  0.76112415  0.12485842  1
  N  N62  1  0.89239969  0.88605524  0.88714890  1
  N  N63  1  0.77801058  0.76185013  0.59531579  1
  N  N64  1  0.52746390  0.88500394  0.38015538  1
  N  N65  1  0.44719979  0.75774786  0.11604924  1
  N  N66  1  0.20331020  0.88652387  0.88350929  1
  N  N67  1  0.08913721  0.77781266  0.64305133  1
  N  N68  1  0.90359842  0.88687547  0.38138468  1
  N  N69  1  0.76857801  0.78360078  0.12979589  1
  N  N70  1  0.55174845  0.89248024  0.88844966  1
  N  N71  1  0.46471198  0.75066276  0.63445063  1
