# generated using pymatgen
data_Sc2Al7N9
_symmetry_space_group_name_H-M   'P 1'
_cell_length_a   9.73024569
_cell_length_b   9.75307998
_cell_length_c   10.09945285
_cell_angle_alpha   90.00172909
_cell_angle_beta   89.95489058
_cell_angle_gamma   60.00711455
_symmetry_Int_Tables_number   1
_chemical_formula_structural   Sc2Al7N9
_chemical_formula_sum   'Sc8 Al28 N36'
_cell_volume   830.08967814
_cell_formula_units_Z   4
loop_
 _symmetry_equiv_pos_site_id
 _symmetry_equiv_pos_as_xyz
  1  'x, y, z'
loop_
 _atom_site_type_symbol
 _atom_site_label
 _atom_site_symmetry_multiplicity
 _atom_site_fract_x
 _atom_site_fract_y
 _atom_site_fract_z
 _atom_site_occupancy
  Al  Al0  1  0.10880209  0.09660617  0.31124229  1
  Al  Al1  1  0.22903762  0.19672495  0.06611063  1
  Al  Al2  1  0.77814437  0.09777950  0.81647469  1
  Al  Al3  1  0.88662499  0.20720157  0.56544235  1
  Al  Al4  1  0.44059939  0.09455514  0.31452663  1
  Al  Al5  1  0.55515785  0.20402435  0.06197581  1
  Al  Al6  1  0.10599040  0.09715950  0.81719883  1
  Al  Al7  1  0.21896058  0.20599376  0.56180759  1
  Al  Al8  1  0.78225406  0.09487842  0.31287748  1
  Al  Al9  1  0.88589266  0.20311617  0.06323402  1
  Al  Al10  1  0.44370099  0.09611479  0.81440806  1
  Al  Al11  1  0.56235618  0.19677050  0.56681036  1
  Al  Al12  1  0.11694929  0.42093814  0.30858410  1
  Al  Al13  1  0.22836029  0.54046542  0.06058551  1
  Al  Al14  1  0.77849130  0.41869463  0.81150853  1
  Al  Al15  1  0.89024733  0.52756078  0.55344432  1
  Al  Al16  1  0.55846434  0.52672470  0.06272684  1
  Al  Al17  1  0.77887403  0.41888297  0.31622294  1
  Al  Al18  1  0.45447530  0.42058968  0.81294366  1
  Al  Al19  1  0.56577365  0.53809313  0.56487048  1
  Al  Al20  1  0.11036508  0.76512000  0.30561508  1
  Al  Al21  1  0.21545991  0.87767722  0.06693683  1
  Al  Al22  1  0.88814211  0.88342718  0.55992920  1
  Al  Al23  1  0.44321266  0.76287943  0.30507299  1
  Al  Al24  1  0.55455280  0.88254431  0.06738510  1
  Al  Al25  1  0.10503724  0.77279423  0.82233650  1
  Al  Al26  1  0.88580775  0.88038379  0.06585993  1
  Al  Al27  1  0.54785957  0.87616109  0.55872038  1
  Sc  Sc28  1  0.44800447  0.42420506  0.32175193  1
  Sc  Sc29  1  0.11190220  0.42128615  0.82739253  1
  Sc  Sc30  1  0.21675422  0.54189529  0.57459251  1
  Sc  Sc31  1  0.88145918  0.53974333  0.08178926  1
  Sc  Sc32  1  0.77874623  0.76580408  0.80568674  1
  Sc  Sc33  1  0.22268752  0.87563966  0.56493198  1
  Sc  Sc34  1  0.77544862  0.76884858  0.33588804  1
  Sc  Sc35  1  0.44679990  0.75766583  0.83455175  1
  N  N36  1  0.22188516  0.20514019  0.36986412  1
  N  N37  1  0.10700349  0.09841981  0.12207859  1
  N  N38  1  0.88828185  0.20535614  0.87251270  1
  N  N39  1  0.77777205  0.09556606  0.62574620  1
  N  N40  1  0.56830861  0.18085470  0.37742988  1
  N  N41  1  0.44382934  0.09747798  0.12536885  1
  N  N42  1  0.23281483  0.18276133  0.87843296  1
  N  N43  1  0.10114945  0.11200172  0.62648632  1
  N  N44  1  0.88951229  0.20352773  0.37477840  1
  N  N45  1  0.77542462  0.09733428  0.12217368  1
  N  N46  1  0.55468675  0.20402515  0.87005764  1
  N  N47  1  0.44160207  0.09534736  0.62260465  1
  N  N48  1  0.20233585  0.55025555  0.36402831  1
  N  N49  1  0.13197473  0.41704236  0.11376466  1
  N  N50  1  0.87213113  0.53439524  0.87331842  1
  N  N51  1  0.78029360  0.42474774  0.61962137  1
  N  N52  1  0.56467433  0.55080714  0.37477961  1
  N  N53  1  0.44431502  0.42474998  0.11254307  1
  N  N54  1  0.23349081  0.55009687  0.86634415  1
  N  N55  1  0.10013661  0.41872585  0.61730939  1
  N  N56  1  0.90009571  0.51567945  0.35913833  1
  N  N57  1  0.76635863  0.41212870  0.13010551  1
  N  N58  1  0.56992209  0.51265910  0.87549061  1
  N  N59  1  0.46571659  0.41690066  0.61764796  1
  N  N60  1  0.22356575  0.87138887  0.35243923  1
  N  N61  1  0.10965998  0.76123565  0.11641736  1
  N  N62  1  0.89187174  0.88543651  0.87879781  1
  N  N63  1  0.77800854  0.76173194  0.58485339  1
  N  N64  1  0.52739506  0.88509439  0.37176492  1
  N  N65  1  0.44726865  0.75790081  0.10888263  1
  N  N66  1  0.20291496  0.88621265  0.87678083  1
  N  N67  1  0.08975231  0.77664479  0.63543423  1
  N  N68  1  0.90448751  0.88668557  0.37376357  1
  N  N69  1  0.76844424  0.78368060  0.12296978  1
  N  N70  1  0.55273601  0.89152422  0.88071178  1
  N  N71  1  0.46363325  0.75142331  0.62444380  1
