# generated using pymatgen
data_Sc2Al7N9
_symmetry_space_group_name_H-M   'P 1'
_cell_length_a   10.10445072
_cell_length_b   10.14653917
_cell_length_c   8.98494910
_cell_angle_alpha   90.02563191
_cell_angle_beta   90.03014648
_cell_angle_gamma   60.11619370
_symmetry_Int_Tables_number   1
_chemical_formula_structural   Sc2Al7N9
_chemical_formula_sum   'Sc8 Al28 N36'
_cell_volume   798.70082085
_cell_formula_units_Z   4
loop_
 _symmetry_equiv_pos_site_id
 _symmetry_equiv_pos_as_xyz
  1  'x, y, z'
loop_
 _atom_site_type_symbol
 _atom_site_label
 _atom_site_symmetry_multiplicity
 _atom_site_fract_x
 _atom_site_fract_y
 _atom_site_fract_z
 _atom_site_occupancy
  Al  Al0  1  0.10643718  0.09817347  0.33383885  1
  Al  Al1  1  0.22883062  0.19751438  0.09311278  1
  Al  Al2  1  0.77840562  0.09836130  0.83764843  1
  Al  Al3  1  0.88654028  0.20553680  0.58433307  1
  Al  Al4  1  0.44273330  0.09419149  0.33787532  1
  Al  Al5  1  0.55528344  0.20181226  0.08171188  1
  Al  Al6  1  0.10600667  0.09923704  0.83906962  1
  Al  Al7  1  0.21929760  0.20576574  0.57881226  1
  Al  Al8  1  0.77949349  0.09608063  0.33129565  1
  Al  Al9  1  0.88642973  0.20290991  0.08415876  1
  Al  Al10  1  0.44049979  0.09757529  0.83162198  1
  Al  Al11  1  0.56213619  0.19765383  0.59047013  1
  Al  Al12  1  0.11357669  0.42366514  0.34142684  1
  Al  Al13  1  0.22652916  0.54061987  0.09311621  1
  Al  Al14  1  0.77829472  0.41611888  0.82976645  1
  Al  Al15  1  0.88844282  0.53087110  0.59066947  1
  Al  Al16  1  0.56029578  0.52739055  0.09018807  1
  Al  Al17  1  0.78025082  0.41868034  0.34210073  1
  Al  Al18  1  0.45336644  0.42118176  0.84274525  1
  Al  Al19  1  0.56455404  0.53608138  0.58398089  1
  Al  Al20  1  0.10867966  0.76701902  0.32779542  1
  Al  Al21  1  0.21768247  0.87830309  0.09491094  1
  Al  Al22  1  0.88507958  0.88427902  0.58360358  1
  Al  Al23  1  0.44446188  0.76181305  0.33375713  1
  Al  Al24  1  0.55020927  0.88333381  0.08966325  1
  Al  Al25  1  0.10627418  0.77248378  0.84775164  1
  Al  Al26  1  0.88701285  0.88227810  0.08824626  1
  Al  Al27  1  0.55027637  0.87563048  0.58533369  1
  Sc  Sc28  1  0.44920970  0.42158030  0.34824874  1
  Sc  Sc29  1  0.11655508  0.41908698  0.85271016  1
  Sc  Sc30  1  0.21858838  0.54511435  0.60163642  1
  Sc  Sc31  1  0.88460649  0.53293102  0.10300694  1
  Sc  Sc32  1  0.77826345  0.76724584  0.84627922  1
  Sc  Sc33  1  0.22037328  0.87871110  0.59548456  1
  Sc  Sc34  1  0.77576791  0.76697200  0.35125023  1
  Sc  Sc35  1  0.44806797  0.75477825  0.85528021  1
  N  N36  1  0.22229206  0.20444371  0.36168201  1
  N  N37  1  0.10624524  0.09834846  0.11921267  1
  N  N38  1  0.88894890  0.20475895  0.86854806  1
  N  N39  1  0.77751083  0.09684577  0.62281141  1
  N  N40  1  0.56810634  0.18209084  0.37323169  1
  N  N41  1  0.44482274  0.09689703  0.12291361  1
  N  N42  1  0.23146181  0.18496887  0.87557521  1
  N  N43  1  0.09963930  0.11502608  0.61796275  1
  N  N44  1  0.88843181  0.20204400  0.36996858  1
  N  N45  1  0.77395347  0.09864929  0.11596398  1
  N  N46  1  0.55413968  0.20286224  0.86396288  1
  N  N47  1  0.43948143  0.09666590  0.61535446  1
  N  N48  1  0.20482795  0.55119230  0.35392303  1
  N  N49  1  0.12940272  0.41752079  0.11173151  1
  N  N50  1  0.87775755  0.52838700  0.85768546  1
  N  N51  1  0.77879197  0.42233657  0.61124983  1
  N  N52  1  0.56402603  0.54744669  0.36452524  1
  N  N53  1  0.44624363  0.42206385  0.10703788  1
  N  N54  1  0.23267024  0.55029529  0.86344383  1
  N  N55  1  0.10561408  0.41881963  0.60619928  1
  N  N56  1  0.89620455  0.52101067  0.36156508  1
  N  N57  1  0.77057220  0.41103676  0.12681334  1
  N  N58  1  0.57011877  0.51458943  0.87173571  1
  N  N59  1  0.46454367  0.41698267  0.61175669  1
  N  N60  1  0.22218656  0.87355140  0.34960018  1
  N  N61  1  0.10999143  0.76339503  0.11052694  1
  N  N62  1  0.89381016  0.88801028  0.87405938  1
  N  N63  1  0.77666466  0.76508231  0.60122197  1
  N  N64  1  0.53430176  0.88308698  0.36633196  1
  N  N65  1  0.44711412  0.75796745  0.11191538  1
  N  N66  1  0.20694509  0.88588127  0.86789183  1
  N  N67  1  0.09034187  0.77657008  0.62610594  1
  N  N68  1  0.89842632  0.88600345  0.36492870  1
  N  N69  1  0.77034086  0.77827676  0.10818935  1
  N  N70  1  0.54549919  0.89227355  0.87062953  1
  N  N71  1  0.46223646  0.74958541  0.61272025  1
