# generated using pymatgen
data_Sc2Al7N9
_symmetry_space_group_name_H-M   'P 1'
_cell_length_a   9.73326307
_cell_length_b   9.75791124
_cell_length_c   10.09833438
_cell_angle_alpha   90.04620904
_cell_angle_beta   90.07844661
_cell_angle_gamma   60.03188933
_symmetry_Int_Tables_number   1
_chemical_formula_structural   Sc2Al7N9
_chemical_formula_sum   'Sc8 Al28 N36'
_cell_volume   830.87321382
_cell_formula_units_Z   4
loop_
 _symmetry_equiv_pos_site_id
 _symmetry_equiv_pos_as_xyz
  1  'x, y, z'
loop_
 _atom_site_type_symbol
 _atom_site_label
 _atom_site_symmetry_multiplicity
 _atom_site_fract_x
 _atom_site_fract_y
 _atom_site_fract_z
 _atom_site_occupancy
  Al  Al0  1  0.10604271  0.10194554  0.39795719  1
  Al  Al1  1  0.22676613  0.20261990  0.15581410  1
  Al  Al2  1  0.77902311  0.09839944  0.90136264  1
  Al  Al3  1  0.88632984  0.20833578  0.65229998  1
  Al  Al4  1  0.44136381  0.09473303  0.40323194  1
  Al  Al5  1  0.55969583  0.19584105  0.14941384  1
  Al  Al6  1  0.10695715  0.09486985  0.90666441  1
  Al  Al7  1  0.22146910  0.20147058  0.65038318  1
  Al  Al8  1  0.78039527  0.09484268  0.40363585  1
  Al  Al9  1  0.88466407  0.20287139  0.15321201  1
  Al  Al10  1  0.44136529  0.09618279  0.90230710  1
  Al  Al11  1  0.55848993  0.20294041  0.65475276  1
  Al  Al12  1  0.10994764  0.42204851  0.40762161  1
  Al  Al13  1  0.21972258  0.54125607  0.15477718  1
  Al  Al14  1  0.77614985  0.41463674  0.90076943  1
  Al  Al15  1  0.88329391  0.53453006  0.65399154  1
  Al  Al16  1  0.55756644  0.53893463  0.15372277  1
  Al  Al17  1  0.78161266  0.42295131  0.40682605  1
  Al  Al18  1  0.44969664  0.42380445  0.90919722  1
  Al  Al19  1  0.56627610  0.52794873  0.65210017  1
  Al  Al20  1  0.10477217  0.76974523  0.39677133  1
  Al  Al21  1  0.22169814  0.87428162  0.15828996  1
  Al  Al22  1  0.88570597  0.88066026  0.65488544  1
  Al  Al23  1  0.44772796  0.76102401  0.40209760  1
  Al  Al24  1  0.54661687  0.88009780  0.15818783  1
  Al  Al25  1  0.11071767  0.76926767  0.90949823  1
  Al  Al26  1  0.88780732  0.88166806  0.15350119  1
  Al  Al27  1  0.55503663  0.87634631  0.65072109  1
  Sc  Sc28  1  0.45138949  0.42225545  0.38483247  1
  Sc  Sc29  1  0.11886741  0.42146446  0.89205494  1
  Sc  Sc30  1  0.22547596  0.54236808  0.64320803  1
  Sc  Sc31  1  0.88889487  0.53201058  0.14874173  1
  Sc  Sc32  1  0.77566826  0.76917681  0.89471080  1
  Sc  Sc33  1  0.21715945  0.88114261  0.64187057  1
  Sc  Sc34  1  0.77858773  0.76476702  0.39875753  1
  Sc  Sc35  1  0.44361627  0.75704856  0.89733183  1
  N  N36  1  0.22330965  0.20633520  0.34623692  1
  N  N37  1  0.10908760  0.09671608  0.10067634  1
  N  N38  1  0.89107173  0.20211700  0.84312554  1
  N  N39  1  0.77585768  0.09654809  0.59575487  1
  N  N40  1  0.56830815  0.17926702  0.33800429  1
  N  N41  1  0.44206779  0.09403497  0.09307640  1
  N  N42  1  0.22964116  0.18344398  0.83928909  1
  N  N43  1  0.09681252  0.11725800  0.58512963  1
  N  N44  1  0.88477184  0.20746556  0.34368342  1
  N  N45  1  0.77753767  0.09516374  0.09078263  1
  N  N46  1  0.55322853  0.20546690  0.84877062  1
  N  N47  1  0.44309311  0.09708790  0.59344162  1
  N  N48  1  0.20139443  0.54921701  0.34909085  1
  N  N49  1  0.13089838  0.41662786  0.10014492  1
  N  N50  1  0.87689554  0.52788144  0.84629142  1
  N  N51  1  0.77907658  0.42388367  0.59570145  1
  N  N52  1  0.57014509  0.54810668  0.34116528  1
  N  N53  1  0.44527663  0.42627636  0.10851482  1
  N  N54  1  0.23400437  0.55344599  0.85422849  1
  N  N55  1  0.10367644  0.41972126  0.60294565  1
  N  N56  1  0.89763132  0.52020206  0.35673755  1
  N  N57  1  0.76752406  0.41391764  0.08880610  1
  N  N58  1  0.56566311  0.51511315  0.84138484  1
  N  N59  1  0.46682185  0.41418726  0.59304771  1
  N  N60  1  0.22312944  0.87427500  0.35241289  1
  N  N61  1  0.11046095  0.76337495  0.10106066  1
  N  N62  1  0.89936750  0.88495562  0.84313567  1
  N  N63  1  0.77925983  0.76217192  0.61517958  1
  N  N64  1  0.53519259  0.88414537  0.34624078  1
  N  N65  1  0.44332648  0.76146693  0.10767451  1
  N  N66  1  0.20437953  0.88424901  0.85165867  1
  N  N67  1  0.08878715  0.77523527  0.58240365  1
  N  N68  1  0.89583991  0.88761110  0.33924580  1
  N  N69  1  0.76751203  0.77976699  0.11204901  1
  N  N70  1  0.54308106  0.89169015  0.83637213  1
  N  N71  1  0.46534825  0.74769368  0.59574162  1
