# generated using pymatgen
data_Sc2Al7N9
_symmetry_space_group_name_H-M   'P 1'
_cell_length_a   10.21312636
_cell_length_b   10.25906181
_cell_length_c   8.65972560
_cell_angle_alpha   90.03943770
_cell_angle_beta   90.03963849
_cell_angle_gamma   60.14011880
_symmetry_Int_Tables_number   1
_chemical_formula_structural   Sc2Al7N9
_chemical_formula_sum   'Sc8 Al28 N36'
_cell_volume   786.88712452
_cell_formula_units_Z   4
loop_
 _symmetry_equiv_pos_site_id
 _symmetry_equiv_pos_as_xyz
  1  'x, y, z'
loop_
 _atom_site_type_symbol
 _atom_site_label
 _atom_site_symmetry_multiplicity
 _atom_site_fract_x
 _atom_site_fract_y
 _atom_site_fract_z
 _atom_site_occupancy
  Al  Al0  1  0.10636218  0.09949448  0.34340878  1
  Al  Al1  1  0.22786960  0.19904349  0.10221041  1
  Al  Al2  1  0.77819626  0.09864114  0.84662746  1
  Al  Al3  1  0.88634671  0.20592431  0.59279977  1
  Al  Al4  1  0.44239322  0.09435403  0.34682222  1
  Al  Al5  1  0.55640133  0.20030241  0.09142166  1
  Al  Al6  1  0.10623131  0.09798594  0.85216078  1
  Al  Al7  1  0.22059200  0.20437941  0.58877082  1
  Al  Al8  1  0.77899207  0.09593161  0.34085087  1
  Al  Al9  1  0.88668699  0.20247580  0.09578425  1
  Al  Al10  1  0.44116682  0.09743481  0.84260401  1
  Al  Al11  1  0.56065423  0.19922109  0.59912786  1
  Al  Al12  1  0.11290951  0.42325114  0.34993158  1
  Al  Al13  1  0.22423649  0.54175995  0.10076863  1
  Al  Al14  1  0.77868738  0.41556479  0.84217333  1
  Al  Al15  1  0.88813879  0.52982440  0.59900113  1
  Al  Al16  1  0.55950313  0.53111007  0.09981544  1
  Al  Al17  1  0.78017299  0.41984606  0.35009782  1
  Al  Al18  1  0.45224581  0.42163624  0.85282479  1
  Al  Al19  1  0.56476787  0.53325924  0.59587765  1
  Al  Al20  1  0.10740179  0.76797082  0.33870195  1
  Al  Al21  1  0.21888400  0.87731276  0.10384339  1
  Al  Al22  1  0.88449379  0.88405715  0.59522068  1
  Al  Al23  1  0.44626066  0.76055960  0.34629271  1
  Al  Al24  1  0.54930570  0.88157426  0.10077511  1
  Al  Al25  1  0.10755010  0.77125343  0.85717972  1
  Al  Al26  1  0.88740026  0.88194778  0.09690668  1
  Al  Al27  1  0.55117725  0.87664760  0.59624713  1
  Sc  Sc28  1  0.45007958  0.42136281  0.34928116  1
  Sc  Sc29  1  0.11786367  0.41905336  0.85353030  1
  Sc  Sc30  1  0.21995164  0.54534694  0.60266974  1
  Sc  Sc31  1  0.88605613  0.53251130  0.10461544  1
  Sc  Sc32  1  0.77794398  0.76730652  0.84974084  1
  Sc  Sc33  1  0.21897519  0.88002601  0.59815674  1
  Sc  Sc34  1  0.77627941  0.76634801  0.35391120  1
  Sc  Sc35  1  0.44713855  0.75538588  0.85617795  1
  N  N36  1  0.22316559  0.20405600  0.35439846  1
  N  N37  1  0.10700893  0.09839710  0.11126491  1
  N  N38  1  0.88991299  0.20362996  0.86015578  1
  N  N39  1  0.77658397  0.09760597  0.61338758  1
  N  N40  1  0.56646592  0.18437444  0.36110360  1
  N  N41  1  0.44412271  0.09603006  0.11174118  1
  N  N42  1  0.23008042  0.18650674  0.86339417  1
  N  N43  1  0.09957266  0.11398906  0.60435522  1
  N  N44  1  0.88721762  0.20323503  0.35900389  1
  N  N45  1  0.77454537  0.09801462  0.10664814  1
  N  N46  1  0.55463774  0.20262386  0.85714034  1
  N  N47  1  0.44040208  0.09713884  0.60679657  1
  N  N48  1  0.20654050  0.55049908  0.34567132  1
  N  N49  1  0.12826403  0.41745777  0.11035661  1
  N  N50  1  0.87966457  0.52795425  0.84762925  1
  N  N51  1  0.77863754  0.42137481  0.60397230  1
  N  N52  1  0.56474447  0.54478949  0.35436616  1
  N  N53  1  0.44688357  0.42246622  0.09786469  1
  N  N54  1  0.23081285  0.55096780  0.86198059  1
  N  N55  1  0.10746760  0.41879352  0.59767400  1
  N  N56  1  0.89520736  0.52210791  0.36112147  1
  N  N57  1  0.77148118  0.41278551  0.11362082  1
  N  N58  1  0.56827270  0.51772407  0.86013223  1
  N  N59  1  0.46286982  0.41695714  0.60914942  1
  N  N60  1  0.22182180  0.87447550  0.34358832  1
  N  N61  1  0.10917243  0.76450603  0.10522114  1
  N  N62  1  0.89463868  0.88666006  0.86296646  1
  N  N63  1  0.77667166  0.76586063  0.60172700  1
  N  N64  1  0.53643829  0.88311374  0.35745105  1
  N  N65  1  0.44706897  0.75819113  0.11144169  1
  N  N66  1  0.20773142  0.88476133  0.86373874  1
  N  N67  1  0.09215537  0.77549003  0.61035479  1
  N  N68  1  0.89609486  0.88598729  0.35522807  1
  N  N69  1  0.77006642  0.77741023  0.10478643  1
  N  N70  1  0.54520540  0.89035279  0.85726215  1
  N  N71  1  0.46123172  0.74955761  0.59955067  1
