# generated using pymatgen
data_Sc2Al7N9
_symmetry_space_group_name_H-M   'P 1'
_cell_length_a   9.82487757
_cell_length_b   9.85219551
_cell_length_c   9.83367223
_cell_angle_alpha   90.04941382
_cell_angle_beta   90.07942117
_cell_angle_gamma   60.06799416
_symmetry_Int_Tables_number   1
_chemical_formula_structural   Sc2Al7N9
_chemical_formula_sum   'Sc8 Al28 N36'
_cell_volume   824.90370579
_cell_formula_units_Z   4
loop_
 _symmetry_equiv_pos_site_id
 _symmetry_equiv_pos_as_xyz
  1  'x, y, z'
loop_
 _atom_site_type_symbol
 _atom_site_label
 _atom_site_symmetry_multiplicity
 _atom_site_fract_x
 _atom_site_fract_y
 _atom_site_fract_z
 _atom_site_occupancy
  Al  Al0  1  0.10518013  0.10351378  0.37319790  1
  Al  Al1  1  0.22699710  0.20358226  0.13216432  1
  Al  Al2  1  0.77914046  0.09863415  0.87785151  1
  Al  Al3  1  0.88654810  0.20853053  0.62946423  1
  Al  Al4  1  0.44141160  0.09492472  0.38057140  1
  Al  Al5  1  0.56071772  0.19399324  0.12590968  1
  Al  Al6  1  0.10698782  0.09452137  0.88500992  1
  Al  Al7  1  0.22155220  0.20032455  0.62799985  1
  Al  Al8  1  0.77975641  0.09449910  0.38239293  1
  Al  Al9  1  0.88413861  0.20228294  0.13159073  1
  Al  Al10  1  0.44080824  0.09660516  0.88005458  1
  Al  Al11  1  0.55779478  0.20374729  0.63253347  1
  Al  Al12  1  0.10894781  0.42169701  0.38537251  1
  Al  Al13  1  0.21932526  0.54111124  0.13200552  1
  Al  Al14  1  0.77607552  0.41300625  0.87930146  1
  Al  Al15  1  0.88210631  0.53482698  0.63259157  1
  Al  Al16  1  0.55785340  0.54044365  0.12979437  1
  Al  Al17  1  0.78200946  0.42317352  0.38266093  1
  Al  Al18  1  0.44892831  0.42440059  0.88746823  1
  Al  Al19  1  0.56710789  0.52568137  0.62953741  1
  Al  Al20  1  0.10370257  0.77017891  0.37304940  1
  Al  Al21  1  0.22335489  0.87353573  0.13551618  1
  Al  Al22  1  0.88535219  0.88083927  0.63232058  1
  Al  Al23  1  0.44885346  0.75981901  0.38162942  1
  Al  Al24  1  0.54553271  0.87987516  0.13465220  1
  Al  Al25  1  0.11183667  0.76918839  0.88565245  1
  Al  Al26  1  0.88789290  0.88232010  0.12951231  1
  Al  Al27  1  0.55517767  0.87721650  0.62683600  1
  Sc  Sc28  1  0.45333250  0.42078518  0.35676220  1
  Sc  Sc29  1  0.12069726  0.42179009  0.86211392  1
  Sc  Sc30  1  0.22678644  0.54292504  0.61365221  1
  Sc  Sc31  1  0.89076985  0.53045281  0.11781014  1
  Sc  Sc32  1  0.77507789  0.77013330  0.86962071  1
  Sc  Sc33  1  0.21527294  0.88273782  0.61379800  1
  Sc  Sc34  1  0.77903749  0.76326651  0.36961008  1
  Sc  Sc35  1  0.44299279  0.75732622  0.86708587  1
  N  N36  1  0.22348116  0.20711140  0.32692022  1
  N  N37  1  0.10915648  0.09638125  0.08352499  1
  N  N38  1  0.89165121  0.20181469  0.82406638  1
  N  N39  1  0.77528545  0.09679576  0.57818382  1
  N  N40  1  0.56919783  0.17766319  0.31868002  1
  N  N41  1  0.44213302  0.09364277  0.07440567  1
  N  N42  1  0.22966820  0.18256951  0.82123738  1
  N  N43  1  0.09570172  0.11908945  0.56472375  1
  N  N44  1  0.88364429  0.20710386  0.32537337  1
  N  N45  1  0.77760482  0.09523640  0.07094671  1
  N  N46  1  0.55225086  0.20639209  0.83061615  1
  N  N47  1  0.44250161  0.09793477  0.57451927  1
  N  N48  1  0.20180682  0.54848961  0.33316023  1
  N  N49  1  0.13334552  0.41604908  0.07718750  1
  N  N50  1  0.87644742  0.52780971  0.83249448  1
  N  N51  1  0.77942943  0.42400211  0.57645582  1
  N  N52  1  0.57021890  0.54917690  0.32214330  1
  N  N53  1  0.44531103  0.42639946  0.09181060  1
  N  N54  1  0.23560104  0.55452402  0.83177730  1
  N  N55  1  0.10315180  0.41995678  0.58805249  1
  N  N56  1  0.89891752  0.51844741  0.33339963  1
  N  N57  1  0.76767862  0.41228366  0.07134805  1
  N  N58  1  0.56661189  0.51331644  0.82350991  1
  N  N59  1  0.46859740  0.41290538  0.57102791  1
  N  N60  1  0.22409092  0.87376029  0.33537022  1
  N  N61  1  0.11147232  0.76298677  0.08264497  1
  N  N62  1  0.89949416  0.88500808  0.82536618  1
  N  N63  1  0.77934785  0.76163218  0.59512167  1
  N  N64  1  0.53413454  0.88404271  0.32844215  1
  N  N65  1  0.44330014  0.76159435  0.08460681  1
  N  N66  1  0.20308266  0.88575528  0.83002236  1
  N  N67  1  0.08739889  0.77628654  0.56341517  1
  N  N68  1  0.89540777  0.88820220  0.31999053  1
  N  N69  1  0.76728456  0.77994845  0.09469619  1
  N  N70  1  0.54334619  0.89299014  0.81748168  1
  N  N71  1  0.46533105  0.74678285  0.58119783  1
