# generated using pymatgen
data_Sc2Al7N9
_symmetry_space_group_name_H-M   'P 1'
_cell_length_a   10.23306082
_cell_length_b   10.27956745
_cell_length_c   8.60494482
_cell_angle_alpha   90.04465652
_cell_angle_beta   90.04382181
_cell_angle_gamma   60.14295526
_symmetry_Int_Tables_number   1
_chemical_formula_structural   Sc2Al7N9
_chemical_formula_sum   'Sc8 Al28 N36'
_cell_volume   785.02366757
_cell_formula_units_Z   4
loop_
 _symmetry_equiv_pos_site_id
 _symmetry_equiv_pos_as_xyz
  1  'x, y, z'
loop_
 _atom_site_type_symbol
 _atom_site_label
 _atom_site_symmetry_multiplicity
 _atom_site_fract_x
 _atom_site_fract_y
 _atom_site_fract_z
 _atom_site_occupancy
  Al  Al0  1  0.10639794  0.09995091  0.34679468  1
  Al  Al1  1  0.22769041  0.19952442  0.10520044  1
  Al  Al2  1  0.77811455  0.09875740  0.84996647  1
  Al  Al3  1  0.88650420  0.20623084  0.59714544  1
  Al  Al4  1  0.44214039  0.09446740  0.35025513  1
  Al  Al5  1  0.55685277  0.19994759  0.09513934  1
  Al  Al6  1  0.10622922  0.09757261  0.85764718  1
  Al  Al7  1  0.22087481  0.20390353  0.59299230  1
  Al  Al8  1  0.77889985  0.09581853  0.34583563  1
  Al  Al9  1  0.88643976  0.20231747  0.10092260  1
  Al  Al10  1  0.44144709  0.09723402  0.84723104  1
  Al  Al11  1  0.56007703  0.19955120  0.60216227  1
  Al  Al12  1  0.11310797  0.42294667  0.35111947  1
  Al  Al13  1  0.22395178  0.54204397  0.10160729  1
  Al  Al14  1  0.77876726  0.41545086  0.84735563  1
  Al  Al15  1  0.88810717  0.52944223  0.60004954  1
  Al  Al16  1  0.55922038  0.53181143  0.10179186  1
  Al  Al17  1  0.78004333  0.42018039  0.35284050  1
  Al  Al18  1  0.45213006  0.42162248  0.85400953  1
  Al  Al19  1  0.56504344  0.53265356  0.59954341  1
  Al  Al20  1  0.10702824  0.76822978  0.34192991  1
  Al  Al21  1  0.21908804  0.87692006  0.10543301  1
  Al  Al22  1  0.88457759  0.88378804  0.59943249  1
  Al  Al23  1  0.44666263  0.76023817  0.34809515  1
  Al  Al24  1  0.54911713  0.88121563  0.10382741  1
  Al  Al25  1  0.10780457  0.77101185  0.85952504  1
  Al  Al26  1  0.88741031  0.88203605  0.09980832  1
  Al  Al27  1  0.55130254  0.87687403  0.59903393  1
  Sc  Sc28  1  0.45022450  0.42154474  0.34945777  1
  Sc  Sc29  1  0.11787955  0.41917294  0.85349026  1
  Sc  Sc30  1  0.22006168  0.54536632  0.60256691  1
  Sc  Sc31  1  0.88636062  0.53258814  0.10497897  1
  Sc  Sc32  1  0.77780948  0.76714069  0.85032405  1
  Sc  Sc33  1  0.21877523  0.88041436  0.59843400  1
  Sc  Sc34  1  0.77645205  0.76636724  0.35454533  1
  Sc  Sc35  1  0.44692048  0.75562750  0.85623155  1
  N  N36  1  0.22357471  0.20408369  0.35231483  1
  N  N37  1  0.10723047  0.09854077  0.10879316  1
  N  N38  1  0.89035766  0.20314557  0.85616088  1
  N  N39  1  0.77618249  0.09781220  0.60924141  1
  N  N40  1  0.56590183  0.18487376  0.35627799  1
  N  N41  1  0.44373530  0.09577081  0.10724824  1
  N  N42  1  0.22957399  0.18666778  0.85835458  1
  N  N43  1  0.09950859  0.11370291  0.59862744  1
  N  N44  1  0.88667415  0.20384332  0.35480316  1
  N  N45  1  0.77489251  0.09771428  0.10324261  1
  N  N46  1  0.55482922  0.20262059  0.85517577  1
  N  N47  1  0.44090163  0.09719212  0.60393081  1
  N  N48  1  0.20688316  0.55027710  0.34441563  1
  N  N49  1  0.12818442  0.41739313  0.10985724  1
  N  N50  1  0.87994003  0.52788143  0.84630563  1
  N  N51  1  0.77863808  0.42129790  0.60183156  1
  N  N52  1  0.56513998  0.54434723  0.35165295  1
  N  N53  1  0.44701884  0.42270067  0.09635170  1
  N  N54  1  0.23038541  0.55127191  0.86160442  1
  N  N55  1  0.10774428  0.41875913  0.59645480  1
  N  N56  1  0.89515587  0.52217855  0.36081133  1
  N  N57  1  0.77154004  0.41314920  0.10852531  1
  N  N58  1  0.56776041  0.51834537  0.85684408  1
  N  N59  1  0.46254467  0.41684771  0.60850595  1
  N  N60  1  0.22192417  0.87458496  0.34249010  1
  N  N61  1  0.10889919  0.76473845  0.10412761  1
  N  N62  1  0.89493389  0.88630173  0.85898932  1
  N  N63  1  0.77680176  0.76578968  0.60177516  1
  N  N64  1  0.53670535  0.88321031  0.35503958  1
  N  N65  1  0.44702979  0.75824782  0.11103594  1
  N  N66  1  0.20768249  0.88456215  0.86294165  1
  N  N67  1  0.09255054  0.77535756  0.60533810  1
  N  N68  1  0.89554698  0.88600231  0.35209682  1
  N  N69  1  0.76988370  0.77741315  0.10421082  1
  N  N70  1  0.54519897  0.88992764  0.85346340  1
  N  N71  1  0.46120545  0.74943544  0.59739795  1
