# generated using pymatgen
data_Sc2Al7N9
_symmetry_space_group_name_H-M   'P 1'
_cell_length_a   9.73571275
_cell_length_b   9.76014428
_cell_length_c   10.09151498
_cell_angle_alpha   90.04607648
_cell_angle_beta   90.07812952
_cell_angle_gamma   60.03481471
_symmetry_Int_Tables_number   1
_chemical_formula_structural   Sc2Al7N9
_chemical_formula_sum   'Sc8 Al28 N36'
_cell_volume   830.73562079
_cell_formula_units_Z   4
loop_
 _symmetry_equiv_pos_site_id
 _symmetry_equiv_pos_as_xyz
  1  'x, y, z'
loop_
 _atom_site_type_symbol
 _atom_site_label
 _atom_site_symmetry_multiplicity
 _atom_site_fract_x
 _atom_site_fract_y
 _atom_site_fract_z
 _atom_site_occupancy
  Al  Al0  1  0.10607696  0.10195150  0.37956323  1
  Al  Al1  1  0.22685356  0.20260134  0.13742160  1
  Al  Al2  1  0.77909086  0.09835336  0.88299724  1
  Al  Al3  1  0.88638971  0.20830984  0.63396407  1
  Al  Al4  1  0.44142221  0.09467476  0.38490003  1
  Al  Al5  1  0.55982130  0.19569193  0.13106723  1
  Al  Al6  1  0.10701265  0.09483111  0.88835044  1
  Al  Al7  1  0.22153407  0.20139353  0.63206887  1
  Al  Al8  1  0.78045515  0.09475477  0.38536106  1
  Al  Al9  1  0.88472130  0.20278569  0.13491450  1
  Al  Al10  1  0.44140947  0.09615773  0.88398725  1
  Al  Al11  1  0.55854333  0.20291180  0.63640918  1
  Al  Al12  1  0.10998424  0.42197560  0.38933355  1
  Al  Al13  1  0.21978671  0.54119512  0.13644342  1
  Al  Al14  1  0.77621237  0.41453963  0.88247781  1
  Al  Al15  1  0.88328666  0.53454264  0.63572648  1
  Al  Al16  1  0.55765808  0.53895196  0.13535271  1
  Al  Al17  1  0.78170984  0.42290234  0.38843440  1
  Al  Al18  1  0.44976156  0.42376910  0.89090640  1
  Al  Al19  1  0.56638648  0.52780582  0.63375158  1
  Al  Al20  1  0.10480140  0.76970148  0.37842748  1
  Al  Al21  1  0.22181793  0.87420128  0.13994602  1
  Al  Al22  1  0.88573053  0.88059041  0.63654150  1
  Al  Al23  1  0.44781121  0.76093687  0.38387309  1
  Al  Al24  1  0.54662198  0.88002507  0.13983106  1
  Al  Al25  1  0.11081484  0.76922356  0.89108787  1
  Al  Al26  1  0.88790591  0.88161961  0.13514808  1
  Al  Al27  1  0.55511536  0.87632118  0.63235023  1
  Sc  Sc28  1  0.45154693  0.42213583  0.36625517  1
  Sc  Sc29  1  0.11900987  0.42147451  0.87341048  1
  Sc  Sc30  1  0.22565351  0.54232535  0.62460912  1
  Sc  Sc31  1  0.88910301  0.53184266  0.13011958  1
  Sc  Sc32  1  0.77567796  0.76919497  0.87641648  1
  Sc  Sc33  1  0.21712415  0.88117444  0.62336485  1
  Sc  Sc34  1  0.77865625  0.76463305  0.38014819  1
  Sc  Sc35  1  0.44363747  0.75700803  0.87871336  1
  N  N36  1  0.22337958  0.20631699  0.32796036  1
  N  N37  1  0.10915692  0.09665500  0.08246753  1
  N  N38  1  0.89114898  0.20206776  0.82487241  1
  N  N39  1  0.77591633  0.09649262  0.57755219  1
  N  N40  1  0.56843269  0.17910777  0.31974571  1
  N  N41  1  0.44215468  0.09395056  0.07483057  1
  N  N42  1  0.22971044  0.18337523  0.82106766  1
  N  N43  1  0.09682255  0.11730447  0.56683125  1
  N  N44  1  0.88480200  0.20738972  0.32545354  1
  N  N45  1  0.77762119  0.09508635  0.07250327  1
  N  N46  1  0.55326295  0.20545444  0.83053376  1
  N  N47  1  0.44312525  0.09706628  0.57519189  1
  N  N48  1  0.20146992  0.54913563  0.33094102  1
  N  N49  1  0.13111282  0.41653732  0.08167418  1
  N  N50  1  0.87691193  0.52788333  0.82821819  1
  N  N51  1  0.77916622  0.42385571  0.57743398  1
  N  N52  1  0.57023330  0.54811744  0.32291142  1
  N  N53  1  0.44536816  0.42621634  0.09038207  1
  N  N54  1  0.23418934  0.55345590  0.83580051  1
  N  N55  1  0.10370638  0.41970781  0.58486520  1
  N  N56  1  0.89779078  0.52003384  0.33828890  1
  N  N57  1  0.76759735  0.41379865  0.07059970  1
  N  N58  1  0.56578580  0.51497732  0.82314783  1
  N  N59  1  0.46700719  0.41406073  0.57461806  1
  N  N60  1  0.22322068  0.87420309  0.33422640  1
  N  N61  1  0.11056527  0.76329837  0.08279600  1
  N  N62  1  0.89941787  0.88489414  0.82490767  1
  N  N63  1  0.77929780  0.76210845  0.59681078  1
  N  N64  1  0.53518028  0.88409104  0.32801589  1
  N  N65  1  0.44337722  0.76141732  0.08924116  1
  N  N66  1  0.20436828  0.88428573  0.83328893  1
  N  N67  1  0.08878103  0.77522370  0.56415635  1
  N  N68  1  0.89591268  0.88756134  0.32099309  1
  N  N69  1  0.76757321  0.77970127  0.09392931  1
  N  N70  1  0.54316433  0.89169173  0.81811949  1
  N  N71  1  0.46539066  0.74761584  0.57765529  1
