# generated using pymatgen
data_Sc2Al7N9
_symmetry_space_group_name_H-M   'P 1'
_cell_length_a   9.75262407
_cell_length_b   9.77682303
_cell_length_c   10.04373977
_cell_angle_alpha   90.04601451
_cell_angle_beta   90.07743764
_cell_angle_gamma   60.04480313
_symmetry_Int_Tables_number   1
_chemical_formula_structural   Sc2Al7N9
_chemical_formula_sum   'Sc8 Al28 N36'
_cell_volume   829.73767896
_cell_formula_units_Z   4
loop_
 _symmetry_equiv_pos_site_id
 _symmetry_equiv_pos_as_xyz
  1  'x, y, z'
loop_
 _atom_site_type_symbol
 _atom_site_label
 _atom_site_symmetry_multiplicity
 _atom_site_fract_x
 _atom_site_fract_y
 _atom_site_fract_z
 _atom_site_occupancy
  Al  Al0  1  0.10586268  0.10231570  0.37635745  1
  Al  Al1  1  0.22691316  0.20283128  0.13429044  1
  Al  Al2  1  0.77906646  0.09842430  0.87999411  1
  Al  Al3  1  0.88636206  0.20842113  0.63111543  1
  Al  Al4  1  0.44138093  0.09467218  0.38206902  1
  Al  Al5  1  0.56009768  0.19518995  0.12815022  1
  Al  Al6  1  0.10696578  0.09482986  0.88567001  1
  Al  Al7  1  0.22152743  0.20117782  0.62936594  1
  Al  Al8  1  0.78035768  0.09460307  0.38285611  1
  Al  Al9  1  0.88462639  0.20261779  0.13230996  1
  Al  Al10  1  0.44126707  0.09630695  0.88126378  1
  Al  Al11  1  0.55840628  0.20308869  0.63356694  1
  Al  Al12  1  0.10972777  0.42186468  0.38673756  1
  Al  Al13  1  0.21968384  0.54117141  0.13364906  1
  Al  Al14  1  0.77615298  0.41420514  0.87993474  1
  Al  Al15  1  0.88286913  0.53479156  0.63333462  1
  Al  Al16  1  0.55773515  0.53937714  0.13228414  1
  Al  Al17  1  0.78184496  0.42295002  0.38525403  1
  Al  Al18  1  0.44963805  0.42390455  0.88831789  1
  Al  Al19  1  0.56660865  0.52724888  0.63086522  1
  Al  Al20  1  0.10453376  0.76980299  0.37547282  1
  Al  Al21  1  0.22215602  0.87403988  0.13708429  1
  Al  Al22  1  0.88552349  0.88057679  0.63369702  1
  Al  Al23  1  0.44799573  0.76071154  0.38166188  1
  Al  Al24  1  0.54629480  0.87994697  0.13682066  1
  Al  Al25  1  0.11103650  0.76924881  0.88783779  1
  Al  Al26  1  0.88801853  0.88170520  0.13209667  1
  Al  Al27  1  0.55516947  0.87651282  0.62931050  1
  Sc  Sc28  1  0.45203066  0.42178361  0.36200993  1
  Sc  Sc29  1  0.11946031  0.42172579  0.86876533  1
  Sc  Sc30  1  0.22614135  0.54241131  0.62013132  1
  Sc  Sc31  1  0.88974360  0.53131520  0.12543900  1
  Sc  Sc32  1  0.77543034  0.76955145  0.87347682  1
  Sc  Sc33  1  0.21658376  0.88160762  0.61939184  1
  Sc  Sc34  1  0.77872556  0.76418752  0.37576498  1
  Sc  Sc35  1  0.44342471  0.75706872  0.87413802  1
  N  N36  1  0.22337513  0.20651851  0.32561555  1
  N  N37  1  0.10916133  0.09658902  0.08054048  1
  N  N38  1  0.89121453  0.20204635  0.82263519  1
  N  N39  1  0.77581351  0.09651661  0.57561036  1
  N  N40  1  0.56869827  0.17857909  0.31748117  1
  N  N41  1  0.44220904  0.09382787  0.07266496  1
  N  N42  1  0.22971601  0.18321193  0.81904973  1
  N  N43  1  0.09649856  0.11783870  0.56432703  1
  N  N44  1  0.88455386  0.20727865  0.32336427  1
  N  N45  1  0.77765575  0.09503082  0.07010938  1
  N  N46  1  0.55301734  0.20570601  0.82842413  1
  N  N47  1  0.44293352  0.09725163  0.57297025  1
  N  N48  1  0.20147577  0.54897885  0.32941071  1
  N  N49  1  0.13186513  0.41635914  0.07825979  1
  N  N50  1  0.87665344  0.52804797  0.82716196  1
  N  N51  1  0.77927417  0.42395398  0.57512459  1
  N  N52  1  0.57029840  0.54847754  0.32067565  1
  N  N53  1  0.44541376  0.42623072  0.08884523  1
  N  N54  1  0.23474477  0.55379697  0.83254392  1
  N  N55  1  0.10347641  0.41985738  0.58367401  1
  N  N56  1  0.89821986  0.51945333  0.33488517  1
  N  N57  1  0.76758966  0.41340584  0.06868338  1
  N  N58  1  0.56605448  0.51447742  0.82105953  1
  N  N59  1  0.46759328  0.41367665  0.57142063  1
  N  N60  1  0.22339616  0.87408934  0.33244117  1
  N  N61  1  0.11079989  0.76317942  0.08054920  1
  N  N62  1  0.89936278  0.88490896  0.82287206  1
  N  N63  1  0.77921148  0.76200696  0.59410806  1
  N  N64  1  0.53480873  0.88407204  0.32597229  1
  N  N65  1  0.44330376  0.76146024  0.08595118  1
  N  N66  1  0.20396264  0.88474190  0.83033550  1
  N  N67  1  0.08834228  0.77549655  0.56193338  1
  N  N68  1  0.89587421  0.88763955  0.31870614  1
  N  N69  1  0.76751670  0.77970973  0.09226283  1
  N  N70  1  0.54323647  0.89203280  0.81591321  1
  N  N71  1  0.46533715  0.74743270  0.57644857  1
