# generated using pymatgen
data_Sc2Al7N9
_symmetry_space_group_name_H-M   'P 1'
_cell_length_a   10.19877774
_cell_length_b   10.24288447
_cell_length_c   8.70570395
_cell_angle_alpha   90.05987595
_cell_angle_beta   90.06219362
_cell_angle_gamma   60.13867756
_symmetry_Int_Tables_number   1
_chemical_formula_structural   Sc2Al7N9
_chemical_formula_sum   'Sc8 Al28 N36'
_cell_volume   788.69627547
_cell_formula_units_Z   4
loop_
 _symmetry_equiv_pos_site_id
 _symmetry_equiv_pos_as_xyz
  1  'x, y, z'
loop_
 _atom_site_type_symbol
 _atom_site_label
 _atom_site_symmetry_multiplicity
 _atom_site_fract_x
 _atom_site_fract_y
 _atom_site_fract_z
 _atom_site_occupancy
  Al  Al0  1  0.10612905  0.10098671  0.35288068  1
  Al  Al1  1  0.22804084  0.20099035  0.11629616  1
  Al  Al2  1  0.77918369  0.09866327  0.86060760  1
  Al  Al3  1  0.88787033  0.20691439  0.61070237  1
  Al  Al4  1  0.44230997  0.09531981  0.36355144  1
  Al  Al5  1  0.55874613  0.19806597  0.10488886  1
  Al  Al6  1  0.10588457  0.09714684  0.87229330  1
  Al  Al7  1  0.22067288  0.20267243  0.60428455  1
  Al  Al8  1  0.77820266  0.09559164  0.36599311  1
  Al  Al9  1  0.88422926  0.20209507  0.11672038  1
  Al  Al10  1  0.44090208  0.09655400  0.86072458  1
  Al  Al11  1  0.55826887  0.20105802  0.61703137  1
  Al  Al12  1  0.11340170  0.42271645  0.35443136  1
  Al  Al13  1  0.22390893  0.54155957  0.10413100  1
  Al  Al14  1  0.77912053  0.41433251  0.86031787  1
  Al  Al15  1  0.88765946  0.53011268  0.60217967  1
  Al  Al16  1  0.55889845  0.53322823  0.10725709  1
  Al  Al17  1  0.77986310  0.42095982  0.36296640  1
  Al  Al18  1  0.45101285  0.42242464  0.85928376  1
  Al  Al19  1  0.56566349  0.53119835  0.60965555  1
  Al  Al20  1  0.10604444  0.76890330  0.34908197  1
  Al  Al21  1  0.22042894  0.87569760  0.11023842  1
  Al  Al22  1  0.88539797  0.88225954  0.61336303  1
  Al  Al23  1  0.44694965  0.75966064  0.35134715  1
  Al  Al24  1  0.54837323  0.88098379  0.11405071  1
  Al  Al25  1  0.10881609  0.77037887  0.86959465  1
  Al  Al26  1  0.88633572  0.88340840  0.10965316  1
  Al  Al27  1  0.55209358  0.87683452  0.60560503  1
  Sc  Sc28  1  0.45139964  0.42092764  0.34976740  1
  Sc  Sc29  1  0.11775526  0.41928871  0.85322752  1
  Sc  Sc30  1  0.22048628  0.54554731  0.60213825  1
  Sc  Sc31  1  0.88691906  0.53238784  0.10604444  1
  Sc  Sc32  1  0.77708351  0.76667590  0.85214854  1
  Sc  Sc33  1  0.21784060  0.88164271  0.59881060  1
  Sc  Sc34  1  0.77736782  0.76650157  0.35629610  1
  Sc  Sc35  1  0.44612125  0.75674150  0.85634912  1
  N  N36  1  0.22493412  0.20474197  0.34569037  1
  N  N37  1  0.10709152  0.09934089  0.10443169  1
  N  N38  1  0.89219164  0.20201047  0.84178754  1
  N  N39  1  0.77484599  0.09785459  0.59816147  1
  N  N40  1  0.56648779  0.18373571  0.33938350  1
  N  N41  1  0.44255482  0.09487565  0.09335364  1
  N  N42  1  0.22831990  0.18555947  0.84318429  1
  N  N43  1  0.09866932  0.11420737  0.58213140  1
  N  N44  1  0.88414606  0.20509188  0.34440742  1
  N  N45  1  0.77621701  0.09716734  0.08805689  1
  N  N46  1  0.55423431  0.20327358  0.84876668  1
  N  N47  1  0.44210685  0.09801268  0.59411838  1
  N  N48  1  0.20722788  0.54920905  0.34240960  1
  N  N49  1  0.12865396  0.41714772  0.10577915  1
  N  N50  1  0.87972876  0.52746202  0.84528275  1
  N  N51  1  0.77864392  0.42189710  0.59431147  1
  N  N52  1  0.56640247  0.54433106  0.34255423  1
  N  N53  1  0.44695974  0.42344686  0.09424774  1
  N  N54  1  0.23006700  0.55242058  0.85865654  1
  N  N55  1  0.10739110  0.41899828  0.59529638  1
  N  N56  1  0.89579342  0.52179292  0.35777240  1
  N  N57  1  0.77170012  0.41232148  0.09527205  1
  N  N58  1  0.56717985  0.51849399  0.84901571  1
  N  N59  1  0.46284897  0.41621753  0.60347288  1
  N  N60  1  0.22292123  0.87434955  0.34035821  1
  N  N61  1  0.10886543  0.76467184  0.10117186  1
  N  N62  1  0.89668322  0.88485064  0.84724774  1
  N  N63  1  0.77830197  0.76419206  0.60136012  1
  N  N64  1  0.53658277  0.88376853  0.34930941  1
  N  N65  1  0.44668985  0.75921406  0.10770823  1
  N  N66  1  0.20648049  0.88504100  0.85943979  1
  N  N67  1  0.09218276  0.77578337  0.58911012  1
  N  N68  1  0.89415832  0.88746365  0.34046194  1
  N  N69  1  0.76868820  0.77823686  0.10306941  1
  N  N70  1  0.54511228  0.88991052  0.84089622  1
  N  N71  1  0.46171773  0.74843702  0.59425442  1
