# generated using pymatgen
data_Sc2Al7N9
_symmetry_space_group_name_H-M   'P 1'
_cell_length_a   9.73036239
_cell_length_b   9.75320163
_cell_length_c   10.09914659
_cell_angle_alpha   90.00171438
_cell_angle_beta   89.95489575
_cell_angle_gamma   60.00701944
_symmetry_Int_Tables_number   1
_chemical_formula_structural   Sc2Al7N9
_chemical_formula_sum   'Sc8 Al28 N36'
_cell_volume   830.08401974
_cell_formula_units_Z   4
loop_
 _symmetry_equiv_pos_site_id
 _symmetry_equiv_pos_as_xyz
  1  'x, y, z'
loop_
 _atom_site_type_symbol
 _atom_site_label
 _atom_site_symmetry_multiplicity
 _atom_site_fract_x
 _atom_site_fract_y
 _atom_site_fract_z
 _atom_site_occupancy
  Al  Al0  1  0.10879211  0.09661391  0.31400488  1
  Al  Al1  1  0.22902766  0.19672899  0.06886427  1
  Al  Al2  1  0.77813213  0.09778889  0.81922904  1
  Al  Al3  1  0.88661321  0.20721031  0.56819542  1
  Al  Al4  1  0.44058626  0.09456481  0.31728245  1
  Al  Al5  1  0.55514589  0.20403433  0.06473760  1
  Al  Al6  1  0.10597860  0.09716842  0.81995014  1
  Al  Al7  1  0.21894709  0.20600627  0.56456899  1
  Al  Al8  1  0.78224227  0.09488675  0.31563352  1
  Al  Al9  1  0.88588353  0.20312141  0.06599162  1
  Al  Al10  1  0.44369009  0.09612409  0.81716268  1
  Al  Al11  1  0.56234529  0.19677736  0.56956328  1
  Al  Al12  1  0.11693927  0.42094713  0.31133513  1
  Al  Al13  1  0.22835253  0.54047563  0.06334181  1
  Al  Al14  1  0.77848063  0.41870013  0.81426945  1
  Al  Al15  1  0.89023768  0.52756733  0.55620414  1
  Al  Al16  1  0.55845374  0.52672737  0.06548841  1
  Al  Al17  1  0.77886287  0.41889020  0.31897847  1
  Al  Al18  1  0.45446637  0.42059585  0.81569738  1
  Al  Al19  1  0.56576539  0.53810321  0.56762664  1
  Al  Al20  1  0.11035359  0.76512922  0.30837534  1
  Al  Al21  1  0.21544779  0.87768673  0.06969059  1
  Al  Al22  1  0.88813063  0.88343750  0.56268712  1
  Al  Al23  1  0.44320107  0.76288900  0.30783035  1
  Al  Al24  1  0.55454285  0.88255491  0.07014328  1
  Al  Al25  1  0.10502676  0.77280433  0.82508842  1
  Al  Al26  1  0.88579809  0.88039255  0.06861424  1
  Al  Al27  1  0.54784915  0.87616926  0.56147936  1
  Sc  Sc28  1  0.44798947  0.42421688  0.32452395  1
  Sc  Sc29  1  0.11188828  0.42129589  0.83016766  1
  Sc  Sc30  1  0.21673796  0.54190353  0.57735933  1
  Sc  Sc31  1  0.88144405  0.53975246  0.08455432  1
  Sc  Sc32  1  0.77873595  0.76581012  0.80845039  1
  Sc  Sc33  1  0.22268380  0.87564509  0.56769720  1
  Sc  Sc34  1  0.77543724  0.76885862  0.33864837  1
  Sc  Sc35  1  0.44679496  0.75766977  0.83732018  1
  N  N36  1  0.22187273  0.20515249  0.37261876  1
  N  N37  1  0.10699412  0.09842613  0.12483458  1
  N  N38  1  0.88827286  0.20536118  0.87526590  1
  N  N39  1  0.77775939  0.09557674  0.62849716  1
  N  N40  1  0.56829753  0.18086159  0.38017961  1
  N  N41  1  0.44381686  0.09748728  0.12812164  1
  N  N42  1  0.23280421  0.18276604  0.88118263  1
  N  N43  1  0.10113692  0.11201093  0.62923434  1
  N  N44  1  0.88949995  0.20353622  0.37752977  1
  N  N45  1  0.77541418  0.09734158  0.12492624  1
  N  N46  1  0.55467446  0.20403462  0.87281230  1
  N  N47  1  0.44159052  0.09535713  0.62535661  1
  N  N48  1  0.20231858  0.55026553  0.36678657  1
  N  N49  1  0.13196428  0.41705083  0.11650663  1
  N  N50  1  0.87211452  0.53440314  0.87607907  1
  N  N51  1  0.78028361  0.42475458  0.62237567  1
  N  N52  1  0.56466478  0.55081815  0.37753143  1
  N  N53  1  0.44430244  0.42475816  0.11530713  1
  N  N54  1  0.23348243  0.55010671  0.86909208  1
  N  N55  1  0.10012169  0.41873450  0.62007579  1
  N  N56  1  0.90008501  0.51568779  0.36188680  1
  N  N57  1  0.76634831  0.41213286  0.13285818  1
  N  N58  1  0.56991183  0.51266130  0.87824672  1
  N  N59  1  0.46570591  0.41690936  0.62039226  1
  N  N60  1  0.22355610  0.87139610  0.35519871  1
  N  N61  1  0.10965070  0.76124456  0.11917090  1
  N  N62  1  0.89186275  0.88544551  0.88154743  1
  N  N63  1  0.77799863  0.76174036  0.58761005  1
  N  N64  1  0.52738323  0.88510391  0.37451788  1
  N  N65  1  0.44725815  0.75790870  0.11163259  1
  N  N66  1  0.20290574  0.88622104  0.87952770  1
  N  N67  1  0.08974129  0.77665583  0.63818334  1
  N  N68  1  0.90447441  0.88669543  0.37651633  1
  N  N69  1  0.76843411  0.78369073  0.12572226  1
  N  N70  1  0.55272466  0.89153567  0.88346519  1
  N  N71  1  0.46362963  0.75142861  0.62720464  1
