# generated using pymatgen
data_Sc2Al7N9
_symmetry_space_group_name_H-M   'P 1'
_cell_length_a   9.73326582
_cell_length_b   9.75790799
_cell_length_c   10.09832441
_cell_angle_alpha   90.04619204
_cell_angle_beta   90.07840583
_cell_angle_gamma   60.03196254
_symmetry_Int_Tables_number   1
_chemical_formula_structural   Sc2Al7N9
_chemical_formula_sum   'Sc8 Al28 N36'
_cell_volume   830.87296440
_cell_formula_units_Z   4
loop_
 _symmetry_equiv_pos_site_id
 _symmetry_equiv_pos_as_xyz
  1  'x, y, z'
loop_
 _atom_site_type_symbol
 _atom_site_label
 _atom_site_symmetry_multiplicity
 _atom_site_fract_x
 _atom_site_fract_y
 _atom_site_fract_z
 _atom_site_occupancy
  Al  Al0  1  0.10607038  0.10192458  0.39085957  1
  Al  Al1  1  0.22679429  0.20259881  0.14871650  1
  Al  Al2  1  0.77905121  0.09837817  0.89426342  1
  Al  Al3  1  0.88635773  0.20831475  0.64520130  1
  Al  Al4  1  0.44139178  0.09471162  0.39613396  1
  Al  Al5  1  0.55972449  0.19581856  0.14231543  1
  Al  Al6  1  0.10698488  0.09484911  0.89956620  1
  Al  Al7  1  0.22149699  0.20144967  0.64328459  1
  Al  Al8  1  0.78042343  0.09482088  0.39653861  1
  Al  Al9  1  0.88469183  0.20284996  0.14611393  1
  Al  Al10  1  0.44139277  0.09616160  0.89520822  1
  Al  Al11  1  0.55851798  0.20291915  0.64765507  1
  Al  Al12  1  0.10997531  0.42202748  0.40052334  1
  Al  Al13  1  0.21975056  0.54123490  0.14767994  1
  Al  Al14  1  0.77617774  0.41461545  0.89367033  1
  Al  Al15  1  0.88332151  0.53451000  0.64689431  1
  Al  Al16  1  0.55759494  0.53891342  0.14662421  1
  Al  Al17  1  0.78164102  0.42293025  0.39972837  1
  Al  Al18  1  0.44972477  0.42378324  0.90209884  1
  Al  Al19  1  0.56630417  0.52792717  0.64500068  1
  Al  Al20  1  0.10479979  0.76972439  0.38967393  1
  Al  Al21  1  0.22172579  0.87426035  0.15119094  1
  Al  Al22  1  0.88573338  0.88063831  0.64778810  1
  Al  Al23  1  0.44775553  0.76100264  0.39499915  1
  Al  Al24  1  0.54664391  0.88007652  0.15108945  1
  Al  Al25  1  0.11074595  0.76924596  0.90239852  1
  Al  Al26  1  0.88783590  0.88164666  0.14640248  1
  Al  Al27  1  0.55506485  0.87632469  0.64362225  1
  Sc  Sc28  1  0.45141869  0.42223314  0.37773195  1
  Sc  Sc29  1  0.11889607  0.42144395  0.88495525  1
  Sc  Sc30  1  0.22550536  0.54234644  0.63610733  1
  Sc  Sc31  1  0.88892404  0.53198789  0.14164263  1
  Sc  Sc32  1  0.77569499  0.76915614  0.88761494  1
  Sc  Sc33  1  0.21718699  0.88112198  0.63477169  1
  Sc  Sc34  1  0.77861526  0.76474569  0.39165681  1
  Sc  Sc35  1  0.44364341  0.75702719  0.89023284  1
  N  N36  1  0.22333767  0.20631421  0.33913917  1
  N  N37  1  0.10911539  0.09669507  0.09357826  1
  N  N38  1  0.89109989  0.20209580  0.83602676  1
  N  N39  1  0.77588578  0.09652636  0.58865754  1
  N  N40  1  0.56833702  0.17924437  0.33090583  1
  N  N41  1  0.44209566  0.09401339  0.08597781  1
  N  N42  1  0.22966895  0.18342315  0.83219049  1
  N  N43  1  0.09684014  0.11723740  0.57803149  1
  N  N44  1  0.88479959  0.20744437  0.33658573  1
  N  N45  1  0.77756586  0.09514210  0.08368361  1
  N  N46  1  0.55325647  0.20544569  0.84167253  1
  N  N47  1  0.44312096  0.09706665  0.58634366  1
  N  N48  1  0.20142281  0.54919586  0.34199374  1
  N  N49  1  0.13092730  0.41660641  0.09304583  1
  N  N50  1  0.87692350  0.52786099  0.83919423  1
  N  N51  1  0.77910495  0.42386287  0.58860343  1
  N  N52  1  0.57017380  0.54808555  0.33406680  1
  N  N53  1  0.44530481  0.42625482  0.10141733  1
  N  N54  1  0.23403363  0.55342481  0.84712820  1
  N  N55  1  0.10370405  0.41970059  0.59584786  1
  N  N56  1  0.89765991  0.52018031  0.34963833  1
  N  N57  1  0.76755207  0.41389593  0.08170713  1
  N  N58  1  0.56569137  0.51509167  0.83428571  1
  N  N59  1  0.46685123  0.41416487  0.58594748  1
  N  N60  1  0.22315715  0.87425389  0.34531465  1
  N  N61  1  0.11048917  0.76335310  0.09396161  1
  N  N62  1  0.89939505  0.88493369  0.83603809  1
  N  N63  1  0.77928734  0.76215074  0.60807972  1
  N  N64  1  0.53521957  0.88412441  0.33914223  1
  N  N65  1  0.44335406  0.76144546  0.10057565  1
  N  N66  1  0.20440694  0.88422851  0.84455977  1
  N  N67  1  0.08881445  0.77521449  0.57530607  1
  N  N68  1  0.89586842  0.88758985  0.33214719  1
  N  N69  1  0.76753983  0.77974520  0.10495287  1
  N  N70  1  0.54310892  0.89166864  0.82927354  1
  N  N71  1  0.46537579  0.74767227  0.58864325  1
