# generated using pymatgen
data_Sc2Al7N9
_symmetry_space_group_name_H-M   'P 1'
_cell_length_a   9.98420130
_cell_length_b   10.02064024
_cell_length_c   9.36020513
_cell_angle_alpha   90.01475881
_cell_angle_beta   90.01927674
_cell_angle_gamma   60.08214460
_symmetry_Int_Tables_number   1
_chemical_formula_structural   Sc2Al7N9
_chemical_formula_sum   'Sc8 Al28 N36'
_cell_volume   811.67778525
_cell_formula_units_Z   4
loop_
 _symmetry_equiv_pos_site_id
 _symmetry_equiv_pos_as_xyz
  1  'x, y, z'
loop_
 _atom_site_type_symbol
 _atom_site_label
 _atom_site_symmetry_multiplicity
 _atom_site_fract_x
 _atom_site_fract_y
 _atom_site_fract_z
 _atom_site_occupancy
  Al  Al0  1  0.10740873  0.09690332  0.32841416  1
  Al  Al1  1  0.22961549  0.19610682  0.08497407  1
  Al  Al2  1  0.77817538  0.09845113  0.83165761  1
  Al  Al3  1  0.88655968  0.20626361  0.57957537  1
  Al  Al4  1  0.44194854  0.09426399  0.33172982  1
  Al  Al5  1  0.55451786  0.20376520  0.07703667  1
  Al  Al6  1  0.10549412  0.09971190  0.83174942  1
  Al  Al7  1  0.21805023  0.20737018  0.57469930  1
  Al  Al8  1  0.78028657  0.09573965  0.32656573  1
  Al  Al9  1  0.88602667  0.20279687  0.07803812  1
  Al  Al10  1  0.44086587  0.09755563  0.82661619  1
  Al  Al11  1  0.56292699  0.19581893  0.58309058  1
  Al  Al12  1  0.11594502  0.42310863  0.32860283  1
  Al  Al13  1  0.22941586  0.54035376  0.08077575  1
  Al  Al14  1  0.77857260  0.41681617  0.82492008  1
  Al  Al15  1  0.88956620  0.53004990  0.57752713  1
  Al  Al16  1  0.56003280  0.52420524  0.08201654  1
  Al  Al17  1  0.77940081  0.41810324  0.33482005  1
  Al  Al18  1  0.45527972  0.41999530  0.82902511  1
  Al  Al19  1  0.56547505  0.53835806  0.57843603  1
  Al  Al20  1  0.10993992  0.76591470  0.32254312  1
  Al  Al21  1  0.21597164  0.87877887  0.08439939  1
  Al  Al22  1  0.88584404  0.88412044  0.57681128  1
  Al  Al23  1  0.44312857  0.76268011  0.32264108  1
  Al  Al24  1  0.55140286  0.88445739  0.08271158  1
  Al  Al25  1  0.10511439  0.77372100  0.83910745  1
  Al  Al26  1  0.88702826  0.88224876  0.08232496  1
  Al  Al27  1  0.54932112  0.87498186  0.57822675  1
  Sc  Sc28  1  0.44775266  0.42318028  0.34677588  1
  Sc  Sc29  1  0.11387515  0.41989687  0.85059156  1
  Sc  Sc30  1  0.21633196  0.54430967  0.59869815  1
  Sc  Sc31  1  0.88286795  0.53458628  0.10114995  1
  Sc  Sc32  1  0.77876640  0.76622461  0.83988869  1
  Sc  Sc33  1  0.22228648  0.87750844  0.59054982  1
  Sc  Sc34  1  0.77513895  0.76839414  0.34855494  1
  Sc  Sc35  1  0.44883495  0.75453344  0.85389850  1
  N  N36  1  0.22171842  0.20554991  0.36884417  1
  N  N37  1  0.10641783  0.09804869  0.12492474  1
  N  N38  1  0.88863768  0.20494988  0.87397811  1
  N  N39  1  0.77759106  0.09652551  0.62803325  1
  N  N40  1  0.56876356  0.18038855  0.37917658  1
  N  N41  1  0.44457662  0.09742198  0.12862591  1
  N  N42  1  0.23212444  0.18344634  0.88140357  1
  N  N43  1  0.09961126  0.11526256  0.62538257  1
  N  N44  1  0.88886276  0.20220761  0.37640246  1
  N  N45  1  0.77418721  0.09840797  0.12266558  1
  N  N46  1  0.55380216  0.20373677  0.87047078  1
  N  N47  1  0.43961886  0.09632162  0.62194784  1
  N  N48  1  0.20254220  0.55152471  0.36568789  1
  N  N49  1  0.13137553  0.41752379  0.11353868  1
  N  N50  1  0.87500775  0.52931675  0.87209884  1
  N  N51  1  0.77959342  0.42352858  0.61853562  1
  N  N52  1  0.56422609  0.55019987  0.37297410  1
  N  N53  1  0.44528349  0.42275668  0.11779360  1
  N  N54  1  0.23441376  0.55025032  0.86558238  1
  N  N55  1  0.10263494  0.41877296  0.61854450  1
  N  N56  1  0.89806830  0.51896262  0.36198117  1
  N  N57  1  0.76867965  0.41004778  0.13319671  1
  N  N58  1  0.57085222  0.51153170  0.87799325  1
  N  N59  1  0.46589031  0.41650622  0.61446651  1
  N  N60  1  0.22308780  0.87246808  0.35741386  1
  N  N61  1  0.11079805  0.76210595  0.11702521  1
  N  N62  1  0.89361678  0.88846985  0.88063422  1
  N  N63  1  0.77722172  0.76344067  0.60018237  1
  N  N64  1  0.53150747  0.88346997  0.37268552  1
  N  N65  1  0.44681334  0.75777977  0.11199638  1
  N  N66  1  0.20551768  0.88664475  0.87296269  1
  N  N67  1  0.08901583  0.77775002  0.63460027  1
  N  N68  1  0.90038837  0.88619558  0.37219880  1
  N  N69  1  0.76997780  0.78014716  0.11399836  1
  N  N70  1  0.54660259  0.89357249  0.87908979  1
  N  N71  1  0.46398374  0.74943859  0.62521741  1
