# generated using pymatgen
data_Sc2Al7N9
_symmetry_space_group_name_H-M   'P 1'
_cell_length_a   10.23661251
_cell_length_b   10.28282284
_cell_length_c   8.59663944
_cell_angle_alpha   90.05087783
_cell_angle_beta   90.05162461
_cell_angle_gamma   60.14230998
_symmetry_Int_Tables_number   1
_chemical_formula_structural   Sc2Al7N9
_chemical_formula_sum   'Sc8 Al28 N36'
_cell_volume   784.78144668
_cell_formula_units_Z   4
loop_
 _symmetry_equiv_pos_site_id
 _symmetry_equiv_pos_as_xyz
  1  'x, y, z'
loop_
 _atom_site_type_symbol
 _atom_site_label
 _atom_site_symmetry_multiplicity
 _atom_site_fract_x
 _atom_site_fract_y
 _atom_site_fract_z
 _atom_site_occupancy
  Al  Al0  1  0.10633168  0.10043050  0.34975425  1
  Al  Al1  1  0.22765653  0.20010187  0.10889459  1
  Al  Al2  1  0.77822562  0.09882618  0.85473826  1
  Al  Al3  1  0.88698962  0.20651342  0.60324948  1
  Al  Al4  1  0.44203634  0.09466070  0.35461239  1
  Al  Al5  1  0.55749467  0.19940117  0.09937024  1
  Al  Al6  1  0.10612963  0.09728355  0.86382578  1
  Al  Al7  1  0.22094424  0.20340855  0.59730048  1
  Al  Al8  1  0.77878702  0.09570915  0.35393409  1
  Al  Al9  1  0.88577034  0.20220435  0.10772063  1
  Al  Al10  1  0.44146036  0.09700412  0.85237050  1
  Al  Al11  1  0.55937174  0.20003433  0.60694669  1
  Al  Al12  1  0.11333584  0.42275817  0.35207628  1
  Al  Al13  1  0.22386636  0.54209343  0.10219232  1
  Al  Al14  1  0.77883512  0.41523290  0.85259161  1
  Al  Al15  1  0.88803453  0.52938200  0.60077082  1
  Al  Al16  1  0.55903483  0.53229673  0.10334528  1
  Al  Al17  1  0.78000787  0.42044561  0.35635411  1
  Al  Al18  1  0.45190285  0.42174755  0.85522707  1
  Al  Al19  1  0.56531114  0.53220156  0.60268564  1
  Al  Al20  1  0.10669791  0.76845943  0.34467539  1
  Al  Al21  1  0.21942099  0.87641784  0.10688500  1
  Al  Al22  1  0.88479193  0.88328477  0.60467636  1
  Al  Al23  1  0.44687882  0.76001174  0.34908940  1
  Al  Al24  1  0.54892015  0.88098982  0.10673057  1
  Al  Al25  1  0.10809795  0.77077662  0.86225626  1
  Al  Al26  1  0.88719338  0.88238663  0.10337513  1
  Al  Al27  1  0.55148887  0.87694980  0.60132283  1
  Sc  Sc28  1  0.45049349  0.42155635  0.34954628  1
  Sc  Sc29  1  0.11780781  0.41924600  0.85336202  1
  Sc  Sc30  1  0.22015196  0.54540412  0.60234624  1
  Sc  Sc31  1  0.88659618  0.53259243  0.10536042  1
  Sc  Sc32  1  0.77760174  0.76688908  0.85091529  1
  Sc  Sc33  1  0.21851506  0.88091330  0.59850439  1
  Sc  Sc34  1  0.77670731  0.76646651  0.35512624  1
  Sc  Sc35  1  0.44665934  0.75591657  0.85614314  1
  N  N36  1  0.22407078  0.20426969  0.34996057  1
  N  N37  1  0.10721281  0.09884939  0.10673269  1
  N  N38  1  0.89096770  0.20266555  0.85035102  1
  N  N39  1  0.77572623  0.09790807  0.60399261  1
  N  N40  1  0.56567199  0.18496377  0.35027073  1
  N  N41  1  0.44328669  0.09550409  0.10217874  1
  N  N42  1  0.22900298  0.18649757  0.85281895  1
  N  N43  1  0.09935409  0.11364871  0.59201834  1
  N  N44  1  0.88591455  0.20442320  0.35018320  1
  N  N45  1  0.77534808  0.09746972  0.09790979  1
  N  N46  1  0.55484294  0.20271665  0.85265825  1
  N  N47  1  0.44140192  0.09731888  0.60055020  1
  N  N48  1  0.20712858  0.54997702  0.34350102  1
  N  N49  1  0.12823162  0.41735065  0.10890212  1
  N  N50  1  0.88003124  0.52773818  0.84560606  1
  N  N51  1  0.77864110  0.42143262  0.59925881  1
  N  N52  1  0.56560294  0.54414208  0.34888561  1
  N  N53  1  0.44707089  0.42292231  0.09527231  1
  N  N54  1  0.23011107  0.55162055  0.86091564  1
  N  N55  1  0.10781494  0.41877692  0.59572136  1
  N  N56  1  0.89529180  0.52214137  0.36012320  1
  N  N57  1  0.77162636  0.41311169  0.10331278  1
  N  N58  1  0.56740347  0.51867527  0.85409881  1
  N  N59  1  0.46244453  0.41674423  0.60741039  1
  N  N60  1  0.22219768  0.87453869  0.34152660  1
  N  N61  1  0.10872234  0.76482954  0.10300466  1
  N  N62  1  0.89533403  0.88587341  0.85439365  1
  N  N63  1  0.77714542  0.76539256  0.60174418  1
  N  N64  1  0.53680715  0.88335103  0.35293149  1
  N  N65  1  0.44696544  0.75841536  0.11026733  1
  N  N66  1  0.20737607  0.88461536  0.86206317  1
  N  N67  1  0.09274023  0.77537589  0.60001148  1
  N  N68  1  0.89508434  0.88621121  0.34810207  1
  N  N69  1  0.76959407  0.77757141  0.10374026  1
  N  N70  1  0.54518474  0.88967851  0.84965515  1
  N  N71  1  0.46126854  0.74923746  0.59599988  1
