# generated using pymatgen
data_Sc2Al7N9
_symmetry_space_group_name_H-M   'P 1'
_cell_length_a   9.81151234
_cell_length_b   9.83840934
_cell_length_c   9.87391796
_cell_angle_alpha   89.99671957
_cell_angle_beta   89.97817869
_cell_angle_gamma   60.02630688
_symmetry_Int_Tables_number   1
_chemical_formula_structural   Sc2Al7N9
_chemical_formula_sum   'Sc8 Al28 N36'
_cell_volume   825.65005807
_cell_formula_units_Z   4
loop_
 _symmetry_equiv_pos_site_id
 _symmetry_equiv_pos_as_xyz
  1  'x, y, z'
loop_
 _atom_site_type_symbol
 _atom_site_label
 _atom_site_symmetry_multiplicity
 _atom_site_fract_x
 _atom_site_fract_y
 _atom_site_fract_z
 _atom_site_occupancy
  Al  Al0  1  0.10855190  0.09638845  0.32301277  1
  Al  Al1  1  0.22966105  0.19563678  0.07724735  1
  Al  Al2  1  0.77789641  0.09811891  0.82691501  1
  Al  Al3  1  0.88640222  0.20713938  0.57560455  1
  Al  Al4  1  0.44061391  0.09452322  0.32574124  1
  Al  Al5  1  0.55444886  0.20472609  0.07318881  1
  Al  Al6  1  0.10557027  0.09839771  0.82669392  1
  Al  Al7  1  0.21778363  0.20764696  0.57225349  1
  Al  Al8  1  0.78160454  0.09515263  0.32264423  1
  Al  Al9  1  0.88598245  0.20262785  0.07339503  1
  Al  Al10  1  0.44257179  0.09690845  0.82371913  1
  Al  Al11  1  0.56288909  0.19544842  0.57680035  1
  Al  Al12  1  0.11763208  0.42178364  0.31887382  1
  Al  Al13  1  0.23011937  0.54070134  0.07104444  1
  Al  Al14  1  0.77881171  0.41784596  0.82200424  1
  Al  Al15  1  0.89055084  0.52798864  0.56550689  1
  Al  Al16  1  0.55907259  0.52408473  0.07460113  1
  Al  Al17  1  0.77869610  0.41821531  0.32747295  1
  Al  Al18  1  0.45579094  0.41955419  0.82104633  1
  Al  Al19  1  0.56641869  0.53904801  0.57504989  1
  Al  Al20  1  0.11054295  0.76510955  0.31784452  1
  Al  Al21  1  0.21495464  0.87835700  0.07678169  1
  Al  Al22  1  0.88717338  0.88402531  0.57076928  1
  Al  Al23  1  0.44276275  0.76317242  0.31527057  1
  Al  Al24  1  0.55384692  0.88377930  0.07758990  1
  Al  Al25  1  0.10465344  0.77404803  0.83226440  1
  Al  Al26  1  0.88657089  0.88094198  0.07686846  1
  Al  Al27  1  0.54820116  0.87550013  0.57111625  1
  Sc  Sc28  1  0.44700751  0.42472914  0.33938395  1
  Sc  Sc29  1  0.11139685  0.42122096  0.84425042  1
  Sc  Sc30  1  0.21524927  0.54276614  0.59113342  1
  Sc  Sc31  1  0.88124061  0.53817678  0.09666385  1
  Sc  Sc32  1  0.77919750  0.76513550  0.82317281  1
  Sc  Sc33  1  0.22384421  0.87597136  0.58026766  1
  Sc  Sc34  1  0.77472292  0.76956417  0.34601283  1
  Sc  Sc35  1  0.44843268  0.75571673  0.84917709  1
  N  N36  1  0.22143228  0.20619332  0.37663380  1
  N  N37  1  0.10700686  0.09794309  0.13001000  1
  N  N38  1  0.88859626  0.20485321  0.87954065  1
  N  N39  1  0.77740346  0.09611023  0.63312481  1
  N  N40  1  0.56875744  0.17985161  0.38421837  1
  N  N41  1  0.44389375  0.09753221  0.13321917  1
  N  N42  1  0.23270249  0.18230437  0.88584326  1
  N  N43  1  0.10025240  0.11360742  0.63253161  1
  N  N44  1  0.88914188  0.20310744  0.38211409  1
  N  N45  1  0.77507542  0.09752711  0.12894963  1
  N  N46  1  0.55394646  0.20440212  0.87715340  1
  N  N47  1  0.44062442  0.09593272  0.62905672  1
  N  N48  1  0.20088307  0.55107986  0.37436293  1
  N  N49  1  0.13267506  0.41728445  0.11805152  1
  N  N50  1  0.87164745  0.53254822  0.88330944  1
  N  N51  1  0.78048596  0.42451598  0.62637612  1
  N  N52  1  0.56489340  0.55173152  0.38126429  1
  N  N53  1  0.44412813  0.42428015  0.12396294  1
  N  N54  1  0.23469460  0.55047320  0.87069081  1
  N  N55  1  0.09944932  0.41883284  0.62792466  1
  N  N56  1  0.89983342  0.51651763  0.36456446  1
  N  N57  1  0.76669074  0.41041987  0.13787126  1
  N  N58  1  0.57060436  0.51037234  0.88305753  1
  N  N59  1  0.46634114  0.41649949  0.62061424  1
  N  N60  1  0.22377913  0.87145810  0.36248133  1
  N  N61  1  0.11071611  0.76113777  0.12391034  1
  N  N62  1  0.89280031  0.88671711  0.88628971  1
  N  N63  1  0.77793501  0.76197530  0.59652130  1
  N  N64  1  0.52796555  0.88472651  0.37913164  1
  N  N65  1  0.44701775  0.75770905  0.11474736  1
  N  N66  1  0.20364955  0.88671521  0.88133411  1
  N  N67  1  0.08879816  0.77823893  0.64164508  1
  N  N68  1  0.90296301  0.88679165  0.37995249  1
  N  N69  1  0.76882886  0.78315093  0.12699287  1
  N  N70  1  0.55062326  0.89306303  0.88705202  1
  N  N71  1  0.46508303  0.75018721  0.63404690  1
