# generated using pymatgen
data_Sc2Al7N9
_symmetry_space_group_name_H-M   'P 1'
_cell_length_a   9.73023316
_cell_length_b   9.75306548
_cell_length_c   10.09948626
_cell_angle_alpha   90.00174097
_cell_angle_beta   89.95494593
_cell_angle_gamma   60.00717415
_symmetry_Int_Tables_number   1
_chemical_formula_structural   Sc2Al7N9
_chemical_formula_sum   'Sc8 Al28 N36'
_cell_volume   830.09062053
_cell_formula_units_Z   4
loop_
 _symmetry_equiv_pos_site_id
 _symmetry_equiv_pos_as_xyz
  1  'x, y, z'
loop_
 _atom_site_type_symbol
 _atom_site_label
 _atom_site_symmetry_multiplicity
 _atom_site_fract_x
 _atom_site_fract_y
 _atom_site_fract_z
 _atom_site_occupancy
  Al  Al0  1  0.10882398  0.09659029  0.30609023  1
  Al  Al1  1  0.22905780  0.19670864  0.06095224  1
  Al  Al2  1  0.77816430  0.09776521  0.81131695  1
  Al  Al3  1  0.88664470  0.20718745  0.56028408  1
  Al  Al4  1  0.44061909  0.09453986  0.30936955  1
  Al  Al5  1  0.55517950  0.20400793  0.05682359  1
  Al  Al6  1  0.10600930  0.09714497  0.81204140  1
  Al  Al7  1  0.21898185  0.20597853  0.55665535  1
  Al  Al8  1  0.78227520  0.09486144  0.30772465  1
  Al  Al9  1  0.88591390  0.20309958  0.05808129  1
  Al  Al10  1  0.44372240  0.09609878  0.80925304  1
  Al  Al11  1  0.56237602  0.19675568  0.56165378  1
  Al  Al12  1  0.11696956  0.42092154  0.30342577  1
  Al  Al13  1  0.22838044  0.54045102  0.05543134  1
  Al  Al14  1  0.77851131  0.41867861  0.80635613  1
  Al  Al15  1  0.89026832  0.52754459  0.54829180  1
  Al  Al16  1  0.55848404  0.52671069  0.05757415  1
  Al  Al17  1  0.77889558  0.41886810  0.31106578  1
  Al  Al18  1  0.45449567  0.42057442  0.80779235  1
  Al  Al19  1  0.56579474  0.53807675  0.55971418  1
  Al  Al20  1  0.11038480  0.76510538  0.30045992  1
  Al  Al21  1  0.21547972  0.87766226  0.06177959  1
  Al  Al22  1  0.88816234  0.88341080  0.55477586  1
  Al  Al23  1  0.44323219  0.76286414  0.29992109  1
  Al  Al24  1  0.55457256  0.88252807  0.06223194  1
  Al  Al25  1  0.10505791  0.77277793  0.81717831  1
  Al  Al26  1  0.88582787  0.88036870  0.06070160  1
  Al  Al27  1  0.54788030  0.87614560  0.55356365  1
  Sc  Sc28  1  0.44802536  0.42418925  0.31659586  1
  Sc  Sc29  1  0.11192396  0.42127191  0.82223824  1
  Sc  Sc30  1  0.21677578  0.54187851  0.56943319  1
  Sc  Sc31  1  0.88147935  0.53972875  0.07662973  1
  Sc  Sc32  1  0.77876425  0.76578969  0.80053158  1
  Sc  Sc33  1  0.22270781  0.87562392  0.55977827  1
  Sc  Sc34  1  0.77547057  0.76883126  0.33073341  1
  Sc  Sc35  1  0.44681989  0.75765019  0.82939602  1
  N  N36  1  0.22190637  0.20512494  0.36471106  1
  N  N37  1  0.10702506  0.09840363  0.11692545  1
  N  N38  1  0.88830233  0.20534020  0.86735966  1
  N  N39  1  0.77779241  0.09555123  0.62058931  1
  N  N40  1  0.56832861  0.18083929  0.37227411  1
  N  N41  1  0.44384882  0.09746271  0.12021316  1
  N  N42  1  0.23283496  0.18274577  0.87327554  1
  N  N43  1  0.10116865  0.11198696  0.62133004  1
  N  N44  1  0.88953261  0.20351287  0.36962202  1
  N  N45  1  0.77544590  0.09731759  0.11702093  1
  N  N46  1  0.55470797  0.20400918  0.86490471  1
  N  N47  1  0.44162382  0.09533100  0.61745043  1
  N  N48  1  0.20235662  0.55023928  0.35886989  1
  N  N49  1  0.13199469  0.41702638  0.10860741  1
  N  N50  1  0.87215215  0.53438019  0.86816115  1
  N  N51  1  0.78031381  0.42473181  0.61446817  1
  N  N52  1  0.56469585  0.55079078  0.36962422  1
  N  N53  1  0.44433571  0.42473424  0.10738880  1
  N  N54  1  0.23351174  0.55008261  0.86119142  1
  N  N55  1  0.10015816  0.41871064  0.61215612  1
  N  N56  1  0.90011748  0.51566286  0.35398532  1
  N  N57  1  0.76637985  0.41211388  0.12494965  1
  N  N58  1  0.56994237  0.51264459  0.87033845  1
  N  N59  1  0.46573694  0.41688514  0.61249484  1
  N  N60  1  0.22358591  0.87137315  0.34728735  1
  N  N61  1  0.10967941  0.76122162  0.11126258  1
  N  N62  1  0.89189195  0.88542139  0.87363986  1
  N  N63  1  0.77802858  0.76171618  0.57969922  1
  N  N64  1  0.52741626  0.88507905  0.36660906  1
  N  N65  1  0.44728761  0.75788581  0.10373025  1
  N  N66  1  0.20293456  0.88619778  0.87162381  1
  N  N67  1  0.08977371  0.77662687  0.63027792  1
  N  N68  1  0.90450829  0.88666911  0.36861089  1
  N  N69  1  0.76846511  0.78366496  0.11781471  1
  N  N70  1  0.55275520  0.89150860  0.87555888  1
  N  N71  1  0.46365432  0.75140743  0.61928814  1
