# generated using pymatgen
data_Sc2Al7N9
_symmetry_space_group_name_H-M   'P 1'
_cell_length_a   9.73022546
_cell_length_b   9.75305808
_cell_length_c   10.09949662
_cell_angle_alpha   90.00173717
_cell_angle_beta   89.95491905
_cell_angle_gamma   60.00722705
_symmetry_Int_Tables_number   1
_chemical_formula_structural   Sc2Al7N9
_chemical_formula_sum   'Sc8 Al28 N36'
_cell_volume   830.09062770
_cell_formula_units_Z   4
loop_
 _symmetry_equiv_pos_site_id
 _symmetry_equiv_pos_as_xyz
  1  'x, y, z'
loop_
 _atom_site_type_symbol
 _atom_site_label
 _atom_site_symmetry_multiplicity
 _atom_site_fract_x
 _atom_site_fract_y
 _atom_site_fract_z
 _atom_site_occupancy
  Al  Al0  1  0.10884097  0.09657742  0.30140411  1
  Al  Al1  1  0.22907657  0.19669553  0.05627261  1
  Al  Al2  1  0.77818323  0.09775008  0.80663683  1
  Al  Al3  1  0.88666407  0.20717215  0.55560328  1
  Al  Al4  1  0.44063887  0.09452527  0.30468759  1
  Al  Al5  1  0.55519740  0.20399378  0.05213657  1
  Al  Al6  1  0.10602928  0.09712995  0.80736208  1
  Al  Al7  1  0.21900016  0.20596390  0.55197047  1
  Al  Al8  1  0.78229346  0.09484769  0.30303868  1
  Al  Al9  1  0.88593158  0.20308711  0.05339482  1
  Al  Al10  1  0.44374020  0.09608456  0.80456892  1
  Al  Al11  1  0.56239521  0.19674171  0.55697308  1
  Al  Al12  1  0.11698800  0.42090793  0.29874549  1
  Al  Al13  1  0.22839856  0.54043634  0.05074874  1
  Al  Al14  1  0.77853000  0.41866540  0.80167083  1
  Al  Al15  1  0.89028700  0.52753083  0.54361013  1
  Al  Al16  1  0.55850390  0.52669576  0.05288630  1
  Al  Al17  1  0.77891377  0.41885371  0.30638581  1
  Al  Al18  1  0.45451347  0.42056086  0.80310661  1
  Al  Al19  1  0.56581204  0.53806329  0.55503084  1
  Al  Al20  1  0.11040293  0.76509059  0.29577435  1
  Al  Al21  1  0.21549820  0.87764802  0.05710087  1
  Al  Al22  1  0.88818114  0.88339743  0.55009368  1
  Al  Al23  1  0.44325191  0.76284928  0.29523522  1
  Al  Al24  1  0.55459139  0.88251394  0.05755034  1
  Al  Al25  1  0.10507655  0.77276435  0.81249645  1
  Al  Al26  1  0.88584619  0.88035380  0.05602148  1
  Al  Al27  1  0.54789821  0.87613132  0.54888361  1
  Sc  Sc28  1  0.44804492  0.42417410  0.31190821  1
  Sc  Sc29  1  0.11194275  0.42125711  0.81755396  1
  Sc  Sc30  1  0.21679497  0.54186518  0.56475011  1
  Sc  Sc31  1  0.88149838  0.53971406  0.07194889  1
  Sc  Sc32  1  0.77878310  0.76577528  0.79584987  1
  Sc  Sc33  1  0.22272572  0.87561093  0.55508973  1
  Sc  Sc34  1  0.77548839  0.76881740  0.32605282  1
  Sc  Sc35  1  0.44683607  0.75763812  0.82471378  1
  N  N36  1  0.22192489  0.20511016  0.36002715  1
  N  N37  1  0.10704197  0.09839121  0.11224107  1
  N  N38  1  0.88832040  0.20532717  0.86267496  1
  N  N39  1  0.77781134  0.09553663  0.61590875  1
  N  N40  1  0.56834785  0.18082545  0.36759241  1
  N  N41  1  0.44386824  0.09744854  0.11553097  1
  N  N42  1  0.23285410  0.18273216  0.86859540  1
  N  N43  1  0.10118848  0.11197183  0.61664922  1
  N  N44  1  0.88955144  0.20349793  0.36493991  1
  N  N45  1  0.77546386  0.09730430  0.11233534  1
  N  N46  1  0.55472597  0.20399525  0.86021960  1
  N  N47  1  0.44164167  0.09531718  0.61276694  1
  N  N48  1  0.20237675  0.55022510  0.35418666  1
  N  N49  1  0.13201322  0.41701257  0.10392734  1
  N  N50  1  0.87217136  0.53436544  0.86347937  1
  N  N51  1  0.78033202  0.42471801  0.60978425  1
  N  N52  1  0.56471325  0.55077681  0.36494105  1
  N  N53  1  0.44435490  0.42471988  0.10270162  1
  N  N54  1  0.23352973  0.55006832  0.85650841  1
  N  N55  1  0.10017769  0.41869621  0.60747205  1
  N  N56  1  0.90013579  0.51564893  0.34930440  1
  N  N57  1  0.76639772  0.41209983  0.12026805  1
  N  N58  1  0.56996086  0.51263121  0.86565190  1
  N  N59  1  0.46575530  0.41687111  0.60781192  1
  N  N60  1  0.22360426  0.87135947  0.34259842  1
  N  N61  1  0.10969746  0.76120649  0.10657887  1
  N  N62  1  0.89191064  0.88540653  0.86895944  1
  N  N63  1  0.77804714  0.76170233  0.57501769  1
  N  N64  1  0.52743419  0.88506458  0.36192820  1
  N  N65  1  0.44730727  0.75787080  0.09904606  1
  N  N66  1  0.20295213  0.88618398  0.86694544  1
  N  N67  1  0.08979308  0.77661402  0.62559535  1
  N  N68  1  0.90452691  0.88665542  0.36392794  1
  N  N69  1  0.76848329  0.78365036  0.11313439  1
  N  N70  1  0.55277374  0.89149482  0.87087702  1
  N  N71  1  0.46367026  0.75139407  0.61460579  1
