# generated using pymatgen
data_Sc2Al7N9
_symmetry_space_group_name_H-M   'P 1'
_cell_length_a   10.02699529
_cell_length_b   10.06459464
_cell_length_c   9.22366020
_cell_angle_alpha   90.06756414
_cell_angle_beta   90.08209971
_cell_angle_gamma   60.11224940
_symmetry_Int_Tables_number   1
_chemical_formula_structural   Sc2Al7N9
_chemical_formula_sum   'Sc8 Al28 N36'
_cell_volume   807.03177984
_cell_formula_units_Z   4
loop_
 _symmetry_equiv_pos_site_id
 _symmetry_equiv_pos_as_xyz
  1  'x, y, z'
loop_
 _atom_site_type_symbol
 _atom_site_label
 _atom_site_symmetry_multiplicity
 _atom_site_fract_x
 _atom_site_fract_y
 _atom_site_fract_z
 _atom_site_occupancy
  Al  Al0  1  0.10515413  0.10313266  0.36195503  1
  Al  Al1  1  0.22807560  0.20304409  0.12716630  1
  Al  Al2  1  0.78021528  0.09839668  0.86975093  1
  Al  Al3  1  0.88804754  0.20776568  0.62227145  1
  Al  Al4  1  0.44218683  0.09613711  0.37557307  1
  Al  Al5  1  0.56068688  0.19457997  0.11586353  1
  Al  Al6  1  0.10647400  0.09555576  0.88264396  1
  Al  Al7  1  0.22095829  0.20049625  0.61921329  1
  Al  Al8  1  0.77795895  0.09522572  0.37871014  1
  Al  Al9  1  0.88271011  0.20224070  0.12746489  1
  Al  Al10  1  0.44021297  0.09605506  0.87309971  1
  Al  Al11  1  0.55690383  0.20367015  0.62947512  1
  Al  Al12  1  0.11108040  0.42214013  0.37183351  1
  Al  Al13  1  0.22150684  0.54072200  0.11883185  1
  Al  Al14  1  0.77793419  0.41254359  0.87326761  1
  Al  Al15  1  0.88466978  0.53286108  0.61697721  1
  Al  Al16  1  0.55867974  0.53789077  0.12055226  1
  Al  Al17  1  0.78054076  0.42233715  0.37573231  1
  Al  Al18  1  0.44889334  0.42418565  0.87821687  1
  Al  Al19  1  0.56652914  0.52699802  0.62451952  1
  Al  Al20  1  0.10416062  0.76989110  0.36150586  1
  Al  Al21  1  0.22352210  0.87398528  0.12532152  1
  Al  Al22  1  0.88639210  0.88111845  0.62601844  1
  Al  Al23  1  0.44834946  0.75879223  0.36924939  1
  Al  Al24  1  0.54632129  0.88066212  0.12858893  1
  Al  Al25  1  0.11104773  0.76970788  0.88207083  1
  Al  Al26  1  0.88584648  0.88411599  0.12152194  1
  Al  Al27  1  0.55379069  0.87730553  0.61655958  1
  Sc  Sc28  1  0.45357967  0.41979274  0.35123426  1
  Sc  Sc29  1  0.11947612  0.42029161  0.85478134  1
  Sc  Sc30  1  0.22413668  0.54474337  0.60516910  1
  Sc  Sc31  1  0.88905457  0.53121077  0.10882675  1
  Sc  Sc32  1  0.77572961  0.76825132  0.85774030  1
  Sc  Sc33  1  0.21551110  0.88301273  0.60391653  1
  Sc  Sc34  1  0.77883381  0.76472834  0.36045880  1
  Sc  Sc35  1  0.44401951  0.75801808  0.85883967  1
  N  N36  1  0.22502815  0.20630275  0.33465661  1
  N  N37  1  0.10813641  0.09785686  0.09538705  1
  N  N38  1  0.89308860  0.20142727  0.83024261  1
  N  N39  1  0.77416896  0.09751303  0.58805773  1
  N  N40  1  0.56861879  0.17955688  0.32423468  1
  N  N41  1  0.44192170  0.09355243  0.08093602  1
  N  N42  1  0.22864788  0.18297834  0.82883643  1
  N  N43  1  0.09649017  0.11747510  0.56876277  1
  N  N44  1  0.88219009  0.20649093  0.33355976  1
  N  N45  1  0.77738693  0.09621790  0.07555088  1
  N  N46  1  0.55232151  0.20569616  0.83990478  1
  N  N47  1  0.44241503  0.09917148  0.58241088  1
  N  N48  1  0.20494297  0.54802706  0.33884704  1
  N  N49  1  0.13106459  0.41633197  0.08915499  1
  N  N50  1  0.87798017  0.52716991  0.84114444  1
  N  N51  1  0.77870037  0.42296278  0.58366119  1
  N  N52  1  0.56888119  0.54677683  0.32852400  1
  N  N53  1  0.44608714  0.42536583  0.09400252  1
  N  N54  1  0.23267127  0.55407055  0.84447874  1
  N  N55  1  0.10545136  0.41928459  0.59336853  1
  N  N56  1  0.89731243  0.52006469  0.34502038  1
  N  N57  1  0.77000065  0.41123995  0.08052508  1
  N  N58  1  0.56685550  0.51538647  0.83457276  1
  N  N59  1  0.46604635  0.41405723  0.58350891  1
  N  N60  1  0.22440349  0.87376971  0.33915521  1
  N  N61  1  0.11054456  0.76392727  0.09309610  1
  N  N62  1  0.89940411  0.88409458  0.83467047  1
  N  N63  1  0.77975581  0.76217468  0.59940231  1
  N  N64  1  0.53505052  0.88438291  0.33923444  1
  N  N65  1  0.44510302  0.76104802  0.09400605  1
  N  N66  1  0.20413261  0.88588987  0.84263532  1
  N  N67  1  0.08920096  0.77656959  0.57047694  1
  N  N68  1  0.89372854  0.88930903  0.32744377  1
  N  N69  1  0.76725671  0.77965145  0.10038328  1
  N  N70  1  0.54413427  0.89210536  0.82438908  1
  N  N71  1  0.46384214  0.74646038  0.58861661  1
