# generated using pymatgen
data_Sc2Al7N9
_symmetry_space_group_name_H-M   'P 1'
_cell_length_a   9.96408211
_cell_length_b   9.99883990
_cell_length_c   9.41624922
_cell_angle_alpha   90.06298393
_cell_angle_beta   90.08377856
_cell_angle_gamma   60.09970071
_symmetry_Int_Tables_number   1
_chemical_formula_structural   Sc2Al7N9
_chemical_formula_sum   'Sc8 Al28 N36'
_cell_volume   813.26189207
_cell_formula_units_Z   4
loop_
 _symmetry_equiv_pos_site_id
 _symmetry_equiv_pos_as_xyz
  1  'x, y, z'
loop_
 _atom_site_type_symbol
 _atom_site_label
 _atom_site_symmetry_multiplicity
 _atom_site_fract_x
 _atom_site_fract_y
 _atom_site_fract_z
 _atom_site_occupancy
  Al  Al0  1  0.10492827  0.10374222  0.36575808  1
  Al  Al1  1  0.22765419  0.20358573  0.12895702  1
  Al  Al2  1  0.77990841  0.09851014  0.87268708  1
  Al  Al3  1  0.88759986  0.20804974  0.62508279  1
  Al  Al4  1  0.44190930  0.09583801  0.37749076  1
  Al  Al5  1  0.56090169  0.19392273  0.11954824  1
  Al  Al6  1  0.10680029  0.09487399  0.88385689  1
  Al  Al7  1  0.22123807  0.20003323  0.62287505  1
  Al  Al8  1  0.77844040  0.09499164  0.38040629  1
  Al  Al9  1  0.88303263  0.20224221  0.12920618  1
  Al  Al10  1  0.44031789  0.09626372  0.87592582  1
  Al  Al11  1  0.55699081  0.20404748  0.63088948  1
  Al  Al12  1  0.10991941  0.42192300  0.37797759  1
  Al  Al13  1  0.22039991  0.54079044  0.12458720  1
  Al  Al14  1  0.77714183  0.41236331  0.87586909  1
  Al  Al15  1  0.88345210  0.53357980  0.62397219  1
  Al  Al16  1  0.55837705  0.53936538  0.12402626  1
  Al  Al17  1  0.78116520  0.42279085  0.37826119  1
  Al  Al18  1  0.44854604  0.42452353  0.88261551  1
  Al  Al19  1  0.56685003  0.52591707  0.62671011  1
  Al  Al20  1  0.10369493  0.77012064  0.36583655  1
  Al  Al21  1  0.22403563  0.87353528  0.12986939  1
  Al  Al22  1  0.88615123  0.88110796  0.62856368  1
  Al  Al23  1  0.44893618  0.75881982  0.37528522  1
  Al  Al24  1  0.54576804  0.88030951  0.13093313  1
  Al  Al25  1  0.11173396  0.76940674  0.88348965  1
  Al  Al26  1  0.88647891  0.88366207  0.12436004  1
  Al  Al27  1  0.55434309  0.87753331  0.62028716  1
  Sc  Sc28  1  0.45389559  0.41985486  0.35222927  1
  Sc  Sc29  1  0.12036115  0.42078437  0.85614587  1
  Sc  Sc30  1  0.22538631  0.54420956  0.60711495  1
  Sc  Sc31  1  0.88993670  0.53077927  0.11051298  1
  Sc  Sc32  1  0.77541060  0.76908740  0.86097038  1
  Sc  Sc33  1  0.21499048  0.88325616  0.60651751  1
  Sc  Sc34  1  0.77906338  0.76392199  0.36251428  1
  Sc  Sc35  1  0.44341022  0.75790360  0.86030265  1
  N  N36  1  0.22446628  0.20688979  0.33166820  1
  N  N37  1  0.10862956  0.09707812  0.09144651  1
  N  N38  1  0.89274511  0.20147115  0.82800426  1
  N  N39  1  0.77441046  0.09734658  0.58465614  1
  N  N40  1  0.56899764  0.17856577  0.32198236  1
  N  N41  1  0.44193820  0.09348265  0.07861432  1
  N  N42  1  0.22904670  0.18251770  0.82613283  1
  N  N43  1  0.09593661  0.11848305  0.56689555  1
  N  N44  1  0.88241389  0.20679638  0.33060895  1
  N  N45  1  0.77747177  0.09591156  0.07370571  1
  N  N46  1  0.55201624  0.20626266  0.83669748  1
  N  N47  1  0.44236064  0.09897112  0.57944618  1
  N  N48  1  0.20375066  0.54799099  0.33753077  1
  N  N49  1  0.13221798  0.41614161  0.08355368  1
  N  N50  1  0.87739769  0.52719454  0.83883519  1
  N  N51  1  0.77897209  0.42333979  0.58097290  1
  N  N52  1  0.56943093  0.54790297  0.32610700  1
  N  N53  1  0.44564277  0.42594459  0.09394962  1
  N  N54  1  0.23396618  0.55441297  0.83878047  1
  N  N55  1  0.10451118  0.41948563  0.59232644  1
  N  N56  1  0.89802510  0.51929255  0.33967984  1
  N  N57  1  0.76908580  0.41139169  0.07726711  1
  N  N58  1  0.56678594  0.51425463  0.83056091  1
  N  N59  1  0.46725006  0.41341574  0.57791725  1
  N  N60  1  0.22461375  0.87359982  0.33864371  1
  N  N61  1  0.11118276  0.76350798  0.08949797  1
  N  N62  1  0.89967358  0.88442437  0.83147875  1
  N  N63  1  0.77974930  0.76179968  0.59841354  1
  N  N64  1  0.53452170  0.88426987  0.33554128  1
  N  N65  1  0.44438991  0.76135058  0.08941714  1
  N  N66  1  0.20347221  0.88604019  0.83688739  1
  N  N67  1  0.08827560  0.77664663  0.56756128  1
  N  N68  1  0.89418624  0.88917020  0.32459695  1
  N  N69  1  0.76717000  0.77986867  0.09886186  1
  N  N70  1  0.54377318  0.89275722  0.82164410  1
  N  N71  1  0.46450520  0.74634118  0.58685950  1
