# generated using pymatgen
data_Sc2Al7N9
_symmetry_space_group_name_H-M   'P 1'
_cell_length_a   9.73022661
_cell_length_b   9.75305825
_cell_length_c   10.09949892
_cell_angle_alpha   90.00173091
_cell_angle_beta   89.95491175
_cell_angle_gamma   60.00719498
_symmetry_Int_Tables_number   1
_chemical_formula_structural   Sc2Al7N9
_chemical_formula_sum   'Sc8 Al28 N36'
_cell_volume   830.09066095
_cell_formula_units_Z   4
loop_
 _symmetry_equiv_pos_site_id
 _symmetry_equiv_pos_as_xyz
  1  'x, y, z'
loop_
 _atom_site_type_symbol
 _atom_site_label
 _atom_site_symmetry_multiplicity
 _atom_site_fract_x
 _atom_site_fract_y
 _atom_site_fract_z
 _atom_site_occupancy
  Al  Al0  1  0.10883227  0.09658341  0.30368825  1
  Al  Al1  1  0.22906756  0.19670264  0.05855644  1
  Al  Al2  1  0.77817433  0.09775687  0.80892042  1
  Al  Al3  1  0.88665476  0.20717931  0.55788837  1
  Al  Al4  1  0.44062954  0.09453220  0.30697250  1
  Al  Al5  1  0.55518833  0.20400111  0.05442200  1
  Al  Al6  1  0.10601989  0.09713729  0.80964508  1
  Al  Al7  1  0.21899115  0.20597063  0.55425355  1
  Al  Al8  1  0.78228429  0.09485532  0.30532442  1
  Al  Al9  1  0.88592254  0.20309356  0.05568074  1
  Al  Al10  1  0.44373109  0.09609179  0.80685462  1
  Al  Al11  1  0.56238596  0.19674809  0.55925658  1
  Al  Al12  1  0.11697934  0.42091508  0.30103055  1
  Al  Al13  1  0.22838997  0.54044265  0.05303187  1
  Al  Al14  1  0.77852119  0.41867223  0.80395466  1
  Al  Al15  1  0.89027729  0.52753828  0.54589029  1
  Al  Al16  1  0.55849410  0.52670320  0.05517315  1
  Al  Al17  1  0.77890432  0.41886052  0.30866866  1
  Al  Al18  1  0.45450522  0.42056718  0.80539114  1
  Al  Al19  1  0.56580340  0.53807002  0.55731657  1
  Al  Al20  1  0.11039489  0.76509736  0.29806103  1
  Al  Al21  1  0.21548969  0.87765454  0.05938265  1
  Al  Al22  1  0.88817176  0.88340388  0.55237535  1
  Al  Al23  1  0.44324219  0.76285666  0.29751990  1
  Al  Al24  1  0.55458225  0.88252093  0.05983103  1
  Al  Al25  1  0.10506679  0.77277123  0.81478281  1
  Al  Al26  1  0.88583739  0.88036105  0.05830563  1
  Al  Al27  1  0.54788940  0.87613835  0.55116563  1
  Sc  Sc28  1  0.44803510  0.42418181  0.31419604  1
  Sc  Sc29  1  0.11193308  0.42126352  0.81983594  1
  Sc  Sc30  1  0.21678534  0.54187256  0.56703653  1
  Sc  Sc31  1  0.88149026  0.53972030  0.07423324  1
  Sc  Sc32  1  0.77877533  0.76578168  0.79813190  1
  Sc  Sc33  1  0.22271590  0.87561768  0.55737764  1
  Sc  Sc34  1  0.77547871  0.76882514  0.32833321  1
  Sc  Sc35  1  0.44682846  0.75764356  0.82699577  1
  N  N36  1  0.22191565  0.20511693  0.36231082  1
  N  N37  1  0.10703349  0.09839718  0.11452510  1
  N  N38  1  0.88831146  0.20533381  0.86495968  1
  N  N39  1  0.77780217  0.09554310  0.61819250  1
  N  N40  1  0.56833855  0.18083218  0.36987670  1
  N  N41  1  0.44385946  0.09745488  0.11781527  1
  N  N42  1  0.23284465  0.18273926  0.87087946  1
  N  N43  1  0.10117908  0.11197950  0.61893330  1
  N  N44  1  0.88954248  0.20350516  0.36722498  1
  N  N45  1  0.77545472  0.09731128  0.11462096  1
  N  N46  1  0.55471715  0.20400210  0.86250451  1
  N  N47  1  0.44163234  0.09532420  0.61505153  1
  N  N48  1  0.20236692  0.55023254  0.35647373  1
  N  N49  1  0.13200494  0.41701935  0.10621250  1
  N  N50  1  0.87216251  0.53437242  0.86576344  1
  N  N51  1  0.78032336  0.42472527  0.61206810  1
  N  N52  1  0.56470453  0.55078387  0.36722633  1
  N  N53  1  0.44434539  0.42472711  0.10498853  1
  N  N54  1  0.23352076  0.55007435  0.85879187  1
  N  N55  1  0.10016747  0.41870328  0.60975419  1
  N  N56  1  0.90012610  0.51565650  0.35158574  1
  N  N57  1  0.76638880  0.41210666  0.12255191  1
  N  N58  1  0.56995210  0.51263749  0.86793757  1
  N  N59  1  0.46574668  0.41687772  0.61009620  1
  N  N60  1  0.22359529  0.87136641  0.34488604  1
  N  N61  1  0.10968940  0.76121315  0.10886402  1
  N  N62  1  0.89190110  0.88541384  0.87124422  1
  N  N63  1  0.77803799  0.76170907  0.57729968  1
  N  N64  1  0.52742532  0.88507151  0.36421116  1
  N  N65  1  0.44729784  0.75787830  0.10133028  1
  N  N66  1  0.20294413  0.88619040  0.86922753  1
  N  N67  1  0.08978197  0.77662135  0.62788124  1
  N  N68  1  0.90451760  0.88666230  0.36621055  1
  N  N69  1  0.76847401  0.78365732  0.11541587  1
  N  N70  1  0.55276538  0.89150085  0.87315840  1
  N  N71  1  0.46366188  0.75140099  0.61688893  1
