# generated using pymatgen
data_Sc2Al7N9
_symmetry_space_group_name_H-M   'P 1'
_cell_length_a   10.00725867
_cell_length_b   10.00297008
_cell_length_c   9.33754197
_cell_angle_alpha   90.02971795
_cell_angle_beta   89.92459665
_cell_angle_gamma   60.29361957
_symmetry_Int_Tables_number   1
_chemical_formula_structural   Sc2Al7N9
_chemical_formula_sum   'Sc8 Al28 N36'
_cell_volume   811.86512222
_cell_formula_units_Z   4
loop_
 _symmetry_equiv_pos_site_id
 _symmetry_equiv_pos_as_xyz
  1  'x, y, z'
loop_
 _atom_site_type_symbol
 _atom_site_label
 _atom_site_symmetry_multiplicity
 _atom_site_fract_x
 _atom_site_fract_y
 _atom_site_fract_z
 _atom_site_occupancy
  Al  Al0  1  0.11300749  0.09269700  0.32351438  1
  Al  Al1  1  0.23086176  0.20251809  0.08447438  1
  Al  Al2  1  0.44587182  0.09025614  0.32927732  1
  Al  Al3  1  0.55223342  0.20663716  0.08868803  1
  Al  Al4  1  0.77745878  0.09167409  0.32652932  1
  Al  Al5  1  0.88022046  0.21176519  0.09137402  1
  Al  Al6  1  0.44957600  0.09488856  0.83287727  1
  Al  Al7  1  0.56245847  0.19771915  0.57441010  1
  Al  Al8  1  0.11190008  0.42355360  0.33214154  1
  Al  Al9  1  0.77089586  0.44059959  0.82695858  1
  Al  Al10  1  0.87947359  0.54980147  0.57589708  1
  Al  Al11  1  0.45201495  0.42561198  0.33433725  1
  Al  Al12  1  0.55809328  0.53509663  0.08033934  1
  Al  Al13  1  0.10421569  0.43366330  0.83186571  1
  Al  Al14  1  0.77196540  0.42968862  0.33411756  1
  Al  Al15  1  0.45112503  0.42448168  0.82845246  1
  Al  Al16  1  0.55984581  0.54217493  0.57952960  1
  Al  Al17  1  0.10643219  0.76713261  0.33046067  1
  Al  Al18  1  0.22658205  0.86590051  0.08659200  1
  Al  Al19  1  0.77813381  0.75862570  0.82674594  1
  Al  Al20  1  0.88035983  0.87290171  0.57605136  1
  Al  Al21  1  0.44751699  0.76065782  0.32611549  1
  Al  Al22  1  0.55429390  0.87633485  0.07946034  1
  Al  Al23  1  0.10766663  0.75628180  0.83329822  1
  Al  Al24  1  0.77009064  0.77001792  0.33405361  1
  Al  Al25  1  0.88604235  0.87234327  0.08655249  1
  Al  Al26  1  0.45327043  0.75401097  0.83687337  1
  Al  Al27  1  0.56114208  0.86923590  0.58263968  1
  Sc  Sc28  1  0.77142000  0.09043197  0.85013325  1
  Sc  Sc29  1  0.88066538  0.21003260  0.59084265  1
  Sc  Sc30  1  0.11161809  0.09401721  0.85819822  1
  Sc  Sc31  1  0.22765621  0.20525346  0.59401191  1
  Sc  Sc32  1  0.22844275  0.53770517  0.09386647  1
  Sc  Sc33  1  0.22359073  0.53845905  0.59346408  1
  Sc  Sc34  1  0.88231583  0.54373887  0.09777772  1
  Sc  Sc35  1  0.22877143  0.86536529  0.59313442  1
  N  N36  1  0.22417429  0.20179823  0.36217396  1
  N  N37  1  0.11313425  0.09278395  0.11045412  1
  N  N38  1  0.87217220  0.22991118  0.87333894  1
  N  N39  1  0.76956849  0.08221273  0.61921625  1
  N  N40  1  0.55660214  0.20247677  0.36767230  1
  N  N41  1  0.44555658  0.09152526  0.12509975  1
  N  N42  1  0.23281135  0.21617039  0.86984594  1
  N  N43  1  0.11024587  0.09322471  0.62929423  1
  N  N44  1  0.89000367  0.20319357  0.35561928  1
  N  N45  1  0.77595871  0.09300893  0.11595641  1
  N  N46  1  0.53529717  0.21746495  0.88503837  1
  N  N47  1  0.46708083  0.08271613  0.62744868  1
  N  N48  1  0.22371576  0.53941455  0.35760283  1
  N  N49  1  0.11897285  0.41032458  0.12659529  1
  N  N50  1  0.88417859  0.54339814  0.86880541  1
  N  N51  1  0.76878458  0.44974831  0.61951375  1
  N  N52  1  0.55311424  0.54369524  0.37542936  1
  N  N53  1  0.46485489  0.41843523  0.13111934  1
  N  N54  1  0.22648721  0.53604942  0.85564857  1
  N  N55  1  0.08698715  0.44027571  0.62294125  1
  N  N56  1  0.88581861  0.54305501  0.36450678  1
  N  N57  1  0.76585540  0.42275165  0.13145705  1
  N  N58  1  0.55657500  0.53778653  0.87620019  1
  N  N59  1  0.47128523  0.41329424  0.62120115  1
  N  N60  1  0.22530387  0.87196114  0.35883114  1
  N  N61  1  0.09960833  0.77948928  0.12675205  1
  N  N62  1  0.89764311  0.84861553  0.88306283  1
  N  N63  1  0.77577637  0.76308363  0.61922999  1
  N  N64  1  0.55201048  0.87324433  0.37664126  1
  N  N65  1  0.44893179  0.75847759  0.12063796  1
  N  N66  1  0.23498249  0.84688270  0.87360659  1
  N  N67  1  0.08723337  0.77176260  0.62601308  1
  N  N68  1  0.88689128  0.87378335  0.37021940  1
  N  N69  1  0.76256638  0.78433204  0.13248956  1
  N  N70  1  0.55747530  0.87326894  0.87533938  1
  N  N71  1  0.46663291  0.75140339  0.63189987  1
