# generated using pymatgen
data_Sc2Al7N9
_symmetry_space_group_name_H-M   'P 1'
_cell_length_a   10.18946796
_cell_length_b   10.17640856
_cell_length_c   8.80806320
_cell_angle_alpha   90.03514569
_cell_angle_beta   89.94752994
_cell_angle_gamma   60.28550634
_symmetry_Int_Tables_number   1
_chemical_formula_structural   Sc2Al7N9
_chemical_formula_sum   'Sc8 Al28 N36'
_cell_volume   793.22949649
_cell_formula_units_Z   4
loop_
 _symmetry_equiv_pos_site_id
 _symmetry_equiv_pos_as_xyz
  1  'x, y, z'
loop_
 _atom_site_type_symbol
 _atom_site_label
 _atom_site_symmetry_multiplicity
 _atom_site_fract_x
 _atom_site_fract_y
 _atom_site_fract_z
 _atom_site_occupancy
  Al  Al0  1  0.11259502  0.09258908  0.34271414  1
  Al  Al1  1  0.22909187  0.20157318  0.10388336  1
  Al  Al2  1  0.44816259  0.08934527  0.33822034  1
  Al  Al3  1  0.55390413  0.20590495  0.09996707  1
  Al  Al4  1  0.77636327  0.09125702  0.34214366  1
  Al  Al5  1  0.88167667  0.20995763  0.10789314  1
  Al  Al6  1  0.44841122  0.09480944  0.84474626  1
  Al  Al7  1  0.56020719  0.19938273  0.58170222  1
  Al  Al8  1  0.10824252  0.42728656  0.34464923  1
  Al  Al9  1  0.77050279  0.43812340  0.83686810  1
  Al  Al10  1  0.87998641  0.54951595  0.59215016  1
  Al  Al11  1  0.45232738  0.42547372  0.34378903  1
  Al  Al12  1  0.55799434  0.53538214  0.09080438  1
  Al  Al13  1  0.10770952  0.43023402  0.84672808  1
  Al  Al14  1  0.77201992  0.43296823  0.34481224  1
  Al  Al15  1  0.45126524  0.42448484  0.83864825  1
  Al  Al16  1  0.55898494  0.54241243  0.58719097  1
  Al  Al17  1  0.10586031  0.76543563  0.34131050  1
  Al  Al18  1  0.22501991  0.86832209  0.10222048  1
  Al  Al19  1  0.77635004  0.76149602  0.83714947  1
  Al  Al20  1  0.88108633  0.87135503  0.58344589  1
  Al  Al21  1  0.44919759  0.75975643  0.33357584  1
  Al  Al22  1  0.55426390  0.87609051  0.08842130  1
  Al  Al23  1  0.10772458  0.75806471  0.84790885  1
  Al  Al24  1  0.77105952  0.76726620  0.34245691  1
  Al  Al25  1  0.88518548  0.87396314  0.09912701  1
  Al  Al26  1  0.45213167  0.75485379  0.84821277  1
  Al  Al27  1  0.56071006  0.86936740  0.59122297  1
  Sc  Sc28  1  0.77203081  0.09096092  0.85498947  1
  Sc  Sc29  1  0.88038086  0.21171204  0.59627987  1
  Sc  Sc30  1  0.11171915  0.09429156  0.86172334  1
  Sc  Sc31  1  0.22920335  0.20604122  0.59890772  1
  Sc  Sc32  1  0.22873868  0.53719540  0.10134279  1
  Sc  Sc33  1  0.22325858  0.53870403  0.59941121  1
  Sc  Sc34  1  0.88241608  0.54328640  0.10122809  1
  Sc  Sc35  1  0.23016654  0.86292897  0.59967811  1
  N  N36  1  0.22551285  0.20365331  0.34888948  1
  N  N37  1  0.11199733  0.09302104  0.11315499  1
  N  N38  1  0.87530457  0.22648285  0.86227591  1
  N  N39  1  0.76979391  0.08330229  0.60156799  1
  N  N40  1  0.55508603  0.20347343  0.35731342  1
  N  N41  1  0.44612887  0.09139278  0.11543899  1
  N  N42  1  0.23235569  0.21310670  0.86281789  1
  N  N43  1  0.11161240  0.09268011  0.60375992  1
  N  N44  1  0.88766327  0.20572903  0.34696947  1
  N  N45  1  0.77599058  0.09336638  0.11459188  1
  N  N46  1  0.53806537  0.21547409  0.87428330  1
  N  N47  1  0.46583116  0.08320717  0.61547062  1
  N  N48  1  0.22416737  0.53844386  0.35424472  1
  N  N49  1  0.11687386  0.41263752  0.11221291  1
  N  N50  1  0.88418125  0.54329624  0.85344898  1
  N  N51  1  0.76803946  0.44856991  0.60734257  1
  N  N52  1  0.55308690  0.54385378  0.36465199  1
  N  N53  1  0.46365568  0.41893363  0.12104056  1
  N  N54  1  0.22637034  0.53696201  0.85356656  1
  N  N55  1  0.09000163  0.43855487  0.60939095  1
  N  N56  1  0.88545818  0.54392481  0.36154634  1
  N  N57  1  0.76735998  0.42331353  0.12091228  1
  N  N58  1  0.55636063  0.53770848  0.86733217  1
  N  N59  1  0.46901013  0.41478304  0.61020105  1
  N  N60  1  0.22732813  0.86861319  0.34732401  1
  N  N61  1  0.10027713  0.77738491  0.11560327  1
  N  N62  1  0.89607518  0.85249070  0.87196578  1
  N  N63  1  0.77464909  0.76440392  0.61024180  1
  N  N64  1  0.55286743  0.87249202  0.36608082  1
  N  N65  1  0.44911522  0.75869467  0.11020198  1
  N  N66  1  0.23319619  0.85081679  0.86634580  1
  N  N67  1  0.08885281  0.77107761  0.61083217  1
  N  N68  1  0.88675886  0.87195407  0.35846080  1
  N  N69  1  0.76411950  0.78126711  0.12064346  1
  N  N70  1  0.55687281  0.87353384  0.86616716  1
  N  N71  1  0.46554536  0.75190362  0.62176792  1
