# generated using pymatgen
data_Sc2Al7N9
_symmetry_space_group_name_H-M   'P 1'
_cell_length_a   10.18991563
_cell_length_b   10.17877994
_cell_length_c   8.80319688
_cell_angle_alpha   90.04347343
_cell_angle_beta   90.03696884
_cell_angle_gamma   60.31066960
_symmetry_Int_Tables_number   1
_chemical_formula_structural   Sc2Al7N9
_chemical_formula_sum   'Sc8 Al28 N36'
_cell_volume   793.21018823
_cell_formula_units_Z   4
loop_
 _symmetry_equiv_pos_site_id
 _symmetry_equiv_pos_as_xyz
  1  'x, y, z'
loop_
 _atom_site_type_symbol
 _atom_site_label
 _atom_site_symmetry_multiplicity
 _atom_site_fract_x
 _atom_site_fract_y
 _atom_site_fract_z
 _atom_site_occupancy
  Al  Al0  1  0.11210067  0.09298006  0.34846209  1
  Al  Al1  1  0.22764834  0.20175549  0.11519777  1
  Al  Al2  1  0.45225070  0.08831837  0.35858161  1
  Al  Al3  1  0.55707571  0.20519274  0.12001614  1
  Al  Al4  1  0.77418308  0.09138867  0.35758782  1
  Al  Al5  1  0.88266670  0.20827826  0.11499309  1
  Al  Al6  1  0.44467199  0.09577573  0.87381939  1
  Al  Al7  1  0.55751787  0.19996650  0.61030985  1
  Al  Al8  1  0.10645815  0.42917942  0.35841928  1
  Al  Al9  1  0.77084423  0.43497509  0.86710041  1
  Al  Al10  1  0.87911613  0.54855378  0.60949336  1
  Al  Al11  1  0.45378387  0.42379190  0.36858477  1
  Al  Al12  1  0.55635514  0.53588935  0.11685881  1
  Al  Al13  1  0.10969373  0.42830496  0.85994141  1
  Al  Al14  1  0.77164343  0.43596129  0.35947943  1
  Al  Al15  1  0.44990541  0.42528047  0.86153921  1
  Al  Al16  1  0.56053787  0.54181088  0.61648460  1
  Al  Al17  1  0.10366846  0.76529648  0.35489167  1
  Al  Al18  1  0.22492212  0.86996241  0.11407197  1
  Al  Al19  1  0.77557074  0.76349645  0.86177411  1
  Al  Al20  1  0.88383475  0.86877043  0.61095334  1
  Al  Al21  1  0.45245411  0.75782848  0.35825011  1
  Al  Al22  1  0.55536395  0.87488665  0.11393423  1
  Al  Al23  1  0.10944941  0.75833206  0.87406401  1
  Al  Al24  1  0.77238887  0.76551577  0.36976094  1
  Al  Al25  1  0.88208637  0.87767190  0.12031262  1
  Al  Al26  1  0.44896491  0.75627384  0.87281287  1
  Al  Al27  1  0.55965893  0.87011300  0.61936056  1
  Sc  Sc28  1  0.77325261  0.09089756  0.85760728  1
  Sc  Sc29  1  0.87947959  0.21436190  0.59834079  1
  Sc  Sc30  1  0.11231185  0.09357245  0.86203469  1
  Sc  Sc31  1  0.23057246  0.20556986  0.60116090  1
  Sc  Sc32  1  0.23024805  0.53463609  0.10808559  1
  Sc  Sc33  1  0.22224371  0.54048910  0.60470673  1
  Sc  Sc34  1  0.88371316  0.54493331  0.10582168  1
  Sc  Sc35  1  0.22954408  0.86203715  0.60131859  1
  N  N36  1  0.22563884  0.20484862  0.34366096  1
  N  N37  1  0.11133708  0.09340836  0.11222505  1
  N  N38  1  0.87713271  0.22402713  0.85366169  1
  N  N39  1  0.76982443  0.08320109  0.59176610  1
  N  N40  1  0.55490079  0.20669619  0.34280013  1
  N  N41  1  0.44641174  0.09393008  0.09940726  1
  N  N42  1  0.23192872  0.21212006  0.85471538  1
  N  N43  1  0.11181440  0.09261299  0.59571349  1
  N  N44  1  0.88566053  0.20819604  0.34340644  1
  N  N45  1  0.77581935  0.09427427  0.10779016  1
  N  N46  1  0.53807977  0.21218587  0.83938422  1
  N  N47  1  0.46590233  0.08008043  0.58279018  1
  N  N48  1  0.22808411  0.53441909  0.35189005  1
  N  N49  1  0.11726352  0.41193063  0.09875801  1
  N  N50  1  0.88453279  0.54200183  0.84541234  1
  N  N51  1  0.76746024  0.44931171  0.58727878  1
  N  N52  1  0.55402496  0.53958262  0.33883023  1
  N  N53  1  0.46531885  0.41575056  0.08834556  1
  N  N54  1  0.22348915  0.53962118  0.85366432  1
  N  N55  1  0.08981466  0.43882446  0.59568136  1
  N  N56  1  0.88514349  0.54581504  0.35208879  1
  N  N57  1  0.76841656  0.42308374  0.09880324  1
  N  N58  1  0.55567059  0.54139796  0.84321558  1
  N  N59  1  0.46749416  0.41756062  0.59385057  1
  N  N60  1  0.22738772  0.86841000  0.34101965  1
  N  N61  1  0.09843619  0.77795611  0.10335169  1
  N  N62  1  0.89986226  0.85295677  0.83960203  1
  N  N63  1  0.77283380  0.76404822  0.59583326  1
  N  N64  1  0.55803788  0.87040830  0.33556630  1
  N  N65  1  0.44800942  0.75833875  0.09705211  1
  N  N66  1  0.23296564  0.85077416  0.85770259  1
  N  N67  1  0.09030865  0.77019039  0.57953845  1
  N  N68  1  0.88272204  0.87227872  0.34252011  1
  N  N69  1  0.76631001  0.78253332  0.08579315  1
  N  N70  1  0.55149751  0.87521758  0.84581500  1
  N  N71  1  0.46572619  0.75227400  0.58588687  1
