# generated using pymatgen
data_Sc2Al7N9
_symmetry_space_group_name_H-M   'P 1'
_cell_length_a   9.71287825
_cell_length_b   9.71936127
_cell_length_c   10.16719855
_cell_angle_alpha   90.02387033
_cell_angle_beta   90.02413450
_cell_angle_gamma   60.15854195
_symmetry_Int_Tables_number   1
_chemical_formula_structural   Sc2Al7N9
_chemical_formula_sum   'Sc8 Al28 N36'
_cell_volume   832.54776415
_cell_formula_units_Z   4
loop_
 _symmetry_equiv_pos_site_id
 _symmetry_equiv_pos_as_xyz
  1  'x, y, z'
loop_
 _atom_site_type_symbol
 _atom_site_label
 _atom_site_symmetry_multiplicity
 _atom_site_fract_x
 _atom_site_fract_y
 _atom_site_fract_z
 _atom_site_occupancy
  Al  Al0  1  0.11241903  0.09344600  0.39514957  1
  Al  Al1  1  0.22758263  0.20204596  0.16568429  1
  Al  Al2  1  0.45113135  0.09003049  0.40428182  1
  Al  Al3  1  0.55807857  0.20352540  0.16081121  1
  Al  Al4  1  0.77340379  0.09004328  0.40566805  1
  Al  Al5  1  0.88270922  0.20723704  0.16911186  1
  Al  Al6  1  0.44268575  0.09671656  0.90920522  1
  Al  Al7  1  0.55796777  0.19984763  0.65247797  1
  Al  Al8  1  0.10561751  0.43234481  0.40839187  1
  Al  Al9  1  0.77167719  0.43089506  0.90654080  1
  Al  Al10  1  0.88004138  0.54801618  0.65877308  1
  Al  Al11  1  0.45134037  0.42467832  0.40741030  1
  Al  Al12  1  0.55794558  0.53487487  0.15624363  1
  Al  Al13  1  0.11244994  0.42544921  0.90940699  1
  Al  Al14  1  0.77272229  0.43730388  0.40793496  1
  Al  Al15  1  0.44772289  0.42641235  0.90719048  1
  Al  Al16  1  0.56073109  0.54087209  0.65597829  1
  Al  Al17  1  0.10644642  0.76172712  0.40433137  1
  Al  Al18  1  0.22337895  0.87185587  0.16352511  1
  Al  Al19  1  0.77493788  0.76424056  0.90321302  1
  Al  Al20  1  0.88386391  0.86734964  0.65291988  1
  Al  Al21  1  0.45135050  0.75737057  0.40301030  1
  Al  Al22  1  0.55374113  0.87672767  0.15532216  1
  Al  Al23  1  0.10961662  0.76053201  0.91173432  1
  Al  Al24  1  0.77599073  0.76170255  0.41018197  1
  Al  Al25  1  0.88301372  0.88016373  0.16078735  1
  Al  Al26  1  0.44752614  0.75723101  0.90953819  1
  Al  Al27  1  0.56162539  0.86882921  0.65491126  1
  Sc  Sc28  1  0.77323094  0.09280526  0.90578168  1
  Sc  Sc29  1  0.88024952  0.21176379  0.63849642  1
  Sc  Sc30  1  0.11143275  0.09517013  0.91825226  1
  Sc  Sc31  1  0.22759675  0.20549384  0.64634468  1
  Sc  Sc32  1  0.22678651  0.53823489  0.14878737  1
  Sc  Sc33  1  0.22375930  0.53917475  0.65512579  1
  Sc  Sc34  1  0.88209293  0.54388543  0.14722051  1
  Sc  Sc35  1  0.22722523  0.86637600  0.64758750  1
  N  N36  1  0.22611893  0.20791226  0.35576165  1
  N  N37  1  0.10992129  0.09546155  0.12935490  1
  N  N38  1  0.88073324  0.22113000  0.84663821  1
  N  N39  1  0.76888593  0.07970584  0.59496273  1
  N  N40  1  0.55419848  0.20596400  0.34843309  1
  N  N41  1  0.44420126  0.09524959  0.10122431  1
  N  N42  1  0.22935626  0.21175798  0.85426600  1
  N  N43  1  0.11285845  0.09264973  0.58080171  1
  N  N44  1  0.88207469  0.21033144  0.36072263  1
  N  N45  1  0.77712873  0.09645211  0.11571548  1
  N  N46  1  0.53616264  0.21458617  0.84107014  1
  N  N47  1  0.46602483  0.08027954  0.58994486  1
  N  N48  1  0.22556823  0.53671600  0.36288891  1
  N  N49  1  0.11903843  0.40737102  0.09561660  1
  N  N50  1  0.88596740  0.54068236  0.85598664  1
  N  N51  1  0.76763329  0.45220602  0.59377430  1
  N  N52  1  0.55598389  0.53858446  0.34469924  1
  N  N53  1  0.46634860  0.41436547  0.09460601  1
  N  N54  1  0.22272153  0.53941961  0.87196024  1
  N  N55  1  0.08868807  0.44148721  0.59457622  1
  N  N56  1  0.88655526  0.54264471  0.35476653  1
  N  N57  1  0.76978976  0.41656223  0.09558329  1
  N  N58  1  0.55431920  0.54065126  0.84725443  1
  N  N59  1  0.46878202  0.41654715  0.59491233  1
  N  N60  1  0.22662042  0.86584904  0.35308780  1
  N  N61  1  0.09734626  0.78432021  0.09984853  1
  N  N62  1  0.89928431  0.85286317  0.84091198  1
  N  N63  1  0.77551583  0.76100711  0.59960898  1
  N  N64  1  0.55760977  0.87102535  0.34459664  1
  N  N65  1  0.44625066  0.75940689  0.10105345  1
  N  N66  1  0.23107955  0.85511189  0.85712511  1
  N  N67  1  0.09102103  0.76887026  0.58818178  1
  N  N68  1  0.88649095  0.87018707  0.34853308  1
  N  N69  1  0.76568579  0.78660520  0.09033674  1
  N  N70  1  0.55240518  0.87433364  0.84768299  1
  N  N71  1  0.46566488  0.75161847  0.59052045  1
