# generated using pymatgen
data_Sc2Al7N9
_symmetry_space_group_name_H-M   'P 1'
_cell_length_a   9.84747357
_cell_length_b   9.85036955
_cell_length_c   9.79176257
_cell_angle_alpha   90.00484062
_cell_angle_beta   89.89618207
_cell_angle_gamma   60.28403344
_symmetry_Int_Tables_number   1
_chemical_formula_structural   Sc2Al7N9
_chemical_formula_sum   'Sc8 Al28 N36'
_cell_volume   824.90466444
_cell_formula_units_Z   4
loop_
 _symmetry_equiv_pos_site_id
 _symmetry_equiv_pos_as_xyz
  1  'x, y, z'
loop_
 _atom_site_type_symbol
 _atom_site_label
 _atom_site_symmetry_multiplicity
 _atom_site_fract_x
 _atom_site_fract_y
 _atom_site_fract_z
 _atom_site_occupancy
  Al  Al0  1  0.11249331  0.09335885  0.31320532  1
  Al  Al1  1  0.23130399  0.20349962  0.07537893  1
  Al  Al2  1  0.44503561  0.09151832  0.32450684  1
  Al  Al3  1  0.55246614  0.20631605  0.08152096  1
  Al  Al4  1  0.77744775  0.09224555  0.31957464  1
  Al  Al5  1  0.87923415  0.21247126  0.08060479  1
  Al  Al6  1  0.44899679  0.09497772  0.82814587  1
  Al  Al7  1  0.56275537  0.19768168  0.57223439  1
  Al  Al8  1  0.11305586  0.42287233  0.32630362  1
  Al  Al9  1  0.77120776  0.44044989  0.82392962  1
  Al  Al10  1  0.87945039  0.54908419  0.57103755  1
  Al  Al11  1  0.45122702  0.42538551  0.32805039  1
  Al  Al12  1  0.55771001  0.53571495  0.07581165  1
  Al  Al13  1  0.10396312  0.43405161  0.82527929  1
  Al  Al14  1  0.77260618  0.42805790  0.32704445  1
  Al  Al15  1  0.45054678  0.42510487  0.82454521  1
  Al  Al16  1  0.56082326  0.54102049  0.57630038  1
  Al  Al17  1  0.10664034  0.76722835  0.32465339  1
  Al  Al18  1  0.22722024  0.86505505  0.07871512  1
  Al  Al19  1  0.77863246  0.75754191  0.82284165  1
  Al  Al20  1  0.88059293  0.87297015  0.57326242  1
  Al  Al21  1  0.44675261  0.76075681  0.32305358  1
  Al  Al22  1  0.55383151  0.87646777  0.07602299  1
  Al  Al23  1  0.10880887  0.75546881  0.82761700  1
  Al  Al24  1  0.77085333  0.77012633  0.32923518  1
  Al  Al25  1  0.88622237  0.87287273  0.08030970  1
  Al  Al26  1  0.45294764  0.75401579  0.83057237  1
  Al  Al27  1  0.56171420  0.86911189  0.57834894  1
  Sc  Sc28  1  0.77185897  0.09009083  0.84294507  1
  Sc  Sc29  1  0.88130593  0.20954460  0.58224406  1
  Sc  Sc30  1  0.11209194  0.09340338  0.85509753  1
  Sc  Sc31  1  0.22645563  0.20444070  0.58665479  1
  Sc  Sc32  1  0.22794257  0.53816905  0.08473610  1
  Sc  Sc33  1  0.22409631  0.53837945  0.58741236  1
  Sc  Sc34  1  0.88281311  0.54371401  0.09139761  1
  Sc  Sc35  1  0.22705478  0.86792174  0.58422955  1
  N  N36  1  0.22302094  0.20140997  0.36792843  1
  N  N37  1  0.11321802  0.09305344  0.11036177  1
  N  N38  1  0.87064328  0.23115540  0.88278758  1
  N  N39  1  0.76992407  0.08211024  0.62656365  1
  N  N40  1  0.55668862  0.20285679  0.37491788  1
  N  N41  1  0.44522062  0.09227719  0.12994064  1
  N  N42  1  0.23290302  0.21781954  0.87645806  1
  N  N43  1  0.10899622  0.09380404  0.64163552  1
  N  N44  1  0.89080922  0.20267665  0.36111064  1
  N  N45  1  0.77574769  0.09335339  0.11961829  1
  N  N46  1  0.53468178  0.21776302  0.88922748  1
  N  N47  1  0.46655006  0.08271755  0.63381083  1
  N  N48  1  0.22348315  0.53978477  0.36218056  1
  N  N49  1  0.12021936  0.40939480  0.13352261  1
  N  N50  1  0.88503920  0.54274627  0.87459171  1
  N  N51  1  0.76945562  0.44922377  0.62833080  1
  N  N52  1  0.55389835  0.54224421  0.38106967  1
  N  N53  1  0.46493529  0.41794085  0.13531980  1
  N  N54  1  0.22621187  0.53563857  0.85851738  1
  N  N55  1  0.08666608  0.44001394  0.62993725  1
  N  N56  1  0.88595795  0.54220033  0.36919194  1
  N  N57  1  0.76565203  0.42225095  0.13568952  1
  N  N58  1  0.55629036  0.53848291  0.88137926  1
  N  N59  1  0.47205419  0.41294968  0.62881909  1
  N  N60  1  0.22359521  0.87398264  0.36405791  1
  N  N61  1  0.09922951  0.78036355  0.13232633  1
  N  N62  1  0.89883592  0.84721124  0.88802149  1
  N  N63  1  0.77641253  0.76224130  0.62530243  1
  N  N64  1  0.55221812  0.87364789  0.38165211  1
  N  N65  1  0.44866230  0.75835800  0.12744921  1
  N  N66  1  0.23616488  0.84452100  0.88088938  1
  N  N67  1  0.08753395  0.77245071  0.63360617  1
  N  N68  1  0.88702839  0.87441607  0.37700737  1
  N  N69  1  0.76269727  0.78538200  0.13771317  1
  N  N70  1  0.55702904  0.87311870  0.88075935  1
  N  N71  1  0.46569172  0.75164079  0.63614860  1
