# generated using pymatgen
data_Sc2Al7N9
_symmetry_space_group_name_H-M   'P 1'
_cell_length_a   10.05591104
_cell_length_b   10.05132669
_cell_length_c   9.19175682
_cell_angle_alpha   90.03625726
_cell_angle_beta   90.04297775
_cell_angle_gamma   60.31919224
_symmetry_Int_Tables_number   1
_chemical_formula_structural   Sc2Al7N9
_chemical_formula_sum   'Sc8 Al28 N36'
_cell_volume   807.16388566
_cell_formula_units_Z   4
loop_
 _symmetry_equiv_pos_site_id
 _symmetry_equiv_pos_as_xyz
  1  'x, y, z'
loop_
 _atom_site_type_symbol
 _atom_site_label
 _atom_site_symmetry_multiplicity
 _atom_site_fract_x
 _atom_site_fract_y
 _atom_site_fract_z
 _atom_site_occupancy
  Al  Al0  1  0.11205148  0.09292056  0.35837790  1
  Al  Al1  1  0.22736649  0.20094489  0.12847302  1
  Al  Al2  1  0.45412025  0.08763088  0.36679915  1
  Al  Al3  1  0.55881254  0.20455961  0.12668615  1
  Al  Al4  1  0.77321932  0.09020661  0.37016539  1
  Al  Al5  1  0.88317163  0.20664310  0.12826433  1
  Al  Al6  1  0.44297005  0.09681886  0.88036293  1
  Al  Al7  1  0.55673001  0.19983710  0.62014162  1
  Al  Al8  1  0.10307800  0.43262007  0.37031187  1
  Al  Al9  1  0.77049813  0.43263647  0.87696499  1
  Al  Al10  1  0.87849562  0.54881676  0.62516321  1
  Al  Al11  1  0.45436980  0.42349451  0.37640893  1
  Al  Al12  1  0.55673214  0.53502780  0.12381099  1
  Al  Al13  1  0.11315537  0.42529005  0.87258916  1
  Al  Al14  1  0.77144685  0.43930833  0.36893341  1
  Al  Al15  1  0.44920953  0.42553415  0.86975176  1
  Al  Al16  1  0.56132324  0.54204785  0.62510200  1
  Al  Al17  1  0.10330831  0.76413355  0.36198601  1
  Al  Al18  1  0.22435324  0.87147900  0.12523447  1
  Al  Al19  1  0.77454418  0.76540024  0.86933079  1
  Al  Al20  1  0.88470850  0.86692696  0.62034206  1
  Al  Al21  1  0.45393039  0.75686163  0.36712466  1
  Al  Al22  1  0.55525373  0.87527238  0.12111249  1
  Al  Al23  1  0.11025588  0.75861331  0.88181835  1
  Al  Al24  1  0.77354906  0.76349052  0.37829074  1
  Al  Al25  1  0.88066051  0.87994312  0.12728871  1
  Al  Al26  1  0.44751245  0.75685451  0.87932238  1
  Al  Al27  1  0.55980651  0.86993456  0.62611358  1
  Sc  Sc28  1  0.77407826  0.09159180  0.86113458  1
  Sc  Sc29  1  0.87834879  0.21591691  0.60074539  1
  Sc  Sc30  1  0.11250659  0.09366978  0.86581720  1
  Sc  Sc31  1  0.23069955  0.20641068  0.60393429  1
  Sc  Sc32  1  0.23056550  0.53436576  0.11241797  1
  Sc  Sc33  1  0.22182420  0.54069189  0.60933626  1
  Sc  Sc34  1  0.88360250  0.54511159  0.10724897  1
  Sc  Sc35  1  0.22957693  0.86128543  0.60485103  1
  N  N36  1  0.22553934  0.20616371  0.34257267  1
  N  N37  1  0.11068940  0.09402239  0.10897601  1
  N  N38  1  0.87759433  0.22474632  0.83797203  1
  N  N39  1  0.76926437  0.08152822  0.58788760  1
  N  N40  1  0.55554727  0.20653788  0.33472489  1
  N  N41  1  0.44509895  0.09467091  0.09169672  1
  N  N42  1  0.23219677  0.21194551  0.84075173  1
  N  N43  1  0.11206017  0.09247377  0.58574674  1
  N  N44  1  0.88409964  0.20880494  0.34396683  1
  N  N45  1  0.77673732  0.09510251  0.09801707  1
  N  N46  1  0.53646239  0.21290476  0.83022673  1
  N  N47  1  0.46800533  0.07866678  0.57401616  1
  N  N48  1  0.22809748  0.53431032  0.34935185  1
  N  N49  1  0.11940349  0.40872995  0.08642352  1
  N  N50  1  0.88488611  0.54159744  0.84360940  1
  N  N51  1  0.76667078  0.45294668  0.57776184  1
  N  N52  1  0.55444622  0.53911497  0.33038111  1
  N  N53  1  0.46673183  0.41452003  0.07964497  1
  N  N54  1  0.22343919  0.53952207  0.85235364  1
  N  N55  1  0.08657633  0.44140361  0.58306621  1
  N  N56  1  0.88472485  0.54636069  0.33828508  1
  N  N57  1  0.76896143  0.41992663  0.08846615  1
  N  N58  1  0.55555861  0.54168051  0.83535788  1
  N  N59  1  0.46917676  0.41691111  0.58543892  1
  N  N60  1  0.22758077  0.86784009  0.33952627  1
  N  N61  1  0.09821977  0.77969373  0.09586171  1
  N  N62  1  0.90163938  0.85111322  0.83022665  1
  N  N63  1  0.77338956  0.76273330  0.58873237  1
  N  N64  1  0.55889568  0.86992105  0.32831465  1
  N  N65  1  0.44684219  0.75878571  0.08950777  1
  N  N66  1  0.23292334  0.85031378  0.84567650  1
  N  N67  1  0.08879878  0.77003438  0.56991240  1
  N  N68  1  0.88194720  0.87255625  0.33470475  1
  N  N69  1  0.76519116  0.78551169  0.07630424  1
  N  N70  1  0.55072745  0.87558748  0.83730477  1
  N  N71  1  0.46748149  0.75134155  0.57673692  1
