
#======================================================================
# CRYSTAL DATA
#----------------------------------------------------------------------
data_VESTA_phase_1

_chemical_name_common                  'Al   Hf   Mg   N                      '
_cell_length_a                         9.747128
_cell_length_b                         9.747128
_cell_length_c                         9.461225
_cell_angle_alpha                      90.009758
_cell_angle_beta                       90.009758
_cell_angle_gamma                      59.974316
_cell_volume                           778.249583
_space_group_name_H-M_alt              'P 1'
_space_group_IT_number                 1

loop_
_space_group_symop_operation_xyz
   'x, y, z'

loop_
   _atom_site_label
   _atom_site_occupancy
   _atom_site_fract_x
   _atom_site_fract_y
   _atom_site_fract_z
   _atom_site_adp_type
   _atom_site_U_iso_or_equiv
   _atom_site_type_symbol
   Al1        1.0     0.109676     0.098821     0.379948    Uiso  ? Al
   Al2        1.0     0.220330     0.206270     0.129606    Uiso  ? Al
   Al3        1.0     0.891941     0.208608     0.618463    Uiso  ? Al
   Al4        1.0     0.441808     0.098104     0.379462    Uiso  ? Al
   Al5        1.0     0.551815     0.208050     0.137218    Uiso  ? Al
   Al6        1.0     0.114624     0.098231     0.877631    Uiso  ? Al
   Al7        1.0     0.221553     0.206702     0.627235    Uiso  ? Al
   Al8        1.0     0.891683     0.208350     0.135384    Uiso  ? Al
   Al9        1.0     0.437352     0.098962     0.877578    Uiso  ? Al
   Al10       1.0     0.550126     0.208177     0.616206    Uiso  ? Al
   Al11       1.0     0.111747     0.428414     0.374965    Uiso  ? Al
   Al12       1.0     0.781564     0.431291     0.877631    Uiso  ? Al
   Al13       1.0     0.890036     0.538220     0.627235    Uiso  ? Al
   Al14       1.0     0.440846     0.426711     0.379492    Uiso  ? Al
   Al15       1.0     0.562782     0.526193     0.119360    Uiso  ? Al
   Al16       1.0     0.110401     0.427067     0.881728    Uiso  ? Al
   Al17       1.0     0.221768     0.538434     0.622804    Uiso  ? Al
   Al18       1.0     0.782155     0.426343     0.379948    Uiso  ? Al
   Al19       1.0     0.889604     0.536996     0.129606    Uiso  ? Al
   Al20       1.0     0.439251     0.429368     0.878117    Uiso  ? Al
   Al21       1.0     0.556476     0.537601     0.633440    Uiso  ? Al
   Al22       1.0     0.110045     0.757512     0.379492    Uiso  ? Al
   Al23       1.0     0.209526     0.879449     0.119360    Uiso  ? Al
   Al24       1.0     0.782296     0.754019     0.877578    Uiso  ? Al
   Al25       1.0     0.891510     0.866793     0.616206    Uiso  ? Al
   Al26       1.0     0.560780     0.877446     0.117948    Uiso  ? Al
   Al27       1.0     0.112701     0.755918     0.878117    Uiso  ? Al
   Al28       1.0     0.220934     0.873143     0.633440    Uiso  ? Al
   Al29       1.0     0.781438     0.758474     0.379462    Uiso  ? Al
   Al30       1.0     0.891383     0.868481     0.137218    Uiso  ? Al
   Al31       1.0     0.444155     0.760822     0.883981    Uiso  ? Al
   Al32       1.0     0.556021     0.872688     0.634408    Uiso  ? Al
   Hf1        1.0     0.777463     0.094130     0.860600    Uiso  ? Hf
   Hf2        1.0     0.444384     0.761051     0.357322    Uiso  ? Hf
   Mg1        1.0     0.778327     0.094993     0.372702    Uiso  ? Mg
   Mg2        1.0     0.222200     0.538867     0.124120    Uiso  ? Mg
   N1         1.0     0.223477     0.203169     0.331632    Uiso  ? N
   N2         1.0     0.109949     0.097443     0.078006    Uiso  ? N
   N3         1.0     0.898817     0.215484     0.823945    Uiso  ? N
   N4         1.0     0.778293     0.094960     0.602336    Uiso  ? N
   N5         1.0     0.540367     0.212587     0.337386    Uiso  ? N
   N6         1.0     0.442722     0.097702     0.078419    Uiso  ? N
   N7         1.0     0.221693     0.207041     0.827998    Uiso  ? N
   N8         1.0     0.114828     0.091873     0.581464    Uiso  ? N
   N9         1.0     0.897128     0.213795     0.334861    Uiso  ? N
   N10        1.0     0.777438     0.094105     0.090079    Uiso  ? N
   N11        1.0     0.536209     0.213791     0.821107    Uiso  ? N
   N12        1.0     0.443429     0.090625     0.581043    Uiso  ? N
   N13        1.0     0.222854     0.539521     0.344261    Uiso  ? N
   N14        1.0     0.103467     0.420134     0.080913    Uiso  ? N
   N15        1.0     0.890374     0.538360     0.827998    Uiso  ? N
   N16        1.0     0.775206     0.431495     0.581464    Uiso  ? N
   N17        1.0     0.565918     0.519359     0.324493    Uiso  ? N
   N18        1.0     0.458942     0.417257     0.075208    Uiso  ? N
   N19        1.0     0.221008     0.537674     0.829261    Uiso  ? N
   N20        1.0     0.109934     0.426601     0.578599    Uiso  ? N
   N21        1.0     0.886502     0.540144     0.331632    Uiso  ? N
   N22        1.0     0.780776     0.426616     0.078006    Uiso  ? N
   N23        1.0     0.555980     0.540178     0.835275    Uiso  ? N
   N24        1.0     0.445649     0.430960     0.582406    Uiso  ? N
   N25        1.0     0.202692     0.882585     0.324493    Uiso  ? N
   N26        1.0     0.100590     0.775609     0.075208    Uiso  ? N
   N27        1.0     0.897124     0.852876     0.821107    Uiso  ? N
   N28        1.0     0.773958     0.760096     0.581043    Uiso  ? N
   N29        1.0     0.565248     0.881914     0.322500    Uiso  ? N
   N30        1.0     0.444325     0.760991     0.092497    Uiso  ? N
   N31        1.0     0.223512     0.872647     0.835275    Uiso  ? N
   N32        1.0     0.114293     0.762315     0.582406    Uiso  ? N
   N33        1.0     0.895920     0.857034     0.337386    Uiso  ? N
   N34        1.0     0.781035     0.759389     0.078419    Uiso  ? N
   N35        1.0     0.555365     0.872032     0.837571    Uiso  ? N
   N36        1.0     0.444709     0.761375     0.583218    Uiso  ? N
