
#======================================================================
# CRYSTAL DATA
#----------------------------------------------------------------------
data_VESTA_phase_1

_chemical_name_common                  'Al   Hf   Mg   N                      '
_cell_length_a                         9.748479
_cell_length_b                         9.748479
_cell_length_c                         9.461981
_cell_angle_alpha                      89.993683
_cell_angle_beta                       89.993683
_cell_angle_gamma                      59.941692
_cell_volume                           778.271155
_space_group_name_H-M_alt              'P 1'
_space_group_IT_number                 1

loop_
_space_group_symop_operation_xyz
   'x, y, z'

loop_
   _atom_site_label
   _atom_site_occupancy
   _atom_site_fract_x
   _atom_site_fract_y
   _atom_site_fract_z
   _atom_site_adp_type
   _atom_site_U_iso_or_equiv
   _atom_site_type_symbol
   Al1        1.0     0.110762     0.098174     0.327765    Uiso  ? Al
   Al2        1.0     0.220184     0.206487     0.079597    Uiso  ? Al
   Al3        1.0     0.891515     0.208182     0.570441    Uiso  ? Al
   Al4        1.0     0.441401     0.098890     0.328129    Uiso  ? Al
   Al5        1.0     0.551086     0.208520     0.090118    Uiso  ? Al
   Al6        1.0     0.113772     0.098826     0.830325    Uiso  ? Al
   Al7        1.0     0.221756     0.206213     0.579376    Uiso  ? Al
   Al8        1.0     0.892227     0.208894     0.091894    Uiso  ? Al
   Al9        1.0     0.437962     0.098088     0.830563    Uiso  ? Al
   Al10       1.0     0.550409     0.208410     0.571762    Uiso  ? Al
   Al11       1.0     0.110115     0.426781     0.330234    Uiso  ? Al
   Al12       1.0     0.782159     0.430438     0.830325    Uiso  ? Al
   Al13       1.0     0.889547     0.538422     0.579376    Uiso  ? Al
   Al14       1.0     0.443158     0.425571     0.326140    Uiso  ? Al
   Al15       1.0     0.557831     0.536205     0.073440    Uiso  ? Al
   Al16       1.0     0.111586     0.428253     0.829047    Uiso  ? Al
   Al17       1.0     0.221928     0.538594     0.583675    Uiso  ? Al
   Al18       1.0     0.781508     0.427428     0.327765    Uiso  ? Al
   Al19       1.0     0.889820     0.536851     0.079597    Uiso  ? Al
   Al20       1.0     0.436892     0.430689     0.832131    Uiso  ? Al
   Al21       1.0     0.561021     0.528017     0.589964    Uiso  ? Al
   Al22       1.0     0.108905     0.759825     0.326140    Uiso  ? Al
   Al23       1.0     0.219539     0.874498     0.073440    Uiso  ? Al
   Al24       1.0     0.781421     0.754629     0.830563    Uiso  ? Al
   Al25       1.0     0.891744     0.867076     0.571762    Uiso  ? Al
   Al26       1.0     0.556267     0.872934     0.074463    Uiso  ? Al
   Al27       1.0     0.114022     0.753558     0.832131    Uiso  ? Al
   Al28       1.0     0.211350     0.877688     0.589964    Uiso  ? Al
   Al29       1.0     0.782223     0.758068     0.328129    Uiso  ? Al
   Al30       1.0     0.891853     0.867753     0.090118    Uiso  ? Al
   Al31       1.0     0.444610     0.761277     0.824308    Uiso  ? Al
   Al32       1.0     0.560764     0.877430     0.588396    Uiso  ? Al
   Hf1        1.0     0.778175     0.094841     0.848983    Uiso  ? Hf
   Hf2        1.0     0.444092     0.760759     0.349071    Uiso  ? Hf
   Mg1        1.0     0.777614     0.094280     0.334521    Uiso  ? Mg
   Mg2        1.0     0.221005     0.537671     0.085337    Uiso  ? Mg
   N1         1.0     0.223821     0.202754     0.378955    Uiso  ? N
   N2         1.0     0.116188     0.091123     0.126390    Uiso  ? N
   N3         1.0     0.899273     0.215940     0.885509    Uiso  ? N
   N4         1.0     0.778184     0.094850     0.618611    Uiso  ? N
   N5         1.0     0.539876     0.212545     0.373436    Uiso  ? N
   N6         1.0     0.443236     0.091620     0.126196    Uiso  ? N
   N7         1.0     0.221633     0.206988     0.877427    Uiso  ? N
   N8         1.0     0.108868     0.098105     0.629855    Uiso  ? N
   N9         1.0     0.896964     0.213631     0.371014    Uiso  ? N
   N10        1.0     0.777925     0.094592     0.104462    Uiso  ? N
   N11        1.0     0.536484     0.213976     0.883676    Uiso  ? N
   N12        1.0     0.443224     0.097101     0.630073    Uiso  ? N
   N13        1.0     0.222832     0.539499     0.377292    Uiso  ? N
   N14        1.0     0.102657     0.419324     0.131647    Uiso  ? N
   N15        1.0     0.890321     0.538299     0.877427    Uiso  ? N
   N16        1.0     0.781438     0.425534     0.629855    Uiso  ? N
   N17        1.0     0.565665     0.519732     0.386332    Uiso  ? N
   N18        1.0     0.458468     0.424578     0.127492    Uiso  ? N
   N19        1.0     0.220760     0.537426     0.865784    Uiso  ? N
   N20        1.0     0.110016     0.426683     0.625259    Uiso  ? N
   N21        1.0     0.886088     0.540488     0.378955    Uiso  ? N
   N22        1.0     0.774456     0.432855     0.126390    Uiso  ? N
   N23        1.0     0.556211     0.539496     0.869672    Uiso  ? N
   N24        1.0     0.445221     0.424902     0.630103    Uiso  ? N
   N25        1.0     0.203065     0.882332     0.386332    Uiso  ? N
   N26        1.0     0.107912     0.775134     0.127492    Uiso  ? N
   N27        1.0     0.897309     0.853150     0.883676    Uiso  ? N
   N28        1.0     0.780434     0.759891     0.630073    Uiso  ? N
   N29        1.0     0.565037     0.881704     0.384295    Uiso  ? N
   N30        1.0     0.444606     0.761272     0.123323    Uiso  ? N
   N31        1.0     0.222830     0.872878     0.869672    Uiso  ? N
   N32        1.0     0.108235     0.761887     0.630103    Uiso  ? N
   N33        1.0     0.895878     0.856543     0.373436    Uiso  ? N
   N34        1.0     0.774953     0.759903     0.126196    Uiso  ? N
   N35        1.0     0.555405     0.872072     0.871291    Uiso  ? N
   N36        1.0     0.444737     0.761404     0.616167    Uiso  ? N
