
#======================================================================
# CRYSTAL DATA
#----------------------------------------------------------------------
data_VESTA_phase_1

_chemical_name_common                  'Al   Hf   Mg   N                      '
_cell_length_a                         9.598017
_cell_length_b                         9.598017
_cell_length_c                         9.896148
_cell_angle_alpha                      90.002075
_cell_angle_beta                       90.002075
_cell_angle_gamma                      59.954498
_cell_volume                           789.151703
_space_group_name_H-M_alt              'P 1'
_space_group_IT_number                 1

loop_
_space_group_symop_operation_xyz
   'x, y, z'

loop_
   _atom_site_label
   _atom_site_occupancy
   _atom_site_fract_x
   _atom_site_fract_y
   _atom_site_fract_z
   _atom_site_adp_type
   _atom_site_U_iso_or_equiv
   _atom_site_type_symbol
   Al1        1.0     0.108035     0.100029     0.324825    Uiso  ? Al
   Al2        1.0     0.220104     0.206982     0.076726    Uiso  ? Al
   Al3        1.0     0.891014     0.207680     0.570493    Uiso  ? Al
   Al4        1.0     0.442253     0.100390     0.325410    Uiso  ? Al
   Al5        1.0     0.549620     0.209823     0.080651    Uiso  ? Al
   Al6        1.0     0.115769     0.097143     0.825664    Uiso  ? Al
   Al7        1.0     0.221889     0.205958     0.574930    Uiso  ? Al
   Al8        1.0     0.892631     0.209298     0.081434    Uiso  ? Al
   Al9        1.0     0.437418     0.096996     0.825855    Uiso  ? Al
   Al10       1.0     0.551719     0.207361     0.571244    Uiso  ? Al
   Al11       1.0     0.110047     0.426714     0.326101    Uiso  ? Al
   Al12       1.0     0.780476     0.432435     0.825664    Uiso  ? Al
   Al13       1.0     0.889292     0.538555     0.574930    Uiso  ? Al
   Al14       1.0     0.444355     0.422734     0.324681    Uiso  ? Al
   Al15       1.0     0.557965     0.534487     0.072068    Uiso  ? Al
   Al16       1.0     0.111830     0.428497     0.824837    Uiso  ? Al
   Al17       1.0     0.221866     0.538532     0.576182    Uiso  ? Al
   Al18       1.0     0.783363     0.424702     0.324825    Uiso  ? Al
   Al19       1.0     0.890315     0.536771     0.076726    Uiso  ? Al
   Al20       1.0     0.436262     0.432713     0.824762    Uiso  ? Al
   Al21       1.0     0.560211     0.530274     0.582016    Uiso  ? Al
   Al22       1.0     0.106067     0.761022     0.324681    Uiso  ? Al
   Al23       1.0     0.217821     0.874631     0.072068    Uiso  ? Al
   Al24       1.0     0.780329     0.754085     0.825855    Uiso  ? Al
   Al25       1.0     0.890694     0.868386     0.571244    Uiso  ? Al
   Al26       1.0     0.556917     0.873584     0.072193    Uiso  ? Al
   Al27       1.0     0.116046     0.752929     0.824762    Uiso  ? Al
   Al28       1.0     0.213608     0.876878     0.582016    Uiso  ? Al
   Al29       1.0     0.783724     0.758919     0.325410    Uiso  ? Al
   Al30       1.0     0.893156     0.866287     0.080651    Uiso  ? Al
   Al31       1.0     0.444335     0.761001     0.821886    Uiso  ? Al
   Al32       1.0     0.559668     0.876335     0.581535    Uiso  ? Al
   Hf1        1.0     0.778083     0.094750     0.843998    Uiso  ? Hf
   Hf2        1.0     0.444072     0.760739     0.338049    Uiso  ? Hf
   Mg1        1.0     0.777661     0.094328     0.324065    Uiso  ? Mg
   Mg2        1.0     0.221495     0.538161     0.079864    Uiso  ? Mg
   N1         1.0     0.223656     0.202973     0.382780    Uiso  ? N
   N2         1.0     0.114528     0.092357     0.131582    Uiso  ? N
   N3         1.0     0.900157     0.216824     0.886548    Uiso  ? N
   N4         1.0     0.778091     0.094758     0.627073    Uiso  ? N
   N5         1.0     0.541846     0.211279     0.382865    Uiso  ? N
   N6         1.0     0.443677     0.092784     0.131554    Uiso  ? N
   N7         1.0     0.221629     0.206868     0.882517    Uiso  ? N
   N8         1.0     0.110265     0.096756     0.633912    Uiso  ? N
   N9         1.0     0.896101     0.212768     0.380958    Uiso  ? N
   N10        1.0     0.777880     0.094546     0.101900    Uiso  ? N
   N11        1.0     0.534173     0.215856     0.885340    Uiso  ? N
   N12        1.0     0.443169     0.095944     0.634066    Uiso  ? N
   N13        1.0     0.222673     0.539340     0.380804    Uiso  ? N
   N14        1.0     0.102938     0.419605     0.136657    Uiso  ? N
   N15        1.0     0.890201     0.538295     0.882517    Uiso  ? N
   N16        1.0     0.780089     0.426932     0.633912    Uiso  ? N
   N17        1.0     0.565782     0.520254     0.388945    Uiso  ? N
   N18        1.0     0.458963     0.422959     0.135423    Uiso  ? N
   N19        1.0     0.221149     0.537816     0.870890    Uiso  ? N
   N20        1.0     0.110224     0.426891     0.629641    Uiso  ? N
   N21        1.0     0.886306     0.540323     0.382780    Uiso  ? N
   N22        1.0     0.775690     0.431195     0.131582    Uiso  ? N
   N23        1.0     0.555981     0.538720     0.877020    Uiso  ? N
   N24        1.0     0.444831     0.426358     0.632312    Uiso  ? N
   N25        1.0     0.203587     0.882448     0.388945    Uiso  ? N
   N26        1.0     0.106292     0.775630     0.135423    Uiso  ? N
   N27        1.0     0.899189     0.850840     0.885340    Uiso  ? N
   N28        1.0     0.779277     0.759836     0.634066    Uiso  ? N
   N29        1.0     0.564735     0.881402     0.387403    Uiso  ? N
   N30        1.0     0.444625     0.761292     0.125687    Uiso  ? N
   N31        1.0     0.222054     0.872648     0.877020    Uiso  ? N
   N32        1.0     0.109691     0.761497     0.632312    Uiso  ? N
   N33        1.0     0.894613     0.858513     0.382865    Uiso  ? N
   N34        1.0     0.776118     0.760344     0.131554    Uiso  ? N
   N35        1.0     0.555557     0.872224     0.877947    Uiso  ? N
   N36        1.0     0.444584     0.761250     0.622269    Uiso  ? N
