
#======================================================================
# CRYSTAL DATA
#----------------------------------------------------------------------
data_VESTA_phase_1

_chemical_name_common                  'Al   Hf   Mg   N                      '
_cell_length_a                         9.528664
_cell_length_b                         9.528664
_cell_length_c                         10.080002
_cell_angle_alpha                      90.017609
_cell_angle_beta                       90.017609
_cell_angle_gamma                      59.972954
_cell_volume                           792.385981
_space_group_name_H-M_alt              'P 1'
_space_group_IT_number                 1

loop_
_space_group_symop_operation_xyz
   'x, y, z'

loop_
   _atom_site_label
   _atom_site_occupancy
   _atom_site_fract_x
   _atom_site_fract_y
   _atom_site_fract_z
   _atom_site_adp_type
   _atom_site_U_iso_or_equiv
   _atom_site_type_symbol
   Al1        1.0     0.107115     0.100545     0.320398    Uiso  ? Al
   Al2        1.0     0.220186     0.207145     0.072165    Uiso  ? Al
   Al3        1.0     0.890776     0.207443     0.566527    Uiso  ? Al
   Al4        1.0     0.442591     0.100624     0.321055    Uiso  ? Al
   Al5        1.0     0.549160     0.210293     0.073899    Uiso  ? Al
   Al6        1.0     0.116343     0.096659     0.819823    Uiso  ? Al
   Al7        1.0     0.221862     0.205964     0.569474    Uiso  ? Al
   Al8        1.0     0.892720     0.209387     0.074115    Uiso  ? Al
   Al9        1.0     0.437171     0.096801     0.819990    Uiso  ? Al
   Al10       1.0     0.552262     0.206913     0.566849    Uiso  ? Al
   Al11       1.0     0.110200     0.426867     0.320744    Uiso  ? Al
   Al12       1.0     0.779992     0.433009     0.819823    Uiso  ? Al
   Al13       1.0     0.889297     0.538529     0.569474    Uiso  ? Al
   Al14       1.0     0.444640     0.421921     0.320719    Uiso  ? Al
   Al15       1.0     0.558580     0.532816     0.066817    Uiso  ? Al
   Al16       1.0     0.111808     0.428475     0.819608    Uiso  ? Al
   Al17       1.0     0.221820     0.538487     0.570213    Uiso  ? Al
   Al18       1.0     0.783878     0.423782     0.320398    Uiso  ? Al
   Al19       1.0     0.890478     0.536853     0.072165    Uiso  ? Al
   Al20       1.0     0.436347     0.433149     0.817863    Uiso  ? Al
   Al21       1.0     0.559155     0.532623     0.575891    Uiso  ? Al
   Al22       1.0     0.105254     0.761307     0.320719    Uiso  ? Al
   Al23       1.0     0.216150     0.875247     0.066817    Uiso  ? Al
   Al24       1.0     0.780134     0.753838     0.819990    Uiso  ? Al
   Al25       1.0     0.890246     0.868929     0.566849    Uiso  ? Al
   Al26       1.0     0.557682     0.874349     0.066503    Uiso  ? Al
   Al27       1.0     0.116483     0.753014     0.817863    Uiso  ? Al
   Al28       1.0     0.215957     0.875821     0.575891    Uiso  ? Al
   Al29       1.0     0.783957     0.759257     0.321055    Uiso  ? Al
   Al30       1.0     0.893627     0.865826     0.073899    Uiso  ? Al
   Al31       1.0     0.444206     0.760873     0.819279    Uiso  ? Al
   Al32       1.0     0.558442     0.875109     0.575913    Uiso  ? Al
   Hf1        1.0     0.777957     0.094624     0.837389    Uiso  ? Hf
   Hf2        1.0     0.443933     0.760599     0.325885    Uiso  ? Hf
   Mg1        1.0     0.777693     0.094359     0.315954    Uiso  ? Mg
   Mg2        1.0     0.221873     0.538540     0.073305    Uiso  ? Mg
   N1         1.0     0.223452     0.203332     0.380122    Uiso  ? N
   N2         1.0     0.113790     0.092865     0.129688    Uiso  ? N
   N3         1.0     0.900358     0.217025     0.882798    Uiso  ? N
   N4         1.0     0.778008     0.094674     0.625464    Uiso  ? N
   N5         1.0     0.542986     0.210563     0.381867    Uiso  ? N
   N6         1.0     0.443979     0.093088     0.129728    Uiso  ? N
   N7         1.0     0.221678     0.206702     0.880397    Uiso  ? N
   N8         1.0     0.110859     0.096126     0.631027    Uiso  ? N
   N9         1.0     0.895572     0.212239     0.380345    Uiso  ? N
   N10        1.0     0.777868     0.094534     0.097120    Uiso  ? N
   N11        1.0     0.533421     0.216539     0.881994    Uiso  ? N
   N12        1.0     0.443164     0.095435     0.631132    Uiso  ? N
   N13        1.0     0.222595     0.539261     0.378464    Uiso  ? N
   N14        1.0     0.103361     0.420027     0.134368    Uiso  ? N
   N15        1.0     0.890035     0.538345     0.880397    Uiso  ? N
   N16        1.0     0.779459     0.427525     0.631027    Uiso  ? N
   N17        1.0     0.564958     0.522157     0.385981    Uiso  ? N
   N18        1.0     0.459036     0.422417     0.134474    Uiso  ? N
   N19        1.0     0.221424     0.538091     0.867696    Uiso  ? N
   N20        1.0     0.110243     0.426909     0.627256    Uiso  ? N
   N21        1.0     0.886666     0.540119     0.380122    Uiso  ? N
   N22        1.0     0.776198     0.430457     0.129688    Uiso  ? N
   N23        1.0     0.556421     0.537439     0.875241    Uiso  ? N
   N24        1.0     0.444900     0.426823     0.628700    Uiso  ? N
   N25        1.0     0.205490     0.881625     0.385981    Uiso  ? N
   N26        1.0     0.105750     0.775702     0.134474    Uiso  ? N
   N27        1.0     0.899872     0.850088     0.881994    Uiso  ? N
   N28        1.0     0.778768     0.759831     0.631132    Uiso  ? N
   N29        1.0     0.563628     0.880295     0.384680    Uiso  ? N
   N30        1.0     0.444621     0.761288     0.118285    Uiso  ? N
   N31        1.0     0.220772     0.873087     0.875241    Uiso  ? N
   N32        1.0     0.110156     0.761567     0.628700    Uiso  ? N
   N33        1.0     0.893897     0.859653     0.381867    Uiso  ? N
   N34        1.0     0.776421     0.760645     0.129728    Uiso  ? N
   N35        1.0     0.556127     0.872794     0.875826    Uiso  ? N
   N36        1.0     0.444474     0.761140     0.623770    Uiso  ? N
