
#======================================================================
# CRYSTAL DATA
#----------------------------------------------------------------------
data_VESTA_phase_1

_chemical_name_common                  'Al   Hf   Mg   N                      '
_cell_length_a                         9.648540
_cell_length_b                         9.648540
_cell_length_c                         9.750445
_cell_angle_alpha                      90.012558
_cell_angle_beta                       90.012558
_cell_angle_gamma                      59.975845
_cell_volume                           785.909385
_space_group_name_H-M_alt              'P 1'
_space_group_IT_number                 1

loop_
_space_group_symop_operation_xyz
   'x, y, z'

loop_
   _atom_site_label
   _atom_site_occupancy
   _atom_site_fract_x
   _atom_site_fract_y
   _atom_site_fract_z
   _atom_site_adp_type
   _atom_site_U_iso_or_equiv
   _atom_site_type_symbol
   Al1        1.0     0.108110     0.100009     0.381634    Uiso  ? Al
   Al2        1.0     0.220072     0.206908     0.131932    Uiso  ? Al
   Al3        1.0     0.892143     0.208810     0.625006    Uiso  ? Al
   Al4        1.0     0.442128     0.099620     0.381232    Uiso  ? Al
   Al5        1.0     0.551966     0.208394     0.137249    Uiso  ? Al
   Al6        1.0     0.115751     0.097189     0.881410    Uiso  ? Al
   Al7        1.0     0.221784     0.206247     0.630158    Uiso  ? Al
   Al8        1.0     0.891403     0.208069     0.136021    Uiso  ? Al
   Al9        1.0     0.437291     0.097689     0.881200    Uiso  ? Al
   Al10       1.0     0.549781     0.208172     0.623672    Uiso  ? Al
   Al11       1.0     0.111948     0.428614     0.379635    Uiso  ? Al
   Al12       1.0     0.780522     0.432418     0.881410    Uiso  ? Al
   Al13       1.0     0.889580     0.538451     0.630158    Uiso  ? Al
   Al14       1.0     0.441049     0.425144     0.382433    Uiso  ? Al
   Al15       1.0     0.562094     0.526903     0.124285    Uiso  ? Al
   Al16       1.0     0.110271     0.426937     0.883050    Uiso  ? Al
   Al17       1.0     0.221861     0.538527     0.627662    Uiso  ? Al
   Al18       1.0     0.783343     0.424777     0.381634    Uiso  ? Al
   Al19       1.0     0.890241     0.536739     0.131932    Uiso  ? Al
   Al20       1.0     0.439259     0.430597     0.881179    Uiso  ? Al
   Al21       1.0     0.556827     0.537223     0.634827    Uiso  ? Al
   Al22       1.0     0.108477     0.757716     0.382433    Uiso  ? Al
   Al23       1.0     0.210236     0.878760     0.124285    Uiso  ? Al
   Al24       1.0     0.781023     0.753958     0.881200    Uiso  ? Al
   Al25       1.0     0.891506     0.866447     0.623672    Uiso  ? Al
   Al26       1.0     0.560413     0.877079     0.123645    Uiso  ? Al
   Al27       1.0     0.113930     0.755926     0.881179    Uiso  ? Al
   Al28       1.0     0.220557     0.873494     0.634827    Uiso  ? Al
   Al29       1.0     0.782953     0.758795     0.381232    Uiso  ? Al
   Al30       1.0     0.891728     0.868633     0.137249    Uiso  ? Al
   Al31       1.0     0.444212     0.760879     0.886873    Uiso  ? Al
   Al32       1.0     0.556271     0.872937     0.635344    Uiso  ? Al
   Hf1        1.0     0.777545     0.094212     0.865170    Uiso  ? Hf
   Hf2        1.0     0.444254     0.760921     0.362833    Uiso  ? Hf
   Mg1        1.0     0.778188     0.094855     0.378799    Uiso  ? Mg
   Mg2        1.0     0.222099     0.538766     0.128303    Uiso  ? Mg
   N1         1.0     0.223071     0.203921     0.328425    Uiso  ? N
   N2         1.0     0.110670     0.096682     0.075464    Uiso  ? N
   N3         1.0     0.899395     0.216061     0.822624    Uiso  ? N
   N4         1.0     0.778197     0.094864     0.602866    Uiso  ? N
   N5         1.0     0.541045     0.212563     0.330328    Uiso  ? N
   N6         1.0     0.442799     0.096837     0.075717    Uiso  ? N
   N7         1.0     0.222036     0.206279     0.824923    Uiso  ? N
   N8         1.0     0.113949     0.092619     0.577558    Uiso  ? N
   N9         1.0     0.896622     0.213289     0.328553    Uiso  ? N
   N10        1.0     0.777453     0.094120     0.084869    Uiso  ? N
   N11        1.0     0.535191     0.214194     0.820332    Uiso  ? N
   N12        1.0     0.443592     0.091601     0.577225    Uiso  ? N
   N13        1.0     0.222832     0.539499     0.340909    Uiso  ? N
   N14        1.0     0.103434     0.420101     0.075516    Uiso  ? N
   N15        1.0     0.889612     0.538703     0.824923    Uiso  ? N
   N16        1.0     0.775952     0.430616     0.577558    Uiso  ? N
   N17        1.0     0.565929     0.518807     0.322264    Uiso  ? N
   N18        1.0     0.458982     0.418042     0.071403    Uiso  ? N
   N19        1.0     0.221275     0.537942     0.826433    Uiso  ? N
   N20        1.0     0.110097     0.426763     0.577188    Uiso  ? N
   N21        1.0     0.887254     0.539738     0.328425    Uiso  ? N
   N22        1.0     0.780015     0.427336     0.075464    Uiso  ? N
   N23        1.0     0.555976     0.540271     0.830586    Uiso  ? N
   N24        1.0     0.445602     0.430012     0.579346    Uiso  ? N
   N25        1.0     0.202141     0.882595     0.322264    Uiso  ? N
   N26        1.0     0.101375     0.775649     0.071403    Uiso  ? N
   N27        1.0     0.897527     0.851858     0.820332    Uiso  ? N
   N28        1.0     0.774934     0.760259     0.577225    Uiso  ? N
   N29        1.0     0.565368     0.882035     0.320825    Uiso  ? N
   N30        1.0     0.444334     0.761000     0.089896    Uiso  ? N
   N31        1.0     0.223604     0.872642     0.830586    Uiso  ? N
   N32        1.0     0.113345     0.762269     0.579346    Uiso  ? N
   N33        1.0     0.895897     0.857711     0.330328    Uiso  ? N
   N34        1.0     0.780171     0.759466     0.075717    Uiso  ? N
   N35        1.0     0.555297     0.871964     0.832431    Uiso  ? N
   N36        1.0     0.444643     0.761309     0.579969    Uiso  ? N
