
#======================================================================
# CRYSTAL DATA
#----------------------------------------------------------------------
data_VESTA_phase_1

_chemical_name_common                  'Al   Hf   Mg   N                      '
_cell_length_a                         9.795595
_cell_length_b                         9.795595
_cell_length_c                         9.319539
_cell_angle_alpha                      89.992455
_cell_angle_beta                       89.992455
_cell_angle_gamma                      59.939873
_cell_volume                           773.968466
_space_group_name_H-M_alt              'P 1'
_space_group_IT_number                 1

loop_
_space_group_symop_operation_xyz
   'x, y, z'

loop_
   _atom_site_label
   _atom_site_occupancy
   _atom_site_fract_x
   _atom_site_fract_y
   _atom_site_fract_z
   _atom_site_adp_type
   _atom_site_U_iso_or_equiv
   _atom_site_type_symbol
   Al1        1.0     0.111532     0.097631     0.329300    Uiso  ? Al
   Al2        1.0     0.220259     0.206302     0.081011    Uiso  ? Al
   Al3        1.0     0.891643     0.208310     0.570890    Uiso  ? Al
   Al4        1.0     0.441159     0.098403     0.329607    Uiso  ? Al
   Al5        1.0     0.551596     0.208076     0.093813    Uiso  ? Al
   Al6        1.0     0.113168     0.099311     0.832115    Uiso  ? Al
   Al7        1.0     0.221686     0.206337     0.581216    Uiso  ? Al
   Al8        1.0     0.892072     0.208738     0.095713    Uiso  ? Al
   Al9        1.0     0.438139     0.098429     0.832372    Uiso  ? Al
   Al10       1.0     0.550047     0.208735     0.572320    Uiso  ? Al
   Al11       1.0     0.110205     0.426872     0.331928    Uiso  ? Al
   Al12       1.0     0.782645     0.429835     0.832115    Uiso  ? Al
   Al13       1.0     0.889670     0.538353     0.581216    Uiso  ? Al
   Al14       1.0     0.442707     0.426482     0.327141    Uiso  ? Al
   Al15       1.0     0.558046     0.536272     0.074051    Uiso  ? Al
   Al16       1.0     0.111465     0.428132     0.830954    Uiso  ? Al
   Al17       1.0     0.221945     0.538612     0.586897    Uiso  ? Al
   Al18       1.0     0.780964     0.428199     0.329300    Uiso  ? Al
   Al19       1.0     0.889636     0.536926     0.081011    Uiso  ? Al
   Al20       1.0     0.437218     0.429997     0.834971    Uiso  ? Al
   Al21       1.0     0.560952     0.527914     0.593191    Uiso  ? Al
   Al22       1.0     0.109815     0.759373     0.327141    Uiso  ? Al
   Al23       1.0     0.219605     0.874712     0.074051    Uiso  ? Al
   Al24       1.0     0.781762     0.754805     0.832372    Uiso  ? Al
   Al25       1.0     0.892069     0.866714     0.572320    Uiso  ? Al
   Al26       1.0     0.556307     0.872974     0.075324    Uiso  ? Al
   Al27       1.0     0.113330     0.753885     0.834971    Uiso  ? Al
   Al28       1.0     0.211247     0.877619     0.593191    Uiso  ? Al
   Al29       1.0     0.781736     0.757826     0.329607    Uiso  ? Al
   Al30       1.0     0.891409     0.868263     0.093813    Uiso  ? Al
   Al31       1.0     0.444683     0.761350     0.826530    Uiso  ? Al
   Al32       1.0     0.560782     0.877449     0.591314    Uiso  ? Al
   Hf1        1.0     0.778167     0.094834     0.850421    Uiso  ? Hf
   Hf2        1.0     0.444078     0.760745     0.351304    Uiso  ? Hf
   Mg1        1.0     0.777624     0.094291     0.337920    Uiso  ? Mg
   Mg2        1.0     0.220905     0.537572     0.087310    Uiso  ? Mg
   N1         1.0     0.223809     0.202799     0.377342    Uiso  ? N
   N2         1.0     0.116525     0.090865     0.124447    Uiso  ? N
   N3         1.0     0.898936     0.215603     0.884580    Uiso  ? N
   N4         1.0     0.778204     0.094871     0.615442    Uiso  ? N
   N5         1.0     0.539510     0.212817     0.369949    Uiso  ? N
   N6         1.0     0.443145     0.091317     0.124210    Uiso  ? N
   N7         1.0     0.221669     0.206950     0.875450    Uiso  ? N
   N8         1.0     0.108552     0.098375     0.628078    Uiso  ? N
   N9         1.0     0.897126     0.213792     0.367507    Uiso  ? N
   N10        1.0     0.777948     0.094614     0.105216    Uiso  ? N
   N11        1.0     0.537294     0.213334     0.882616    Uiso  ? N
   N12        1.0     0.443264     0.097354     0.628299    Uiso  ? N
   N13        1.0     0.222858     0.539525     0.375921    Uiso  ? N
   N14        1.0     0.102694     0.419361     0.129568    Uiso  ? N
   N15        1.0     0.890283     0.538335     0.875450    Uiso  ? N
   N16        1.0     0.781709     0.425219     0.628078    Uiso  ? N
   N17        1.0     0.565358     0.520082     0.385016    Uiso  ? N
   N18        1.0     0.458232     0.424963     0.124516    Uiso  ? N
   N19        1.0     0.220687     0.537353     0.863326    Uiso  ? N
   N20        1.0     0.109942     0.426608     0.623500    Uiso  ? N
   N21        1.0     0.886133     0.540476     0.377342    Uiso  ? N
   N22        1.0     0.774198     0.433192     0.124447    Uiso  ? N
   N23        1.0     0.556445     0.539434     0.866904    Uiso  ? N
   N24        1.0     0.445407     0.424523     0.628940    Uiso  ? N
   N25        1.0     0.203416     0.882024     0.385016    Uiso  ? N
   N26        1.0     0.108297     0.774898     0.124516    Uiso  ? N
   N27        1.0     0.896667     0.853961     0.882616    Uiso  ? N
   N28        1.0     0.780687     0.759930     0.628299    Uiso  ? N
   N29        1.0     0.564850     0.881516     0.382888    Uiso  ? N
   N30        1.0     0.444597     0.761263     0.120708    Uiso  ? N
   N31        1.0     0.222767     0.873111     0.866904    Uiso  ? N
   N32        1.0     0.107856     0.762074     0.628940    Uiso  ? N
   N33        1.0     0.896151     0.856177     0.369949    Uiso  ? N
   N34        1.0     0.774650     0.759811     0.124210    Uiso  ? N
   N35        1.0     0.555517     0.872184     0.868700    Uiso  ? N
   N36        1.0     0.444776     0.761443     0.615268    Uiso  ? N
