
#======================================================================
# CRYSTAL DATA
#----------------------------------------------------------------------
data_VESTA_phase_1

_chemical_name_common                  'Al   Hf   Mg   N                      '
_cell_length_a                         9.840277
_cell_length_b                         9.840277
_cell_length_c                         9.178355
_cell_angle_alpha                      90.007568
_cell_angle_beta                       90.007568
_cell_angle_gamma                      59.972309
_cell_volume                           769.464984
_space_group_name_H-M_alt              'P 1'
_space_group_IT_number                 1

loop_
_space_group_symop_operation_xyz
   'x, y, z'

loop_
   _atom_site_label
   _atom_site_occupancy
   _atom_site_fract_x
   _atom_site_fract_y
   _atom_site_fract_z
   _atom_site_adp_type
   _atom_site_U_iso_or_equiv
   _atom_site_type_symbol
   Al1        1.0     0.110983     0.097808     0.377175    Uiso  ? Al
   Al2        1.0     0.220659     0.205621     0.126405    Uiso  ? Al
   Al3        1.0     0.891636     0.208302     0.611267    Uiso  ? Al
   Al4        1.0     0.441586     0.096912     0.376701    Uiso  ? Al
   Al5        1.0     0.551721     0.207663     0.135987    Uiso  ? Al
   Al6        1.0     0.113620     0.099109     0.873118    Uiso  ? Al
   Al7        1.0     0.221300     0.207195     0.623425    Uiso  ? Al
   Al8        1.0     0.891912     0.208578     0.133749    Uiso  ? Al
   Al9        1.0     0.437451     0.099935     0.873201    Uiso  ? Al
   Al10       1.0     0.550551     0.208217     0.608580    Uiso  ? Al
   Al11       1.0     0.111506     0.428172     0.369313    Uiso  ? Al
   Al12       1.0     0.782442     0.430287     0.873118    Uiso  ? Al
   Al13       1.0     0.890528     0.537967     0.623425    Uiso  ? Al
   Al14       1.0     0.440869     0.427842     0.375152    Uiso  ? Al
   Al15       1.0     0.562811     0.526714     0.113141    Uiso  ? Al
   Al16       1.0     0.110580     0.427247     0.879526    Uiso  ? Al
   Al17       1.0     0.221690     0.538357     0.616820    Uiso  ? Al
   Al18       1.0     0.781142     0.427649     0.377175    Uiso  ? Al
   Al19       1.0     0.888954     0.537326     0.126405    Uiso  ? Al
   Al20       1.0     0.439092     0.428449     0.874558    Uiso  ? Al
   Al21       1.0     0.556552     0.536985     0.631465    Uiso  ? Al
   Al22       1.0     0.111175     0.757535     0.375152    Uiso  ? Al
   Al23       1.0     0.210048     0.879478     0.113141    Uiso  ? Al
   Al24       1.0     0.783268     0.754117     0.873201    Uiso  ? Al
   Al25       1.0     0.891550     0.867218     0.608580    Uiso  ? Al
   Al26       1.0     0.560624     0.877291     0.111347    Uiso  ? Al
   Al27       1.0     0.111782     0.755759     0.874557    Uiso  ? Al
   Al28       1.0     0.220318     0.873218     0.631465    Uiso  ? Al
   Al29       1.0     0.780245     0.758252     0.376701    Uiso  ? Al
   Al30       1.0     0.890996     0.868388     0.135987    Uiso  ? Al
   Al31       1.0     0.444131     0.760797     0.878290    Uiso  ? Al
   Al32       1.0     0.556240     0.872907     0.632793    Uiso  ? Al
   Hf1        1.0     0.777440     0.094107     0.856953    Uiso  ? Hf
   Hf2        1.0     0.444485     0.761151     0.354165    Uiso  ? Hf
   Mg1        1.0     0.778364     0.095031     0.366879    Uiso  ? Mg
   Mg2        1.0     0.222253     0.538920     0.119565    Uiso  ? Mg
   N1         1.0     0.223832     0.202568     0.335563    Uiso  ? N
   N2         1.0     0.109510     0.097874     0.081363    Uiso  ? N
   N3         1.0     0.898141     0.214808     0.826631    Uiso  ? N
   N4         1.0     0.778352     0.095019     0.601551    Uiso  ? N
   N5         1.0     0.540032     0.212449     0.344373    Uiso  ? N
   N6         1.0     0.442738     0.098143     0.081842    Uiso  ? N
   N7         1.0     0.221396     0.207677     0.831733    Uiso  ? N
   N8         1.0     0.115279     0.091468     0.586010    Uiso  ? N
   N9         1.0     0.897382     0.214049     0.341473    Uiso  ? N
   N10        1.0     0.777450     0.094117     0.095822    Uiso  ? N
   N11        1.0     0.537451     0.213334     0.823501    Uiso  ? N
   N12        1.0     0.443379     0.090105     0.585554    Uiso  ? N
   N13        1.0     0.222840     0.539507     0.348862    Uiso  ? N
   N14        1.0     0.103605     0.420272     0.087139    Uiso  ? N
   N15        1.0     0.891011     0.538063     0.831733    Uiso  ? N
   N16        1.0     0.774801     0.431946     0.586010    Uiso  ? N
   N17        1.0     0.565555     0.520618     0.327781    Uiso  ? N
   N18        1.0     0.458641     0.417072     0.080134    Uiso  ? N
   N19        1.0     0.220792     0.537459     0.832653    Uiso  ? N
   N20        1.0     0.109808     0.426475     0.580705    Uiso  ? N
   N21        1.0     0.885901     0.540499     0.335563    Uiso  ? N
   N22        1.0     0.781208     0.426176     0.081363    Uiso  ? N
   N23        1.0     0.556197     0.539582     0.840612    Uiso  ? N
   N24        1.0     0.445740     0.431401     0.586076    Uiso  ? N
   N25        1.0     0.203951     0.882222     0.327781    Uiso  ? N
   N26        1.0     0.100406     0.775308     0.080134    Uiso  ? N
   N27        1.0     0.896668     0.854118     0.823501    Uiso  ? N
   N28        1.0     0.773439     0.760045     0.585554    Uiso  ? N
   N29        1.0     0.564781     0.881448     0.325379    Uiso  ? N
   N30        1.0     0.444342     0.761009     0.093472    Uiso  ? N
   N31        1.0     0.222915     0.872864     0.840612    Uiso  ? N
   N32        1.0     0.114734     0.762407     0.586076    Uiso  ? N
   N33        1.0     0.895783     0.856699     0.344373    Uiso  ? N
   N34        1.0     0.781476     0.759404     0.081842    Uiso  ? N
   N35        1.0     0.555640     0.872306     0.843112    Uiso  ? N
   N36        1.0     0.444751     0.761418     0.589530    Uiso  ? N
