
#======================================================================
# CRYSTAL DATA
#----------------------------------------------------------------------
data_VESTA_phase_1

_chemical_name_common                  'Al   Hf   Mg   N                      '
_cell_length_a                         10.042320
_cell_length_b                         10.042320
_cell_length_c                         8.565747
_cell_angle_alpha                      90.001984
_cell_angle_beta                       90.001984
_cell_angle_gamma                      59.962341
_cell_volume                           747.823473
_space_group_name_H-M_alt              'P 1'
_space_group_IT_number                 1

loop_
_space_group_symop_operation_xyz
   'x, y, z'

loop_
   _atom_site_label
   _atom_site_occupancy
   _atom_site_fract_x
   _atom_site_fract_y
   _atom_site_fract_z
   _atom_site_adp_type
   _atom_site_U_iso_or_equiv
   _atom_site_type_symbol
   Al1        1.0     0.111386     0.097793     0.359943    Uiso  ? Al
   Al2        1.0     0.221041     0.205418     0.110711    Uiso  ? Al
   Al3        1.0     0.891338     0.208004     0.594962    Uiso  ? Al
   Al4        1.0     0.441254     0.097324     0.361695    Uiso  ? Al
   Al5        1.0     0.552361     0.206897     0.123299    Uiso  ? Al
   Al6        1.0     0.113314     0.098660     0.857008    Uiso  ? Al
   Al7        1.0     0.221028     0.207569     0.608292    Uiso  ? Al
   Al8        1.0     0.891808     0.208475     0.119687    Uiso  ? Al
   Al9        1.0     0.438410     0.098925     0.858230    Uiso  ? Al
   Al10       1.0     0.550472     0.208861     0.595679    Uiso  ? Al
   Al11       1.0     0.111286     0.427953     0.354254    Uiso  ? Al
   Al12       1.0     0.781993     0.429980     0.857008    Uiso  ? Al
   Al13       1.0     0.890902     0.537694     0.608292    Uiso  ? Al
   Al14       1.0     0.440734     0.427791     0.355626    Uiso  ? Al
   Al15       1.0     0.561241     0.530241     0.096107    Uiso  ? Al
   Al16       1.0     0.111056     0.427722     0.864149    Uiso  ? Al
   Al17       1.0     0.221703     0.538370     0.604764    Uiso  ? Al
   Al18       1.0     0.781127     0.428053     0.359943    Uiso  ? Al
   Al19       1.0     0.888751     0.537708     0.110711    Uiso  ? Al
   Al20       1.0     0.438654     0.428920     0.860154    Uiso  ? Al
   Al21       1.0     0.558238     0.532811     0.616732    Uiso  ? Al
   Al22       1.0     0.111124     0.757401     0.355626    Uiso  ? Al
   Al23       1.0     0.213574     0.877907     0.096107    Uiso  ? Al
   Al24       1.0     0.782258     0.755077     0.858230    Uiso  ? Al
   Al25       1.0     0.892194     0.867139     0.595679    Uiso  ? Al
   Al26       1.0     0.559349     0.876016     0.097628    Uiso  ? Al
   Al27       1.0     0.112254     0.755321     0.860154    Uiso  ? Al
   Al28       1.0     0.216145     0.874905     0.616732    Uiso  ? Al
   Al29       1.0     0.780658     0.757921     0.361695    Uiso  ? Al
   Al30       1.0     0.890230     0.869028     0.123299    Uiso  ? Al
   Al31       1.0     0.444340     0.761006     0.856742    Uiso  ? Al
   Al32       1.0     0.558035     0.874702     0.619471    Uiso  ? Al
   Hf1        1.0     0.777595     0.094262     0.853614    Uiso  ? Hf
   Hf2        1.0     0.444405     0.761071     0.352781    Uiso  ? Hf
   Mg1        1.0     0.778100     0.094767     0.356567    Uiso  ? Mg
   Mg2        1.0     0.221796     0.538463     0.106572    Uiso  ? Mg
   N1         1.0     0.223753     0.203081     0.350565    Uiso  ? N
   N2         1.0     0.111626     0.095512     0.097691    Uiso  ? N
   N3         1.0     0.896810     0.213477     0.847764    Uiso  ? N
   N4         1.0     0.778551     0.095218     0.600294    Uiso  ? N
   N5         1.0     0.540015     0.212254     0.354681    Uiso  ? N
   N6         1.0     0.443282     0.095941     0.096647    Uiso  ? N
   N7         1.0     0.221637     0.207264     0.847270    Uiso  ? N
   N8         1.0     0.112862     0.093848     0.601566    Uiso  ? N
   N9         1.0     0.897161     0.213827     0.352546    Uiso  ? N
   N10        1.0     0.777474     0.094141     0.106182    Uiso  ? N
   N11        1.0     0.540340     0.212001     0.842348    Uiso  ? N
   N12        1.0     0.443410     0.092273     0.600504    Uiso  ? N
   N13        1.0     0.222583     0.539250     0.360426    Uiso  ? N
   N14        1.0     0.104044     0.420710     0.102645    Uiso  ? N
   N15        1.0     0.890597     0.538304     0.847270    Uiso  ? N
   N16        1.0     0.777181     0.429528     0.601566    Uiso  ? N
   N17        1.0     0.563701     0.524106     0.349688    Uiso  ? N
   N18        1.0     0.457412     0.420140     0.098010    Uiso  ? N
   N19        1.0     0.220810     0.537477     0.843596    Uiso  ? N
   N20        1.0     0.110002     0.426669     0.595634    Uiso  ? N
   N21        1.0     0.886414     0.540420     0.350565    Uiso  ? N
   N22        1.0     0.778846     0.428293     0.097691    Uiso  ? N
   N23        1.0     0.556955     0.538045     0.851661    Uiso  ? N
   N24        1.0     0.445249     0.429343     0.601487    Uiso  ? N
   N25        1.0     0.207439     0.880367     0.349688    Uiso  ? N
   N26        1.0     0.103473     0.774079     0.098010    Uiso  ? N
   N27        1.0     0.895334     0.857007     0.842348    Uiso  ? N
   N28        1.0     0.775607     0.760077     0.600504    Uiso  ? N
   N29        1.0     0.563149     0.879816     0.344907    Uiso  ? N
   N30        1.0     0.444412     0.761079     0.095016    Uiso  ? N
   N31        1.0     0.221379     0.873621     0.851661    Uiso  ? N
   N32        1.0     0.112677     0.761916     0.601487    Uiso  ? N
   N33        1.0     0.895588     0.856682     0.354681    Uiso  ? N
   N34        1.0     0.779275     0.759949     0.096647    Uiso  ? N
   N35        1.0     0.556366     0.873033     0.853032    Uiso  ? N
   N36        1.0     0.444866     0.761532     0.609304    Uiso  ? N
