
#======================================================================
# CRYSTAL DATA
#----------------------------------------------------------------------
data_VESTA_phase_1

_chemical_name_common                  'Al   Hf   Mg   N                      '
_cell_length_a                         9.884987
_cell_length_b                         9.884987
_cell_length_c                         9.041137
_cell_angle_alpha                      90.006599
_cell_angle_beta                       90.006599
_cell_angle_gamma                      59.971016
_cell_volume                           764.854708
_space_group_name_H-M_alt              'P 1'
_space_group_IT_number                 1

loop_
_space_group_symop_operation_xyz
   'x, y, z'

loop_
   _atom_site_label
   _atom_site_occupancy
   _atom_site_fract_x
   _atom_site_fract_y
   _atom_site_fract_z
   _atom_site_adp_type
   _atom_site_U_iso_or_equiv
   _atom_site_type_symbol
   Al1        1.0     0.111419     0.097482     0.375214    Uiso  ? Al
   Al2        1.0     0.220822     0.205350     0.124370    Uiso  ? Al
   Al3        1.0     0.891485     0.208152     0.607755    Uiso  ? Al
   Al4        1.0     0.441519     0.096564     0.374822    Uiso  ? Al
   Al5        1.0     0.551745     0.207453     0.134688    Uiso  ? Al
   Al6        1.0     0.113268     0.099374     0.870523    Uiso  ? Al
   Al7        1.0     0.221183     0.207426     0.621115    Uiso  ? Al
   Al8        1.0     0.891977     0.208644     0.132288    Uiso  ? Al
   Al9        1.0     0.437539     0.100176     0.870678    Uiso  ? Al
   Al10       1.0     0.550716     0.208281     0.605178    Uiso  ? Al
   Al11       1.0     0.111410     0.428077     0.366215    Uiso  ? Al
   Al12       1.0     0.782707     0.429935     0.870523    Uiso  ? Al
   Al13       1.0     0.890759     0.537850     0.621115    Uiso  ? Al
   Al14       1.0     0.440898     0.428151     0.372287    Uiso  ? Al
   Al15       1.0     0.562647     0.527279     0.109731    Uiso  ? Al
   Al16       1.0     0.110672     0.427339     0.877863    Uiso  ? Al
   Al17       1.0     0.221660     0.538327     0.613709    Uiso  ? Al
   Al18       1.0     0.780816     0.428086     0.375214    Uiso  ? Al
   Al19       1.0     0.888684     0.537488     0.124370    Uiso  ? Al
   Al20       1.0     0.438992     0.428199     0.872454    Uiso  ? Al
   Al21       1.0     0.556730     0.536373     0.629906    Uiso  ? Al
   Al22       1.0     0.111485     0.757565     0.372287    Uiso  ? Al
   Al23       1.0     0.210612     0.879314     0.109731    Uiso  ? Al
   Al24       1.0     0.783509     0.754206     0.870678    Uiso  ? Al
   Al25       1.0     0.891614     0.867383     0.605178    Uiso  ? Al
   Al26       1.0     0.560425     0.877091     0.108037    Uiso  ? Al
   Al27       1.0     0.111532     0.755659     0.872454    Uiso  ? Al
   Al28       1.0     0.219706     0.873396     0.629906    Uiso  ? Al
   Al29       1.0     0.779898     0.758186     0.374822    Uiso  ? Al
   Al30       1.0     0.890786     0.868411     0.134688    Uiso  ? Al
   Al31       1.0     0.444141     0.760808     0.874372    Uiso  ? Al
   Al32       1.0     0.556494     0.873161     0.631424    Uiso  ? Al
   Hf1        1.0     0.777451     0.094118     0.855598    Uiso  ? Hf
   Hf2        1.0     0.444513     0.761180     0.353174    Uiso  ? Hf
   Mg1        1.0     0.778345     0.095012     0.364321    Uiso  ? Mg
   Mg2        1.0     0.222242     0.538909     0.117068    Uiso  ? Mg
   N1         1.0     0.223961     0.202384     0.337896    Uiso  ? N
   N2         1.0     0.109484     0.097877     0.083487    Uiso  ? N
   N3         1.0     0.897797     0.214463     0.828819    Uiso  ? N
   N4         1.0     0.778371     0.095038     0.601132    Uiso  ? N
   N5         1.0     0.539972     0.212347     0.347423    Uiso  ? N
   N6         1.0     0.442788     0.098122     0.083925    Uiso  ? N
   N7         1.0     0.221298     0.207889     0.833952    Uiso  ? N
   N8         1.0     0.115254     0.091495     0.588572    Uiso  ? N
   N9         1.0     0.897421     0.214087     0.344551    Uiso  ? N
   N10        1.0     0.777464     0.094130     0.098495    Uiso  ? N
   N11        1.0     0.538101     0.213092     0.825591    Uiso  ? N
   N12        1.0     0.443387     0.090109     0.588107    Uiso  ? N
   N13        1.0     0.222815     0.539482     0.351402    Uiso  ? N
   N14        1.0     0.103693     0.420360     0.090449    Uiso  ? N
   N15        1.0     0.891222     0.537965     0.833952    Uiso  ? N
   N16        1.0     0.774828     0.431921     0.588572    Uiso  ? N
   N17        1.0     0.565282     0.521371     0.330242    Uiso  ? N
   N18        1.0     0.458424     0.417257     0.083083    Uiso  ? N
   N19        1.0     0.220719     0.537386     0.834654    Uiso  ? N
   N20        1.0     0.109791     0.426458     0.582276    Uiso  ? N
   N21        1.0     0.885718     0.540628     0.337896    Uiso  ? N
   N22        1.0     0.781211     0.426150     0.083487    Uiso  ? N
   N23        1.0     0.556344     0.539194     0.843316    Uiso  ? N
   N24        1.0     0.445738     0.431369     0.588264    Uiso  ? N
   N25        1.0     0.204704     0.881949     0.330242    Uiso  ? N
   N26        1.0     0.100591     0.775091     0.083083    Uiso  ? N
   N27        1.0     0.896426     0.854768     0.825591    Uiso  ? N
   N28        1.0     0.773442     0.760053     0.588107    Uiso  ? N
   N29        1.0     0.564477     0.881143     0.327637    Uiso  ? N
   N30        1.0     0.444362     0.761029     0.093676    Uiso  ? N
   N31        1.0     0.222527     0.873011     0.843316    Uiso  ? N
   N32        1.0     0.114702     0.762404     0.588264    Uiso  ? N
   N33        1.0     0.895680     0.856638     0.347423    Uiso  ? N
   N34        1.0     0.781455     0.759454     0.083925    Uiso  ? N
   N35        1.0     0.555812     0.872479     0.845752    Uiso  ? N
   N36        1.0     0.444766     0.761433     0.593566    Uiso  ? N
