
#======================================================================
# CRYSTAL DATA
#----------------------------------------------------------------------
data_VESTA_phase_1

_chemical_name_common                  'Al   Hf   Mg   N                      '
_cell_length_a                         9.841507
_cell_length_b                         9.841507
_cell_length_c                         9.179310
_cell_angle_alpha                      89.991653
_cell_angle_beta                       89.991653
_cell_angle_gamma                      59.938877
_cell_volume                           769.477712
_space_group_name_H-M_alt              'P 1'
_space_group_IT_number                 1

loop_
_space_group_symop_operation_xyz
   'x, y, z'

loop_
   _atom_site_label
   _atom_site_occupancy
   _atom_site_fract_x
   _atom_site_fract_y
   _atom_site_fract_z
   _atom_site_adp_type
   _atom_site_U_iso_or_equiv
   _atom_site_type_symbol
   Al1        1.0     0.112129     0.097209     0.331150    Uiso  ? Al
   Al2        1.0     0.220352     0.206118     0.082701    Uiso  ? Al
   Al3        1.0     0.891739     0.208406     0.571738    Uiso  ? Al
   Al4        1.0     0.440957     0.098004     0.331430    Uiso  ? Al
   Al5        1.0     0.552074     0.207665     0.097555    Uiso  ? Al
   Al6        1.0     0.112679     0.099674     0.834081    Uiso  ? Al
   Al7        1.0     0.221607     0.206474     0.583275    Uiso  ? Al
   Al8        1.0     0.891921     0.208588     0.099395    Uiso  ? Al
   Al9        1.0     0.438310     0.098691     0.834362    Uiso  ? Al
   Al10       1.0     0.549760     0.209018     0.573278    Uiso  ? Al
   Al11       1.0     0.110313     0.426980     0.333812    Uiso  ? Al
   Al12       1.0     0.783008     0.429345     0.834081    Uiso  ? Al
   Al13       1.0     0.889808     0.538273     0.583275    Uiso  ? Al
   Al14       1.0     0.442273     0.427258     0.328501    Uiso  ? Al
   Al15       1.0     0.558351     0.536115     0.074940    Uiso  ? Al
   Al16       1.0     0.111351     0.428018     0.833222    Uiso  ? Al
   Al17       1.0     0.221958     0.538625     0.590315    Uiso  ? Al
   Al18       1.0     0.780543     0.428795     0.331150    Uiso  ? Al
   Al19       1.0     0.889451     0.537019     0.082701    Uiso  ? Al
   Al20       1.0     0.437548     0.429403     0.838023    Uiso  ? Al
   Al21       1.0     0.560769     0.528035     0.596533    Uiso  ? Al
   Al22       1.0     0.110591     0.758940     0.328501    Uiso  ? Al
   Al23       1.0     0.219448     0.875017     0.074940    Uiso  ? Al
   Al24       1.0     0.782024     0.754976     0.834362    Uiso  ? Al
   Al25       1.0     0.892352     0.866426     0.573278    Uiso  ? Al
   Al26       1.0     0.556454     0.873121     0.076440    Uiso  ? Al
   Al27       1.0     0.112736     0.754214     0.838023    Uiso  ? Al
   Al28       1.0     0.211369     0.877436     0.596533    Uiso  ? Al
   Al29       1.0     0.781337     0.757623     0.331430    Uiso  ? Al
   Al30       1.0     0.890998     0.868741     0.097555    Uiso  ? Al
   Al31       1.0     0.444739     0.761405     0.829455    Uiso  ? Al
   Al32       1.0     0.560678     0.877344     0.594427    Uiso  ? Al
   Hf1        1.0     0.778145     0.094812     0.851677    Uiso  ? Hf
   Hf2        1.0     0.444064     0.760731     0.353038    Uiso  ? Hf
   Mg1        1.0     0.777647     0.094314     0.341085    Uiso  ? Mg
   Mg2        1.0     0.220840     0.537507     0.089454    Uiso  ? Mg
   N1         1.0     0.223767     0.202891     0.375489    Uiso  ? N
   N2         1.0     0.116689     0.090742     0.122346    Uiso  ? N
   N3         1.0     0.898593     0.215260     0.883168    Uiso  ? N
   N4         1.0     0.778226     0.094892     0.612352    Uiso  ? N
   N5         1.0     0.539285     0.213011     0.366520    Uiso  ? N
   N6         1.0     0.443084     0.091133     0.122070    Uiso  ? N
   N7         1.0     0.221721     0.206875     0.873287    Uiso  ? N
   N8         1.0     0.108365     0.098502     0.626061    Uiso  ? N
   N9         1.0     0.897230     0.213897     0.364161    Uiso  ? N
   N10        1.0     0.777969     0.094635     0.105898    Uiso  ? N
   N11        1.0     0.538089     0.212727     0.881063    Uiso  ? N
   N12        1.0     0.443311     0.097483     0.626263    Uiso  ? N
   N13        1.0     0.222864     0.539531     0.374333    Uiso  ? N
   N14        1.0     0.102782     0.419449     0.127200    Uiso  ? N
   N15        1.0     0.890208     0.538387     0.873287    Uiso  ? N
   N16        1.0     0.781836     0.425031     0.626061    Uiso  ? N
   N17        1.0     0.564996     0.520568     0.383266    Uiso  ? N
   N18        1.0     0.457982     0.425196     0.121376    Uiso  ? N
   N19        1.0     0.220646     0.537313     0.860619    Uiso  ? N
   N20        1.0     0.109886     0.426552     0.621548    Uiso  ? N
   N21        1.0     0.886224     0.540434     0.375489    Uiso  ? N
   N22        1.0     0.774076     0.433356     0.122346    Uiso  ? N
   N23        1.0     0.556699     0.539284     0.864128    Uiso  ? N
   N24        1.0     0.445569     0.424289     0.627461    Uiso  ? N
   N25        1.0     0.203901     0.881662     0.383266    Uiso  ? N
   N26        1.0     0.108530     0.774648     0.121376    Uiso  ? N
   N27        1.0     0.896061     0.854756     0.881063    Uiso  ? N
   N28        1.0     0.780816     0.759978     0.626263    Uiso  ? N
   N29        1.0     0.564592     0.881258     0.381087    Uiso  ? N
   N30        1.0     0.444589     0.761256     0.117429    Uiso  ? N
   N31        1.0     0.222618     0.873366     0.864128    Uiso  ? N
   N32        1.0     0.107622     0.762236     0.627461    Uiso  ? N
   N33        1.0     0.896344     0.855952     0.366520    Uiso  ? N
   N34        1.0     0.774467     0.759750     0.122070    Uiso  ? N
   N35        1.0     0.555669     0.872336     0.866042    Uiso  ? N
   N36        1.0     0.444806     0.761473     0.614682    Uiso  ? N
