
#======================================================================
# CRYSTAL DATA
#----------------------------------------------------------------------
data_VESTA_phase_1

_chemical_name_common                  'Al   Hf   Mg   N                      '
_cell_length_a                         9.527902
_cell_length_b                         9.527902
_cell_length_c                         10.081916
_cell_angle_alpha                      90.018318
_cell_angle_beta                       90.018318
_cell_angle_gamma                      59.973598
_cell_volume                           792.414841
_space_group_name_H-M_alt              'P 1'
_space_group_IT_number                 1

loop_
_space_group_symop_operation_xyz
   'x, y, z'

loop_
   _atom_site_label
   _atom_site_occupancy
   _atom_site_fract_x
   _atom_site_fract_y
   _atom_site_fract_z
   _atom_site_adp_type
   _atom_site_U_iso_or_equiv
   _atom_site_type_symbol
   Al1        1.0     0.107105     0.100541     0.298893    Uiso  ? Al
   Al2        1.0     0.220184     0.207143     0.050657    Uiso  ? Al
   Al3        1.0     0.890768     0.207435     0.545016    Uiso  ? Al
   Al4        1.0     0.442588     0.100616     0.299550    Uiso  ? Al
   Al5        1.0     0.549153     0.210294     0.052370    Uiso  ? Al
   Al6        1.0     0.116340     0.096654     0.798298    Uiso  ? Al
   Al7        1.0     0.221856     0.205960     0.547957    Uiso  ? Al
   Al8        1.0     0.892716     0.209382     0.052580    Uiso  ? Al
   Al9        1.0     0.437164     0.096798     0.798463    Uiso  ? Al
   Al10       1.0     0.552262     0.206902     0.545332    Uiso  ? Al
   Al11       1.0     0.110198     0.426865     0.299227    Uiso  ? Al
   Al12       1.0     0.779987     0.433006     0.798298    Uiso  ? Al
   Al13       1.0     0.889294     0.538522     0.547957    Uiso  ? Al
   Al14       1.0     0.444637     0.421911     0.299216    Uiso  ? Al
   Al15       1.0     0.558587     0.532787     0.045283    Uiso  ? Al
   Al16       1.0     0.111803     0.428470     0.798094    Uiso  ? Al
   Al17       1.0     0.221814     0.538481     0.548693    Uiso  ? Al
   Al18       1.0     0.783875     0.423771     0.298893    Uiso  ? Al
   Al19       1.0     0.890476     0.536851     0.050657    Uiso  ? Al
   Al20       1.0     0.436346     0.433145     0.796322    Uiso  ? Al
   Al21       1.0     0.559134     0.532654     0.554369    Uiso  ? Al
   Al22       1.0     0.105245     0.761304     0.299216    Uiso  ? Al
   Al23       1.0     0.216120     0.875254     0.045283    Uiso  ? Al
   Al24       1.0     0.780132     0.753830     0.798463    Uiso  ? Al
   Al25       1.0     0.890236     0.868928     0.545332    Uiso  ? Al
   Al26       1.0     0.557690     0.874356     0.044966    Uiso  ? Al
   Al27       1.0     0.116478     0.753013     0.796322    Uiso  ? Al
   Al28       1.0     0.215987     0.875800     0.554369    Uiso  ? Al
   Al29       1.0     0.783949     0.759254     0.299550    Uiso  ? Al
   Al30       1.0     0.893627     0.865820     0.052370    Uiso  ? Al
   Al31       1.0     0.444200     0.760867     0.797802    Uiso  ? Al
   Al32       1.0     0.558418     0.875084     0.554397    Uiso  ? Al
   Hf1        1.0     0.777950     0.094617     0.815844    Uiso  ? Hf
   Hf2        1.0     0.443924     0.760590     0.304257    Uiso  ? Hf
   Mg1        1.0     0.777687     0.094354     0.294405    Uiso  ? Mg
   Mg2        1.0     0.221876     0.538543     0.051767    Uiso  ? Mg
   N1         1.0     0.223444     0.203334     0.358633    Uiso  ? N
   N2         1.0     0.113780     0.092865     0.108206    Uiso  ? N
   N3         1.0     0.900354     0.217020     0.861298    Uiso  ? N
   N4         1.0     0.778001     0.094668     0.603972    Uiso  ? N
   N5         1.0     0.542993     0.210551     0.360386    Uiso  ? N
   N6         1.0     0.443979     0.093084     0.108246    Uiso  ? N
   N7         1.0     0.221675     0.206696     0.858913    Uiso  ? N
   N8         1.0     0.110858     0.096115     0.609531    Uiso  ? N
   N9         1.0     0.895561     0.212228     0.358869    Uiso  ? N
   N10        1.0     0.777863     0.094530     0.075615    Uiso  ? N
   N11        1.0     0.533412     0.216541     0.860498    Uiso  ? N
   N12        1.0     0.443159     0.095425     0.609635    Uiso  ? N
   N13        1.0     0.222590     0.539256     0.356981    Uiso  ? N
   N14        1.0     0.103364     0.420031     0.112881    Uiso  ? N
   N15        1.0     0.890029     0.538341     0.858913    Uiso  ? N
   N16        1.0     0.779449     0.427524     0.609531    Uiso  ? N
   N17        1.0     0.564937     0.522188     0.364488    Uiso  ? N
   N18        1.0     0.459033     0.422410     0.113001    Uiso  ? N
   N19        1.0     0.221425     0.538092     0.846191    Uiso  ? N
   N20        1.0     0.110237     0.426904     0.605771    Uiso  ? N
   N21        1.0     0.886668     0.540110     0.358633    Uiso  ? N
   N22        1.0     0.776198     0.430447     0.108206    Uiso  ? N
   N23        1.0     0.556427     0.537412     0.853749    Uiso  ? N
   N24        1.0     0.444899     0.426819     0.607194    Uiso  ? N
   N25        1.0     0.205522     0.881604     0.364488    Uiso  ? N
   N26        1.0     0.105744     0.775699     0.113001    Uiso  ? N
   N27        1.0     0.899874     0.850079     0.860498    Uiso  ? N
   N28        1.0     0.778758     0.759826     0.609635    Uiso  ? N
   N29        1.0     0.563600     0.880267     0.363189    Uiso  ? N
   N30        1.0     0.444617     0.761283     0.096702    Uiso  ? N
   N31        1.0     0.220746     0.873094     0.853749    Uiso  ? N
   N32        1.0     0.110153     0.761565     0.607194    Uiso  ? N
   N33        1.0     0.893884     0.859659     0.360386    Uiso  ? N
   N34        1.0     0.776417     0.760645     0.108246    Uiso  ? N
   N35        1.0     0.556134     0.872801     0.854332    Uiso  ? N
   N36        1.0     0.444467     0.761133     0.602346    Uiso  ? N
