
#======================================================================
# CRYSTAL DATA
#----------------------------------------------------------------------
data_VESTA_phase_1

_chemical_name_common                  'Al   Hf   Mg   N                      '
_cell_length_a                         9.929358
_cell_length_b                         9.929358
_cell_length_c                         8.909070
_cell_angle_alpha                      89.991203
_cell_angle_beta                       89.991203
_cell_angle_gamma                      59.939568
_cell_volume                           760.222126
_space_group_name_H-M_alt              'P 1'
_space_group_IT_number                 1

loop_
_space_group_symop_operation_xyz
   'x, y, z'

loop_
   _atom_site_label
   _atom_site_occupancy
   _atom_site_fract_x
   _atom_site_fract_y
   _atom_site_fract_z
   _atom_site_adp_type
   _atom_site_U_iso_or_equiv
   _atom_site_type_symbol
   Al1        1.0     0.112650     0.096863     0.336014    Uiso  ? Al
   Al2        1.0     0.220576     0.205779     0.087223    Uiso  ? Al
   Al3        1.0     0.891808     0.208475     0.574953    Uiso  ? Al
   Al4        1.0     0.440715     0.097609     0.336438    Uiso  ? Al
   Al5        1.0     0.552805     0.207057     0.104543    Uiso  ? Al
   Al6        1.0     0.112190     0.099870     0.838745    Uiso  ? Al
   Al7        1.0     0.221418     0.206786     0.588267    Uiso  ? Al
   Al8        1.0     0.891676     0.208343     0.105636    Uiso  ? Al
   Al9        1.0     0.438625     0.098838     0.839124    Uiso  ? Al
   Al10       1.0     0.549495     0.209370     0.576886    Uiso  ? Al
   Al11       1.0     0.110562     0.427229     0.338301    Uiso  ? Al
   Al12       1.0     0.783204     0.428857     0.838745    Uiso  ? Al
   Al13       1.0     0.890119     0.538085     0.588267    Uiso  ? Al
   Al14       1.0     0.441537     0.428178     0.332795    Uiso  ? Al
   Al15       1.0     0.559109     0.535196     0.078077    Uiso  ? Al
   Al16       1.0     0.111200     0.427867     0.839287    Uiso  ? Al
   Al17       1.0     0.221947     0.538614     0.596943    Uiso  ? Al
   Al18       1.0     0.780196     0.429317     0.336014    Uiso  ? Al
   Al19       1.0     0.889112     0.537242     0.087223    Uiso  ? Al
   Al20       1.0     0.438089     0.428723     0.844589    Uiso  ? Al
   Al21       1.0     0.560189     0.528770     0.602964    Uiso  ? Al
   Al22       1.0     0.111511     0.758204     0.332795    Uiso  ? Al
   Al23       1.0     0.218529     0.875776     0.078077    Uiso  ? Al
   Al24       1.0     0.782172     0.755292     0.839124    Uiso  ? Al
   Al25       1.0     0.892703     0.866162     0.576886    Uiso  ? Al
   Al26       1.0     0.557014     0.873681     0.080001    Uiso  ? Al
   Al27       1.0     0.112057     0.754755     0.844589    Uiso  ? Al
   Al28       1.0     0.212103     0.876855     0.602964    Uiso  ? Al
   Al29       1.0     0.780943     0.757381     0.336438    Uiso  ? Al
   Al30       1.0     0.890391     0.869472     0.104543    Uiso  ? Al
   Al31       1.0     0.444781     0.761448     0.837177    Uiso  ? Al
   Al32       1.0     0.560197     0.876863     0.600862    Uiso  ? Al
   Hf1        1.0     0.778071     0.094738     0.853425    Uiso  ? Hf
   Hf2        1.0     0.444052     0.760719     0.355195    Uiso  ? Hf
   Mg1        1.0     0.777713     0.094380     0.346449    Uiso  ? Mg
   Mg2        1.0     0.220853     0.537520     0.094313    Uiso  ? Mg
   N1         1.0     0.223599     0.203192     0.370805    Uiso  ? N
   N2         1.0     0.116405     0.091007     0.117505    Uiso  ? N
   N3         1.0     0.897916     0.214583     0.878485    Uiso  ? N
   N4         1.0     0.778295     0.094961     0.606940    Uiso  ? N
   N5         1.0     0.539208     0.213157     0.360550    Uiso  ? N
   N6         1.0     0.443068     0.091293     0.117124    Uiso  ? N
   N7         1.0     0.221860     0.206641     0.868188    Uiso  ? N
   N8         1.0     0.108475     0.098220     0.621159    Uiso  ? N
   N9         1.0     0.897294     0.213961     0.358565    Uiso  ? N
   N10        1.0     0.777971     0.094638     0.106999    Uiso  ? N
   N11        1.0     0.539528     0.211765     0.875782    Uiso  ? N
   N12        1.0     0.443422     0.097218     0.621186    Uiso  ? N
   N13        1.0     0.222803     0.539469     0.370462    Uiso  ? N
   N14        1.0     0.103107     0.419774     0.121314    Uiso  ? N
   N15        1.0     0.889974     0.538526     0.868188    Uiso  ? N
   N16        1.0     0.781553     0.425141     0.621159    Uiso  ? N
   N17        1.0     0.564227     0.521815     0.377912    Uiso  ? N
   N18        1.0     0.457483     0.425080     0.114798    Uiso  ? N
   N19        1.0     0.220672     0.537339     0.855000    Uiso  ? N
   N20        1.0     0.109869     0.426536     0.616859    Uiso  ? N
   N21        1.0     0.886525     0.540266     0.370805    Uiso  ? N
   N22        1.0     0.774340     0.433071     0.117505    Uiso  ? N
   N23        1.0     0.557149     0.538838     0.859061    Uiso  ? N
   N24        1.0     0.445710     0.424468     0.623105    Uiso  ? N
   N25        1.0     0.205149     0.880893     0.377912    Uiso  ? N
   N26        1.0     0.108413     0.774150     0.114798    Uiso  ? N
   N27        1.0     0.895099     0.856194     0.875782    Uiso  ? N
   N28        1.0     0.780552     0.760088     0.621186    Uiso  ? N
   N29        1.0     0.563940     0.880607     0.375641    Uiso  ? N
   N30        1.0     0.444576     0.761243     0.109473    Uiso  ? N
   N31        1.0     0.222171     0.873816     0.859061    Uiso  ? N
   N32        1.0     0.107802     0.762376     0.623105    Uiso  ? N
   N33        1.0     0.896490     0.855874     0.360550    Uiso  ? N
   N34        1.0     0.774626     0.759734     0.117124    Uiso  ? N
   N35        1.0     0.556013     0.872680     0.860947    Uiso  ? N
   N36        1.0     0.444837     0.761503     0.614022    Uiso  ? N
