
#======================================================================
# CRYSTAL DATA
#----------------------------------------------------------------------
data_VESTA_phase_1

_chemical_name_common                  'Al   Hf   Mg   N                      '
_cell_length_a                         9.886182
_cell_length_b                         9.886182
_cell_length_c                         9.042008
_cell_angle_alpha                      89.991234
_cell_angle_beta                       89.991234
_cell_angle_gamma                      59.938793
_cell_volume                           764.864550
_space_group_name_H-M_alt              'P 1'
_space_group_IT_number                 1

loop_
_space_group_symop_operation_xyz
   'x, y, z'

loop_
   _atom_site_label
   _atom_site_occupancy
   _atom_site_fract_x
   _atom_site_fract_y
   _atom_site_fract_z
   _atom_site_adp_type
   _atom_site_U_iso_or_equiv
   _atom_site_type_symbol
   Al1        1.0     0.112509     0.096946     0.333367    Uiso  ? Al
   Al2        1.0     0.220459     0.205940     0.084738    Uiso  ? Al
   Al3        1.0     0.891796     0.208462     0.573071    Uiso  ? Al
   Al4        1.0     0.440805     0.097730     0.333671    Uiso  ? Al
   Al5        1.0     0.552488     0.207317     0.101175    Uiso  ? Al
   Al6        1.0     0.112343     0.099871     0.836271    Uiso  ? Al
   Al7        1.0     0.221518     0.206625     0.585602    Uiso  ? Al
   Al8        1.0     0.891786     0.208453     0.102747    Uiso  ? Al
   Al9        1.0     0.438472     0.098836     0.836587    Uiso  ? Al
   Al10       1.0     0.549570     0.209237     0.574760    Uiso  ? Al
   Al11       1.0     0.110432     0.427099     0.335917    Uiso  ? Al
   Al12       1.0     0.783204     0.429010     0.836271    Uiso  ? Al
   Al13       1.0     0.889959     0.538184     0.585602    Uiso  ? Al
   Al14       1.0     0.441878     0.427837     0.330337    Uiso  ? Al
   Al15       1.0     0.558717     0.535750     0.076236    Uiso  ? Al
   Al16       1.0     0.111258     0.427925     0.835960    Uiso  ? Al
   Al17       1.0     0.221961     0.538628     0.593744    Uiso  ? Al
   Al18       1.0     0.780280     0.429175     0.333367    Uiso  ? Al
   Al19       1.0     0.889274     0.537126     0.084738    Uiso  ? Al
   Al20       1.0     0.437846     0.428964     0.841255    Uiso  ? Al
   Al21       1.0     0.560503     0.528335     0.599844    Uiso  ? Al
   Al22       1.0     0.111170     0.758545     0.330337    Uiso  ? Al
   Al23       1.0     0.219083     0.875384     0.076236    Uiso  ? Al
   Al24       1.0     0.782170     0.755139     0.836587    Uiso  ? Al
   Al25       1.0     0.892571     0.866237     0.574760    Uiso  ? Al
   Al26       1.0     0.556696     0.873363     0.077948    Uiso  ? Al
   Al27       1.0     0.112297     0.754513     0.841255    Uiso  ? Al
   Al28       1.0     0.211668     0.877170     0.599844    Uiso  ? Al
   Al29       1.0     0.781064     0.757472     0.333671    Uiso  ? Al
   Al30       1.0     0.890650     0.869155     0.101175    Uiso  ? Al
   Al31       1.0     0.444772     0.761439     0.833051    Uiso  ? Al
   Al32       1.0     0.560475     0.877142     0.597643    Uiso  ? Al
   Hf1        1.0     0.778112     0.094778     0.852693    Uiso  ? Hf
   Hf2        1.0     0.444055     0.760722     0.354331    Uiso  ? Hf
   Mg1        1.0     0.777679     0.094346     0.343939    Uiso  ? Mg
   Mg2        1.0     0.220819     0.537486     0.091796    Uiso  ? Mg
   N1         1.0     0.223696     0.203024     0.373337    Uiso  ? N
   N2         1.0     0.116654     0.090784     0.120048    Uiso  ? N
   N3         1.0     0.898251     0.214917     0.881168    Uiso  ? N
   N4         1.0     0.778253     0.094920     0.609485    Uiso  ? N
   N5         1.0     0.539189     0.213124     0.363329    Uiso  ? N
   N6         1.0     0.443057     0.091112     0.119730    Uiso  ? N
   N7         1.0     0.221786     0.206768     0.870889    Uiso  ? N
   N8         1.0     0.108332     0.098457     0.623770    Uiso  ? N
   N9         1.0     0.897284     0.213951     0.361140    Uiso  ? N
   N10        1.0     0.777980     0.094647     0.106502    Uiso  ? N
   N11        1.0     0.538844     0.212190     0.878847    Uiso  ? N
   N12        1.0     0.443365     0.097451     0.623915    Uiso  ? N
   N13        1.0     0.222846     0.539513     0.372502    Uiso  ? N
   N14        1.0     0.102921     0.419587     0.124473    Uiso  ? N
   N15        1.0     0.890102     0.538453     0.870889    Uiso  ? N
   N16        1.0     0.781791     0.424999     0.623770    Uiso  ? N
   N17        1.0     0.564609     0.521154     0.380940    Uiso  ? N
   N18        1.0     0.457728     0.425244     0.118112    Uiso  ? N
   N19        1.0     0.220641     0.537308     0.857795    Uiso  ? N
   N20        1.0     0.109860     0.426526     0.619359    Uiso  ? N
   N21        1.0     0.886357     0.540363     0.373337    Uiso  ? N
   N22        1.0     0.774117     0.433321     0.120048    Uiso  ? N
   N23        1.0     0.556945     0.539076     0.861470    Uiso  ? N
   N24        1.0     0.445678     0.424256     0.625560    Uiso  ? N
   N25        1.0     0.204488     0.881275     0.380940    Uiso  ? N
   N26        1.0     0.108577     0.774395     0.118112    Uiso  ? N
   N27        1.0     0.895524     0.855511     0.878847    Uiso  ? N
   N28        1.0     0.780784     0.760032     0.623915    Uiso  ? N
   N29        1.0     0.564283     0.880949     0.378733    Uiso  ? N
   N30        1.0     0.444583     0.761250     0.113616    Uiso  ? N
   N31        1.0     0.222409     0.873612     0.861470    Uiso  ? N
   N32        1.0     0.107589     0.762344     0.625560    Uiso  ? N
   N33        1.0     0.896457     0.855856     0.363329    Uiso  ? N
   N34        1.0     0.774446     0.759724     0.119730    Uiso  ? N
   N35        1.0     0.555841     0.872508     0.863419    Uiso  ? N
   N36        1.0     0.444826     0.761493     0.614303    Uiso  ? N
