
#======================================================================
# CRYSTAL DATA
#----------------------------------------------------------------------
data_VESTA_phase_1

_chemical_name_common                  'Al   Hf   Mg   N                      '
_cell_length_a                         9.527899
_cell_length_b                         9.527899
_cell_length_c                         10.081908
_cell_angle_alpha                      90.018227
_cell_angle_beta                       90.018227
_cell_angle_gamma                      59.973568
_cell_volume                           792.413522
_space_group_name_H-M_alt              'P 1'
_space_group_IT_number                 1

loop_
_space_group_symop_operation_xyz
   'x, y, z'

loop_
   _atom_site_label
   _atom_site_occupancy
   _atom_site_fract_x
   _atom_site_fract_y
   _atom_site_fract_z
   _atom_site_adp_type
   _atom_site_U_iso_or_equiv
   _atom_site_type_symbol
   Al1        1.0     0.107107     0.100544     0.312896    Uiso  ? Al
   Al2        1.0     0.220187     0.207145     0.064660    Uiso  ? Al
   Al3        1.0     0.890771     0.207438     0.559021    Uiso  ? Al
   Al4        1.0     0.442591     0.100619     0.313553    Uiso  ? Al
   Al5        1.0     0.549156     0.210296     0.066377    Uiso  ? Al
   Al6        1.0     0.116343     0.096656     0.812301    Uiso  ? Al
   Al7        1.0     0.221859     0.205963     0.561959    Uiso  ? Al
   Al8        1.0     0.892718     0.209385     0.066587    Uiso  ? Al
   Al9        1.0     0.437167     0.096801     0.812466    Uiso  ? Al
   Al10       1.0     0.552265     0.206906     0.559337    Uiso  ? Al
   Al11       1.0     0.110201     0.426868     0.313229    Uiso  ? Al
   Al12       1.0     0.779990     0.433009     0.812301    Uiso  ? Al
   Al13       1.0     0.889297     0.538525     0.561959    Uiso  ? Al
   Al14       1.0     0.444640     0.421914     0.313221    Uiso  ? Al
   Al15       1.0     0.558590     0.532791     0.059290    Uiso  ? Al
   Al16       1.0     0.111806     0.428472     0.812096    Uiso  ? Al
   Al17       1.0     0.221817     0.538484     0.562696    Uiso  ? Al
   Al18       1.0     0.783878     0.423774     0.312896    Uiso  ? Al
   Al19       1.0     0.890479     0.536853     0.064660    Uiso  ? Al
   Al20       1.0     0.436349     0.433148     0.810327    Uiso  ? Al
   Al21       1.0     0.559137     0.532656     0.568374    Uiso  ? Al
   Al22       1.0     0.105247     0.761307     0.313221    Uiso  ? Al
   Al23       1.0     0.216124     0.875257     0.059290    Uiso  ? Al
   Al24       1.0     0.780135     0.753833     0.812466    Uiso  ? Al
   Al25       1.0     0.890239     0.868931     0.559337    Uiso  ? Al
   Al26       1.0     0.557693     0.874359     0.058972    Uiso  ? Al
   Al27       1.0     0.116481     0.753016     0.810327    Uiso  ? Al
   Al28       1.0     0.215990     0.875803     0.568374    Uiso  ? Al
   Al29       1.0     0.783952     0.759258     0.313553    Uiso  ? Al
   Al30       1.0     0.893630     0.865823     0.066377    Uiso  ? Al
   Al31       1.0     0.444203     0.760870     0.811807    Uiso  ? Al
   Al32       1.0     0.558421     0.875088     0.568401    Uiso  ? Al
   Hf1        1.0     0.777953     0.094620     0.829850    Uiso  ? Hf
   Hf2        1.0     0.443927     0.760594     0.318263    Uiso  ? Hf
   Mg1        1.0     0.777690     0.094357     0.308411    Uiso  ? Mg
   Mg2        1.0     0.221879     0.538545     0.065771    Uiso  ? Mg
   N1         1.0     0.223446     0.203337     0.372635    Uiso  ? N
   N2         1.0     0.113783     0.092868     0.122210    Uiso  ? N
   N3         1.0     0.900357     0.217024     0.875303    Uiso  ? N
   N4         1.0     0.778004     0.094671     0.617978    Uiso  ? N
   N5         1.0     0.542996     0.210554     0.374391    Uiso  ? N
   N6         1.0     0.443981     0.093087     0.122251    Uiso  ? N
   N7         1.0     0.221677     0.206699     0.872916    Uiso  ? N
   N8         1.0     0.110861     0.096118     0.623534    Uiso  ? N
   N9         1.0     0.895564     0.212231     0.372874    Uiso  ? N
   N10        1.0     0.777866     0.094533     0.089621    Uiso  ? N
   N11        1.0     0.533415     0.216544     0.874503    Uiso  ? N
   N12        1.0     0.443162     0.095428     0.623638    Uiso  ? N
   N13        1.0     0.222593     0.539259     0.370985    Uiso  ? N
   N14        1.0     0.103367     0.420033     0.126884    Uiso  ? N
   N15        1.0     0.890032     0.538344     0.872916    Uiso  ? N
   N16        1.0     0.779452     0.427527     0.623534    Uiso  ? N
   N17        1.0     0.564940     0.522190     0.378493    Uiso  ? N
   N18        1.0     0.459035     0.422414     0.127006    Uiso  ? N
   N19        1.0     0.221427     0.538094     0.860196    Uiso  ? N
   N20        1.0     0.110240     0.426907     0.619773    Uiso  ? N
   N21        1.0     0.886671     0.540113     0.372635    Uiso  ? N
   N22        1.0     0.776201     0.430450     0.122210    Uiso  ? N
   N23        1.0     0.556430     0.537416     0.867755    Uiso  ? N
   N24        1.0     0.444901     0.426823     0.621199    Uiso  ? N
   N25        1.0     0.205524     0.881607     0.378493    Uiso  ? N
   N26        1.0     0.105747     0.775702     0.127006    Uiso  ? N
   N27        1.0     0.899877     0.850082     0.874503    Uiso  ? N
   N28        1.0     0.778761     0.759829     0.623638    Uiso  ? N
   N29        1.0     0.563603     0.880270     0.377193    Uiso  ? N
   N30        1.0     0.444620     0.761286     0.110708    Uiso  ? N
   N31        1.0     0.220749     0.873097     0.867755    Uiso  ? N
   N32        1.0     0.110156     0.761568     0.621199    Uiso  ? N
   N33        1.0     0.893887     0.859662     0.374391    Uiso  ? N
   N34        1.0     0.776420     0.760648     0.122251    Uiso  ? N
   N35        1.0     0.556137     0.872804     0.868336    Uiso  ? N
   N36        1.0     0.444469     0.761136     0.616350    Uiso  ? N
