
#======================================================================
# CRYSTAL DATA
#----------------------------------------------------------------------
data_VESTA_phase_1

_chemical_name_common                  'Al   Hf   Mg   N                      '
_cell_length_a                         9.527894
_cell_length_b                         9.527894
_cell_length_c                         10.081916
_cell_angle_alpha                      90.018272
_cell_angle_beta                       90.018272
_cell_angle_gamma                      59.973621
_cell_volume                           792.413755
_space_group_name_H-M_alt              'P 1'
_space_group_IT_number                 1

loop_
_space_group_symop_operation_xyz
   'x, y, z'

loop_
   _atom_site_label
   _atom_site_occupancy
   _atom_site_fract_x
   _atom_site_fract_y
   _atom_site_fract_z
   _atom_site_adp_type
   _atom_site_U_iso_or_equiv
   _atom_site_type_symbol
   Al1        1.0     0.107105     0.100542     0.302286    Uiso  ? Al
   Al2        1.0     0.220185     0.207143     0.054047    Uiso  ? Al
   Al3        1.0     0.890769     0.207436     0.548412    Uiso  ? Al
   Al4        1.0     0.442589     0.100617     0.302942    Uiso  ? Al
   Al5        1.0     0.549154     0.210294     0.055764    Uiso  ? Al
   Al6        1.0     0.116340     0.096654     0.801690    Uiso  ? Al
   Al7        1.0     0.221856     0.205962     0.551349    Uiso  ? Al
   Al8        1.0     0.892716     0.209383     0.055975    Uiso  ? Al
   Al9        1.0     0.437164     0.096799     0.801856    Uiso  ? Al
   Al10       1.0     0.552261     0.206904     0.548729    Uiso  ? Al
   Al11       1.0     0.110199     0.426865     0.302616    Uiso  ? Al
   Al12       1.0     0.779987     0.433007     0.801690    Uiso  ? Al
   Al13       1.0     0.889295     0.538523     0.551349    Uiso  ? Al
   Al14       1.0     0.444638     0.421912     0.302609    Uiso  ? Al
   Al15       1.0     0.558589     0.532788     0.048681    Uiso  ? Al
   Al16       1.0     0.111804     0.428470     0.801487    Uiso  ? Al
   Al17       1.0     0.221815     0.538482     0.552086    Uiso  ? Al
   Al18       1.0     0.783875     0.423772     0.302286    Uiso  ? Al
   Al19       1.0     0.890476     0.536851     0.054047    Uiso  ? Al
   Al20       1.0     0.436346     0.433146     0.799721    Uiso  ? Al
   Al21       1.0     0.559133     0.532655     0.557767    Uiso  ? Al
   Al22       1.0     0.105245     0.761305     0.302609    Uiso  ? Al
   Al23       1.0     0.216121     0.875255     0.048681    Uiso  ? Al
   Al24       1.0     0.780132     0.753831     0.801856    Uiso  ? Al
   Al25       1.0     0.890238     0.868928     0.548729    Uiso  ? Al
   Al26       1.0     0.557691     0.874357     0.048362    Uiso  ? Al
   Al27       1.0     0.116479     0.753013     0.799721    Uiso  ? Al
   Al28       1.0     0.215988     0.875800     0.557767    Uiso  ? Al
   Al29       1.0     0.783951     0.759255     0.302942    Uiso  ? Al
   Al30       1.0     0.893627     0.865821     0.055764    Uiso  ? Al
   Al31       1.0     0.444201     0.760868     0.801201    Uiso  ? Al
   Al32       1.0     0.558418     0.875085     0.557793    Uiso  ? Al
   Hf1        1.0     0.777951     0.094618     0.819239    Uiso  ? Hf
   Hf2        1.0     0.443924     0.760591     0.307654    Uiso  ? Hf
   Mg1        1.0     0.777688     0.094354     0.297802    Uiso  ? Mg
   Mg2        1.0     0.221876     0.538543     0.055162    Uiso  ? Mg
   N1         1.0     0.223444     0.203336     0.362025    Uiso  ? N
   N2         1.0     0.113780     0.092866     0.111600    Uiso  ? N
   N3         1.0     0.900355     0.217021     0.864692    Uiso  ? N
   N4         1.0     0.778002     0.094668     0.607368    Uiso  ? N
   N5         1.0     0.542993     0.210552     0.363782    Uiso  ? N
   N6         1.0     0.443979     0.093085     0.111640    Uiso  ? N
   N7         1.0     0.221676     0.206696     0.862304    Uiso  ? N
   N8         1.0     0.110859     0.096116     0.612925    Uiso  ? N
   N9         1.0     0.895562     0.212229     0.362265    Uiso  ? N
   N10        1.0     0.777864     0.094530     0.079010    Uiso  ? N
   N11        1.0     0.533413     0.216541     0.863892    Uiso  ? N
   N12        1.0     0.443159     0.095426     0.613029    Uiso  ? N
   N13        1.0     0.222590     0.539257     0.360373    Uiso  ? N
   N14        1.0     0.103364     0.420031     0.116271    Uiso  ? N
   N15        1.0     0.890029     0.538342     0.862304    Uiso  ? N
   N16        1.0     0.779450     0.427525     0.612925    Uiso  ? N
   N17        1.0     0.564938     0.522189     0.367885    Uiso  ? N
   N18        1.0     0.459034     0.422410     0.116394    Uiso  ? N
   N19        1.0     0.221425     0.538092     0.849588    Uiso  ? N
   N20        1.0     0.110238     0.426905     0.609164    Uiso  ? N
   N21        1.0     0.886669     0.540111     0.362025    Uiso  ? N
   N22        1.0     0.776199     0.430447     0.111600    Uiso  ? N
   N23        1.0     0.556428     0.537413     0.857146    Uiso  ? N
   N24        1.0     0.444898     0.426821     0.610592    Uiso  ? N
   N25        1.0     0.205522     0.881604     0.367885    Uiso  ? N
   N26        1.0     0.105744     0.775700     0.116394    Uiso  ? N
   N27        1.0     0.899874     0.850079     0.863892    Uiso  ? N
   N28        1.0     0.778759     0.759826     0.613029    Uiso  ? N
   N29        1.0     0.563602     0.880268     0.366584    Uiso  ? N
   N30        1.0     0.444618     0.761284     0.100098    Uiso  ? N
   N31        1.0     0.220746     0.873095     0.857146    Uiso  ? N
   N32        1.0     0.110154     0.761565     0.610592    Uiso  ? N
   N33        1.0     0.893885     0.859659     0.363782    Uiso  ? N
   N34        1.0     0.776418     0.760645     0.111640    Uiso  ? N
   N35        1.0     0.556135     0.872802     0.857727    Uiso  ? N
   N36        1.0     0.444467     0.761134     0.605744    Uiso  ? N
