
#======================================================================
# CRYSTAL DATA
#----------------------------------------------------------------------
data_VESTA_phase_1

_chemical_name_common                  'Al   Hf   Mg   N                      '
_cell_length_a                         9.970543
_cell_length_b                         9.970543
_cell_length_c                         8.782745
_cell_angle_alpha                      89.991615
_cell_angle_beta                       89.991615
_cell_angle_gamma                      59.941257
_cell_volume                           755.685614
_space_group_name_H-M_alt              'P 1'
_space_group_IT_number                 1

loop_
_space_group_symop_operation_xyz
   'x, y, z'

loop_
   _atom_site_label
   _atom_site_occupancy
   _atom_site_fract_x
   _atom_site_fract_y
   _atom_site_fract_z
   _atom_site_adp_type
   _atom_site_U_iso_or_equiv
   _atom_site_type_symbol
   Al1        1.0     0.112559     0.096953     0.339152    Uiso  ? Al
   Al2        1.0     0.220697     0.205646     0.090292    Uiso  ? Al
   Al3        1.0     0.891778     0.208444     0.577437    Uiso  ? Al
   Al4        1.0     0.440692     0.097643     0.339856    Uiso  ? Al
   Al5        1.0     0.552992     0.206910     0.107637    Uiso  ? Al
   Al6        1.0     0.112231     0.099670     0.841558    Uiso  ? Al
   Al7        1.0     0.221309     0.206951     0.591342    Uiso  ? Al
   Al8        1.0     0.891604     0.208270     0.108031    Uiso  ? Al
   Al9        1.0     0.438760     0.098694     0.842061    Uiso  ? Al
   Al10       1.0     0.549538     0.209404     0.579754    Uiso  ? Al
   Al11       1.0     0.110705     0.427371     0.341022    Uiso  ? Al
   Al12       1.0     0.783003     0.428898     0.841558    Uiso  ? Al
   Al13       1.0     0.890284     0.537976     0.591342    Uiso  ? Al
   Al14       1.0     0.441256     0.428267     0.336011    Uiso  ? Al
   Al15       1.0     0.559491     0.534483     0.080574    Uiso  ? Al
   Al16       1.0     0.111176     0.427842     0.843287    Uiso  ? Al
   Al17       1.0     0.221912     0.538578     0.599663    Uiso  ? Al
   Al18       1.0     0.780287     0.429225     0.339152    Uiso  ? Al
   Al19       1.0     0.888979     0.537363     0.090292    Uiso  ? Al
   Al20       1.0     0.438260     0.428697     0.847905    Uiso  ? Al
   Al21       1.0     0.559865     0.529296     0.605749    Uiso  ? Al
   Al22       1.0     0.111600     0.757923     0.336011    Uiso  ? Al
   Al23       1.0     0.217817     0.876158     0.080574    Uiso  ? Al
   Al24       1.0     0.782027     0.755426     0.842061    Uiso  ? Al
   Al25       1.0     0.892738     0.866205     0.579754    Uiso  ? Al
   Al26       1.0     0.557388     0.874054     0.082744    Uiso  ? Al
   Al27       1.0     0.112031     0.754927     0.847905    Uiso  ? Al
   Al28       1.0     0.212629     0.876532     0.605749    Uiso  ? Al
   Al29       1.0     0.780976     0.757358     0.339856    Uiso  ? Al
   Al30       1.0     0.890243     0.869659     0.107637    Uiso  ? Al
   Al31       1.0     0.444765     0.761431     0.841524    Uiso  ? Al
   Al32       1.0     0.559869     0.876535     0.603987    Uiso  ? Al
   Hf1        1.0     0.778029     0.094695     0.853865    Uiso  ? Hf
   Hf2        1.0     0.444059     0.760725     0.355613    Uiso  ? Hf
   Mg1        1.0     0.777746     0.094412     0.348630    Uiso  ? Mg
   Mg2        1.0     0.220949     0.537616     0.096920    Uiso  ? Mg
   N1         1.0     0.223485     0.203379     0.367798    Uiso  ? N
   N2         1.0     0.115943     0.091419     0.114661    Uiso  ? N
   N3         1.0     0.897598     0.214265     0.875033    Uiso  ? N
   N4         1.0     0.778359     0.095026     0.604773    Uiso  ? N
   N5         1.0     0.539324     0.213107     0.358317    Uiso  ? N
   N6         1.0     0.443114     0.091705     0.114163    Uiso  ? N
   N7         1.0     0.221933     0.206513     0.865102    Uiso  ? N
   N8         1.0     0.108807     0.097785     0.618179    Uiso  ? N
   N9         1.0     0.897269     0.213935     0.356496    Uiso  ? N
   N10        1.0     0.777928     0.094595     0.107357    Uiso  ? N
   N11        1.0     0.540099     0.211492     0.871676    Uiso  ? N
   N12        1.0     0.443472     0.096757     0.617988    Uiso  ? N
   N13        1.0     0.222734     0.539401     0.368320    Uiso  ? N
   N14        1.0     0.103336     0.420003     0.117687    Uiso  ? N
   N15        1.0     0.889846     0.538599     0.865102    Uiso  ? N
   N16        1.0     0.781119     0.425473     0.618179    Uiso  ? N
   N17        1.0     0.563881     0.522513     0.374101    Uiso  ? N
   N18        1.0     0.457263     0.424688     0.111527    Uiso  ? N
   N19        1.0     0.220734     0.537401     0.852380    Uiso  ? N
   N20        1.0     0.109909     0.426576     0.613943    Uiso  ? N
   N21        1.0     0.886712     0.540152     0.367798    Uiso  ? N
   N22        1.0     0.774752     0.432609     0.114661    Uiso  ? N
   N23        1.0     0.557281     0.538599     0.857007    Uiso  ? N
   N24        1.0     0.445659     0.424952     0.619975    Uiso  ? N
   N25        1.0     0.205846     0.880547     0.374101    Uiso  ? N
   N26        1.0     0.108021     0.773930     0.111527    Uiso  ? N
   N27        1.0     0.894825     0.856766     0.871676    Uiso  ? N
   N28        1.0     0.780090     0.760138     0.617988    Uiso  ? N
   N29        1.0     0.563585     0.880252     0.371638    Uiso  ? N
   N30        1.0     0.444566     0.761232     0.105343    Uiso  ? N
   N31        1.0     0.221932     0.873947     0.857007    Uiso  ? N
   N32        1.0     0.108285     0.762325     0.619975    Uiso  ? N
   N33        1.0     0.896441     0.855990     0.358317    Uiso  ? N
   N34        1.0     0.775039     0.759780     0.114163    Uiso  ? N
   N35        1.0     0.556166     0.872833     0.858745    Uiso  ? N
   N36        1.0     0.444841     0.761508     0.613739    Uiso  ? N
