
#======================================================================
# CRYSTAL DATA
#----------------------------------------------------------------------
data_VESTA_phase_1

_chemical_name_common                  'Al   Hf   Mg   N                      '
_cell_length_a                         9.528043
_cell_length_b                         9.528043
_cell_length_c                         10.081354
_cell_angle_alpha                      90.019653
_cell_angle_beta                       90.019653
_cell_angle_gamma                      59.975853
_cell_volume                           792.412180
_space_group_name_H-M_alt              'P 1'
_space_group_IT_number                 1

loop_
_space_group_symop_operation_xyz
   'x, y, z'

loop_
   _atom_site_label
   _atom_site_occupancy
   _atom_site_fract_x
   _atom_site_fract_y
   _atom_site_fract_z
   _atom_site_adp_type
   _atom_site_U_iso_or_equiv
   _atom_site_type_symbol
   Al1        1.0     0.106784     0.100889     0.404507    Uiso  ? Al
   Al2        1.0     0.219905     0.207578     0.155641    Uiso  ? Al
   Al3        1.0     0.892009     0.208675     0.652595    Uiso  ? Al
   Al4        1.0     0.442454     0.100990     0.404266    Uiso  ? Al
   Al5        1.0     0.551824     0.208906     0.159331    Uiso  ? Al
   Al6        1.0     0.116588     0.096374     0.907183    Uiso  ? Al
   Al7        1.0     0.222026     0.205706     0.654643    Uiso  ? Al
   Al8        1.0     0.891195     0.207861     0.158981    Uiso  ? Al
   Al9        1.0     0.437307     0.096557     0.906761    Uiso  ? Al
   Al10       1.0     0.550017     0.207946     0.652466    Uiso  ? Al
   Al11       1.0     0.111958     0.428624     0.405899    Uiso  ? Al
   Al12       1.0     0.779707     0.433255     0.907183    Uiso  ? Al
   Al13       1.0     0.889040     0.538692     0.654643    Uiso  ? Al
   Al14       1.0     0.441764     0.423553     0.406699    Uiso  ? Al
   Al15       1.0     0.559971     0.530265     0.149592    Uiso  ? Al
   Al16       1.0     0.110308     0.426975     0.905940    Uiso  ? Al
   Al17       1.0     0.222020     0.538687     0.653314    Uiso  ? Al
   Al18       1.0     0.784223     0.423451     0.404507    Uiso  ? Al
   Al19       1.0     0.890911     0.536571     0.155641    Uiso  ? Al
   Al20       1.0     0.438969     0.431801     0.906558    Uiso  ? Al
   Al21       1.0     0.558007     0.535101     0.659575    Uiso  ? Al
   Al22       1.0     0.106886     0.758430     0.406699    Uiso  ? Al
   Al23       1.0     0.213598     0.876638     0.149592    Uiso  ? Al
   Al24       1.0     0.779890     0.753973     0.906761    Uiso  ? Al
   Al25       1.0     0.891280     0.866684     0.652466    Uiso  ? Al
   Al26       1.0     0.558835     0.875501     0.149962    Uiso  ? Al
   Al27       1.0     0.115134     0.755636     0.906558    Uiso  ? Al
   Al28       1.0     0.218435     0.874674     0.659575    Uiso  ? Al
   Al29       1.0     0.784323     0.759121     0.404266    Uiso  ? Al
   Al30       1.0     0.892240     0.868491     0.159331    Uiso  ? Al
   Al31       1.0     0.444286     0.760952     0.908342    Uiso  ? Al
   Al32       1.0     0.557374     0.874041     0.659400    Uiso  ? Al
   Hf1        1.0     0.777712     0.094379     0.894230    Uiso  ? Hf
   Hf2        1.0     0.444135     0.760802     0.397085    Uiso  ? Hf
   Mg1        1.0     0.777915     0.094582     0.406757    Uiso  ? Mg
   Mg2        1.0     0.221960     0.538627     0.155415    Uiso  ? Mg
   N1         1.0     0.222564     0.204860     0.347338    Uiso  ? N
   N2         1.0     0.111447     0.095739     0.095475    Uiso  ? N
   N3         1.0     0.899637     0.216304     0.843649    Uiso  ? N
   N4         1.0     0.778056     0.094723     0.624032    Uiso  ? N
   N5         1.0     0.541991     0.212434     0.345838    Uiso  ? N
   N6         1.0     0.443034     0.095719     0.095508    Uiso  ? N
   N7         1.0     0.222423     0.205411     0.844146    Uiso  ? N
   N8         1.0     0.112910     0.093332     0.595790    Uiso  ? N
   N9         1.0     0.895855     0.212521     0.345001    Uiso  ? N
   N10        1.0     0.777499     0.094166     0.103884    Uiso  ? N
   N11        1.0     0.534916     0.214356     0.842208    Uiso  ? N
   N12        1.0     0.443931     0.092714     0.595630    Uiso  ? N
   N13        1.0     0.222775     0.539441     0.361252    Uiso  ? N
   N14        1.0     0.103686     0.420352     0.092431    Uiso  ? N
   N15        1.0     0.888744     0.539090     0.844146    Uiso  ? N
   N16        1.0     0.776666     0.429577     0.595790    Uiso  ? N
   N17        1.0     0.564721     0.520772     0.341869    Uiso  ? N
   N18        1.0     0.458520     0.419392     0.090497    Uiso  ? N
   N19        1.0     0.221617     0.538284     0.845448    Uiso  ? N
   N20        1.0     0.110177     0.426843     0.597973    Uiso  ? N
   N21        1.0     0.888193     0.539231     0.347338    Uiso  ? N
   N22        1.0     0.779072     0.428113     0.095475    Uiso  ? N
   N23        1.0     0.556622     0.538920     0.848980    Uiso  ? N
   N24        1.0     0.445896     0.428737     0.598483    Uiso  ? N
   N25        1.0     0.204106     0.881388     0.341869    Uiso  ? N
   N26        1.0     0.102725     0.775187     0.090497    Uiso  ? N
   N27        1.0     0.897689     0.851583     0.842208    Uiso  ? N
   N28        1.0     0.776047     0.760598     0.595630    Uiso  ? N
   N29        1.0     0.564290     0.880957     0.341179    Uiso  ? N
   N30        1.0     0.444394     0.761061     0.104205    Uiso  ? N
   N31        1.0     0.222253     0.873288     0.848980    Uiso  ? N
   N32        1.0     0.112071     0.762563     0.598483    Uiso  ? N
   N33        1.0     0.895768     0.858657     0.345838    Uiso  ? N
   N34        1.0     0.779052     0.759700     0.095508    Uiso  ? N
   N35        1.0     0.555882     0.872548     0.850141    Uiso  ? N
   N36        1.0     0.444544     0.761211     0.605101    Uiso  ? N
