
#======================================================================
# CRYSTAL DATA
#----------------------------------------------------------------------
data_VESTA_phase_1

_chemical_name_common                  'Al   Hf   Mg   N                      '
_cell_length_a                         9.528036
_cell_length_b                         9.528037
_cell_length_c                         10.081376
_cell_angle_alpha                      90.019646
_cell_angle_beta                       90.019646
_cell_angle_gamma                      59.975868
_cell_volume                           792.412995
_space_group_name_H-M_alt              'P 1'
_space_group_IT_number                 1

loop_
_space_group_symop_operation_xyz
   'x, y, z'

loop_
   _atom_site_label
   _atom_site_occupancy
   _atom_site_fract_x
   _atom_site_fract_y
   _atom_site_fract_z
   _atom_site_adp_type
   _atom_site_U_iso_or_equiv
   _atom_site_type_symbol
   Al1        1.0     0.106783     0.100889     0.401050    Uiso  ? Al
   Al2        1.0     0.219904     0.207576     0.152181    Uiso  ? Al
   Al3        1.0     0.892008     0.208675     0.649141    Uiso  ? Al
   Al4        1.0     0.442454     0.100989     0.400810    Uiso  ? Al
   Al5        1.0     0.551823     0.208905     0.155871    Uiso  ? Al
   Al6        1.0     0.116588     0.096373     0.903721    Uiso  ? Al
   Al7        1.0     0.222024     0.205707     0.651187    Uiso  ? Al
   Al8        1.0     0.891194     0.207861     0.155520    Uiso  ? Al
   Al9        1.0     0.437306     0.096556     0.903300    Uiso  ? Al
   Al10       1.0     0.550016     0.207947     0.649011    Uiso  ? Al
   Al11       1.0     0.111957     0.428624     0.402438    Uiso  ? Al
   Al12       1.0     0.779706     0.433254     0.903721    Uiso  ? Al
   Al13       1.0     0.889040     0.538691     0.651187    Uiso  ? Al
   Al14       1.0     0.441763     0.423552     0.403237    Uiso  ? Al
   Al15       1.0     0.559971     0.530265     0.146131    Uiso  ? Al
   Al16       1.0     0.110308     0.426974     0.902483    Uiso  ? Al
   Al17       1.0     0.222019     0.538686     0.649857    Uiso  ? Al
   Al18       1.0     0.784222     0.423449     0.401050    Uiso  ? Al
   Al19       1.0     0.890910     0.536571     0.152181    Uiso  ? Al
   Al20       1.0     0.438968     0.431800     0.903101    Uiso  ? Al
   Al21       1.0     0.558006     0.535101     0.656116    Uiso  ? Al
   Al22       1.0     0.106885     0.758430     0.403237    Uiso  ? Al
   Al23       1.0     0.213598     0.876638     0.146131    Uiso  ? Al
   Al24       1.0     0.779890     0.753972     0.903300    Uiso  ? Al
   Al25       1.0     0.891280     0.866683     0.649011    Uiso  ? Al
   Al26       1.0     0.558834     0.875501     0.146501    Uiso  ? Al
   Al27       1.0     0.115134     0.755635     0.903101    Uiso  ? Al
   Al28       1.0     0.218434     0.874672     0.656116    Uiso  ? Al
   Al29       1.0     0.784322     0.759120     0.400810    Uiso  ? Al
   Al30       1.0     0.892238     0.868490     0.155871    Uiso  ? Al
   Al31       1.0     0.444285     0.760952     0.904883    Uiso  ? Al
   Al32       1.0     0.557374     0.874040     0.655942    Uiso  ? Al
   Hf1        1.0     0.777711     0.094378     0.890773    Uiso  ? Hf
   Hf2        1.0     0.444135     0.760801     0.393627    Uiso  ? Hf
   Mg1        1.0     0.777915     0.094582     0.403299    Uiso  ? Mg
   Mg2        1.0     0.221960     0.538626     0.151957    Uiso  ? Mg
   N1         1.0     0.222564     0.204858     0.343879    Uiso  ? N
   N2         1.0     0.111446     0.095738     0.092014    Uiso  ? N
   N3         1.0     0.899636     0.216303     0.840192    Uiso  ? N
   N4         1.0     0.778056     0.094722     0.620576    Uiso  ? N
   N5         1.0     0.541990     0.212433     0.342378    Uiso  ? N
   N6         1.0     0.443033     0.095718     0.092047    Uiso  ? N
   N7         1.0     0.222422     0.205411     0.840687    Uiso  ? N
   N8         1.0     0.112909     0.093332     0.592333    Uiso  ? N
   N9         1.0     0.895854     0.212521     0.341541    Uiso  ? N
   N10        1.0     0.777498     0.094165     0.100425    Uiso  ? N
   N11        1.0     0.534915     0.214356     0.838752    Uiso  ? N
   N12        1.0     0.443931     0.092714     0.592173    Uiso  ? N
   N13        1.0     0.222774     0.539441     0.357791    Uiso  ? N
   N14        1.0     0.103685     0.420352     0.088973    Uiso  ? N
   N15        1.0     0.888744     0.539089     0.840687    Uiso  ? N
   N16        1.0     0.776665     0.429576     0.592333    Uiso  ? N
   N17        1.0     0.564721     0.520772     0.338409    Uiso  ? N
   N18        1.0     0.458519     0.419391     0.087038    Uiso  ? N
   N19        1.0     0.221617     0.538283     0.841991    Uiso  ? N
   N20        1.0     0.110176     0.426843     0.594514    Uiso  ? N
   N21        1.0     0.888192     0.539231     0.343879    Uiso  ? N
   N22        1.0     0.779072     0.428113     0.092014    Uiso  ? N
   N23        1.0     0.556620     0.538919     0.845521    Uiso  ? N
   N24        1.0     0.445895     0.428736     0.595024    Uiso  ? N
   N25        1.0     0.204105     0.881388     0.338409    Uiso  ? N
   N26        1.0     0.102724     0.775186     0.087038    Uiso  ? N
   N27        1.0     0.897689     0.851582     0.838752    Uiso  ? N
   N28        1.0     0.776047     0.760597     0.592173    Uiso  ? N
   N29        1.0     0.564290     0.880956     0.337720    Uiso  ? N
   N30        1.0     0.444394     0.761060     0.100744    Uiso  ? N
   N31        1.0     0.222253     0.873287     0.845521    Uiso  ? N
   N32        1.0     0.112070     0.762562     0.595024    Uiso  ? N
   N33        1.0     0.895766     0.858657     0.342378    Uiso  ? N
   N34        1.0     0.779051     0.759700     0.092047    Uiso  ? N
   N35        1.0     0.555881     0.872547     0.846682    Uiso  ? N
   N36        1.0     0.444543     0.761210     0.601642    Uiso  ? N
