
#======================================================================
# CRYSTAL DATA
#----------------------------------------------------------------------
data_VESTA_phase_1

_chemical_name_common                  'Al   Hf   Mg   N                      '
_cell_length_a                         9.528079
_cell_length_b                         9.528079
_cell_length_c                         10.081262
_cell_angle_alpha                      90.019623
_cell_angle_beta                       90.019623
_cell_angle_gamma                      59.975864
_cell_volume                           792.411028
_space_group_name_H-M_alt              'P 1'
_space_group_IT_number                 1

loop_
_space_group_symop_operation_xyz
   'x, y, z'

loop_
   _atom_site_label
   _atom_site_occupancy
   _atom_site_fract_x
   _atom_site_fract_y
   _atom_site_fract_z
   _atom_site_adp_type
   _atom_site_U_iso_or_equiv
   _atom_site_type_symbol
   Al1        1.0     0.106781     0.100886     0.390237    Uiso  ? Al
   Al2        1.0     0.219902     0.207574     0.141371    Uiso  ? Al
   Al3        1.0     0.892006     0.208673     0.638324    Uiso  ? Al
   Al4        1.0     0.442452     0.100987     0.389996    Uiso  ? Al
   Al5        1.0     0.551822     0.208902     0.145057    Uiso  ? Al
   Al6        1.0     0.116585     0.096371     0.892910    Uiso  ? Al
   Al7        1.0     0.222022     0.205704     0.640374    Uiso  ? Al
   Al8        1.0     0.891192     0.207858     0.144707    Uiso  ? Al
   Al9        1.0     0.437304     0.096554     0.892489    Uiso  ? Al
   Al10       1.0     0.550013     0.207944     0.638193    Uiso  ? Al
   Al11       1.0     0.111955     0.428621     0.391628    Uiso  ? Al
   Al12       1.0     0.779704     0.433252     0.892910    Uiso  ? Al
   Al13       1.0     0.889037     0.538689     0.640374    Uiso  ? Al
   Al14       1.0     0.441761     0.423550     0.392426    Uiso  ? Al
   Al15       1.0     0.559970     0.530261     0.135319    Uiso  ? Al
   Al16       1.0     0.110305     0.426972     0.891672    Uiso  ? Al
   Al17       1.0     0.222017     0.538684     0.639043    Uiso  ? Al
   Al18       1.0     0.784220     0.423447     0.390237    Uiso  ? Al
   Al19       1.0     0.890908     0.536568     0.141371    Uiso  ? Al
   Al20       1.0     0.438966     0.431798     0.892287    Uiso  ? Al
   Al21       1.0     0.558003     0.535099     0.645300    Uiso  ? Al
   Al22       1.0     0.106883     0.758427     0.392426    Uiso  ? Al
   Al23       1.0     0.213594     0.876636     0.135319    Uiso  ? Al
   Al24       1.0     0.779887     0.753970     0.892489    Uiso  ? Al
   Al25       1.0     0.891278     0.866680     0.638193    Uiso  ? Al
   Al26       1.0     0.558833     0.875499     0.135688    Uiso  ? Al
   Al27       1.0     0.115131     0.755633     0.892287    Uiso  ? Al
   Al28       1.0     0.218433     0.874670     0.645300    Uiso  ? Al
   Al29       1.0     0.784320     0.759118     0.389996    Uiso  ? Al
   Al30       1.0     0.892236     0.868488     0.145057    Uiso  ? Al
   Al31       1.0     0.444283     0.760949     0.894069    Uiso  ? Al
   Al32       1.0     0.557371     0.874038     0.645126    Uiso  ? Al
   Hf1        1.0     0.777709     0.094375     0.879954    Uiso  ? Hf
   Hf2        1.0     0.444132     0.760799     0.382806    Uiso  ? Hf
   Mg1        1.0     0.777913     0.094579     0.392483    Uiso  ? Mg
   Mg2        1.0     0.221957     0.538624     0.141143    Uiso  ? Mg
   N1         1.0     0.222561     0.204856     0.333069    Uiso  ? N
   N2         1.0     0.111444     0.095736     0.081204    Uiso  ? N
   N3         1.0     0.899635     0.216301     0.829379    Uiso  ? N
   N4         1.0     0.778053     0.094720     0.609764    Uiso  ? N
   N5         1.0     0.541988     0.212431     0.331567    Uiso  ? N
   N6         1.0     0.443030     0.095716     0.081237    Uiso  ? N
   N7         1.0     0.222420     0.205409     0.829877    Uiso  ? N
   N8         1.0     0.112907     0.093330     0.581521    Uiso  ? N
   N9         1.0     0.895852     0.212519     0.330730    Uiso  ? N
   N10        1.0     0.777496     0.094163     0.089610    Uiso  ? N
   N11        1.0     0.534912     0.214354     0.827937    Uiso  ? N
   N12        1.0     0.443928     0.092711     0.581360    Uiso  ? N
   N13        1.0     0.222772     0.539438     0.346981    Uiso  ? N
   N14        1.0     0.103682     0.420349     0.078164    Uiso  ? N
   N15        1.0     0.888742     0.539087     0.829877    Uiso  ? N
   N16        1.0     0.776663     0.429574     0.581521    Uiso  ? N
   N17        1.0     0.564720     0.520767     0.327598    Uiso  ? N
   N18        1.0     0.458517     0.419389     0.076227    Uiso  ? N
   N19        1.0     0.221614     0.538281     0.831179    Uiso  ? N
   N20        1.0     0.110174     0.426840     0.583704    Uiso  ? N
   N21        1.0     0.888190     0.539228     0.333069    Uiso  ? N
   N22        1.0     0.779070     0.428110     0.081204    Uiso  ? N
   N23        1.0     0.556618     0.538918     0.834708    Uiso  ? N
   N24        1.0     0.445892     0.428734     0.584212    Uiso  ? N
   N25        1.0     0.204100     0.881386     0.327598    Uiso  ? N
   N26        1.0     0.102722     0.775184     0.076227    Uiso  ? N
   N27        1.0     0.897687     0.851578     0.827937    Uiso  ? N
   N28        1.0     0.776044     0.760594     0.581360    Uiso  ? N
   N29        1.0     0.564288     0.880955     0.326908    Uiso  ? N
   N30        1.0     0.444391     0.761058     0.089936    Uiso  ? N
   N31        1.0     0.222251     0.873285     0.834708    Uiso  ? N
   N32        1.0     0.112068     0.762559     0.584212    Uiso  ? N
   N33        1.0     0.895764     0.858654     0.331567    Uiso  ? N
   N34        1.0     0.779050     0.759697     0.081237    Uiso  ? N
   N35        1.0     0.555878     0.872545     0.835869    Uiso  ? N
   N36        1.0     0.444541     0.761208     0.590824    Uiso  ? N
