
#======================================================================
# CRYSTAL DATA
#----------------------------------------------------------------------
data_VESTA_phase_1

_chemical_name_common                  'Al   Hf   Mg   N '
_cell_length_a                         9.528028
_cell_length_b                         9.528028
_cell_length_c                         10.081431
_cell_angle_alpha                      90.019882
_cell_angle_beta                       90.019882
_cell_angle_gamma                      59.975891
_cell_volume                           792.416175
_space_group_name_H-M_alt              'P 1'
_space_group_IT_number                 1

loop_
_space_group_symop_operation_xyz
   'x, y, z'

loop_
   _atom_site_label
   _atom_site_occupancy
   _atom_site_fract_x
   _atom_site_fract_y
   _atom_site_fract_z
   _atom_site_adp_type
   _atom_site_U_iso_or_equiv
   _atom_site_type_symbol
   Al1        1.0     0.106786     0.100890     0.411257    Uiso  ? Al
   Al2        1.0     0.219909     0.207578     0.162375    Uiso  ? Al
   Al3        1.0     0.892008     0.208674     0.659343    Uiso  ? Al
   Al4        1.0     0.442444     0.100989     0.411020    Uiso  ? Al
   Al5        1.0     0.551818     0.208909     0.166090    Uiso  ? Al
   Al6        1.0     0.116597     0.096376     0.913920    Uiso  ? Al
   Al7        1.0     0.222024     0.205713     0.661393    Uiso  ? Al
   Al8        1.0     0.891200     0.207867     0.165739    Uiso  ? Al
   Al9        1.0     0.437320     0.096554     0.913500    Uiso  ? Al
   Al10       1.0     0.550026     0.207942     0.659221    Uiso  ? Al
   Al11       1.0     0.111955     0.428622     0.412634    Uiso  ? Al
   Al12       1.0     0.779710     0.433264     0.913920    Uiso  ? Al
   Al13       1.0     0.889046     0.538691     0.661393    Uiso  ? Al
   Al14       1.0     0.441758     0.423552     0.413451    Uiso  ? Al
   Al15       1.0     0.559979     0.530258     0.156342    Uiso  ? Al
   Al16       1.0     0.110318     0.426984     0.912691    Uiso  ? Al
   Al17       1.0     0.222019     0.538686     0.660060    Uiso  ? Al
   Al18       1.0     0.784223     0.423452     0.411257    Uiso  ? Al
   Al19       1.0     0.890911     0.536576     0.162375    Uiso  ? Al
   Al20       1.0     0.438977     0.431806     0.913306    Uiso  ? Al
   Al21       1.0     0.558002     0.535110     0.666314    Uiso  ? Al
   Al22       1.0     0.106885     0.758424     0.413451    Uiso  ? Al
   Al23       1.0     0.213591     0.876646     0.156342    Uiso  ? Al
   Al24       1.0     0.779888     0.753987     0.913500    Uiso  ? Al
   Al25       1.0     0.891276     0.866693     0.659221    Uiso  ? Al
   Al26       1.0     0.558839     0.875506     0.156713    Uiso  ? Al
   Al27       1.0     0.115139     0.755644     0.913306    Uiso  ? Al
   Al28       1.0     0.218443     0.874669     0.666314    Uiso  ? Al
   Al29       1.0     0.784322     0.759111     0.411020    Uiso  ? Al
   Al30       1.0     0.892242     0.868485     0.166090    Uiso  ? Al
   Al31       1.0     0.444289     0.760955     0.915102    Uiso  ? Al
   Al32       1.0     0.557367     0.874034     0.666139    Uiso  ? Al
   Hf1        1.0     0.777722     0.094388     0.901020    Uiso  ? Hf
   Hf2        1.0     0.444132     0.760798     0.403808    Uiso  ? Hf
   Mg1        1.0     0.777911     0.094578     0.413500    Uiso  ? Mg
   Mg2        1.0     0.221966     0.538632     0.162166    Uiso  ? Mg
   N1         1.0     0.222561     0.204857     0.354072    Uiso  ? N
   N2         1.0     0.111446     0.095742     0.102212    Uiso  ? N
   N3         1.0     0.899641     0.216308     0.850396    Uiso  ? N
   N4         1.0     0.778058     0.094725     0.630764    Uiso  ? N
   N5         1.0     0.541980     0.212431     0.352591    Uiso  ? N
   N6         1.0     0.443040     0.095717     0.102245    Uiso  ? N
   N7         1.0     0.222430     0.205421     0.850895    Uiso  ? N
   N8         1.0     0.112911     0.093335     0.602542    Uiso  ? N
   N9         1.0     0.895854     0.212521     0.351755    Uiso  ? N
   N10        1.0     0.777502     0.094168     0.110663    Uiso  ? N
   N11        1.0     0.534938     0.214354     0.848964    Uiso  ? N
   N12        1.0     0.443931     0.092714     0.602385    Uiso  ? N
   N13        1.0     0.222773     0.539440     0.367997    Uiso  ? N
   N14        1.0     0.103693     0.420360     0.099176    Uiso  ? N
   N15        1.0     0.888754     0.539097     0.850895    Uiso  ? N
   N16        1.0     0.776668     0.429578     0.602542    Uiso  ? N
   N17        1.0     0.564727     0.520758     0.348615    Uiso  ? N
   N18        1.0     0.458523     0.419393     0.097242    Uiso  ? N
   N19        1.0     0.221624     0.538291     0.852195    Uiso  ? N
   N20        1.0     0.110176     0.426843     0.604712    Uiso  ? N
   N21        1.0     0.888190     0.539228     0.354072    Uiso  ? N
   N22        1.0     0.779075     0.428113     0.102212    Uiso  ? N
   N23        1.0     0.556622     0.538932     0.855724    Uiso  ? N
   N24        1.0     0.445897     0.428733     0.605236    Uiso  ? N
   N25        1.0     0.204091     0.881393     0.348615    Uiso  ? N
   N26        1.0     0.102726     0.775190     0.097242    Uiso  ? N
   N27        1.0     0.897687     0.851605     0.848964    Uiso  ? N
   N28        1.0     0.776047     0.760597     0.602385    Uiso  ? N
   N29        1.0     0.564291     0.880958     0.347928    Uiso  ? N
   N30        1.0     0.444395     0.761061     0.110967    Uiso  ? N
   N31        1.0     0.222265     0.873288     0.855724    Uiso  ? N
   N32        1.0     0.112067     0.762563     0.605236    Uiso  ? N
   N33        1.0     0.895764     0.858647     0.352591    Uiso  ? N
   N34        1.0     0.779050     0.759707     0.102245    Uiso  ? N
   N35        1.0     0.555879     0.872546     0.856881    Uiso  ? N
   N36        1.0     0.444542     0.761209     0.611822    Uiso  ? N
