
#======================================================================
# CRYSTAL DATA
#----------------------------------------------------------------------
data_VESTA_phase_1

_chemical_name_common                  'Al   Hf   Mg   N                      '
_cell_length_a                         9.794304
_cell_length_b                         9.794304
_cell_length_c                         9.318647
_cell_angle_alpha                      90.008591
_cell_angle_beta                       90.008591
_cell_angle_gamma                      59.973381
_cell_volume                           773.952131
_space_group_name_H-M_alt              'P 1'
_space_group_IT_number                 1

loop_
_space_group_symop_operation_xyz
   'x, y, z'

loop_
   _atom_site_label
   _atom_site_occupancy
   _atom_site_fract_x
   _atom_site_fract_y
   _atom_site_fract_z
   _atom_site_adp_type
   _atom_site_U_iso_or_equiv
   _atom_site_type_symbol
   Al1        1.0     0.110387     0.098269     0.378723    Uiso  ? Al
   Al2        1.0     0.220490     0.205938     0.128130    Uiso  ? Al
   Al3        1.0     0.891793     0.208460     0.614884    Uiso  ? Al
   Al4        1.0     0.441681     0.097440     0.378226    Uiso  ? Al
   Al5        1.0     0.551750     0.207863     0.136801    Uiso  ? Al
   Al6        1.0     0.114086     0.098713     0.875477    Uiso  ? Al
   Al7        1.0     0.221427     0.206948     0.625453    Uiso  ? Al
   Al8        1.0     0.891810     0.208477     0.134744    Uiso  ? Al
   Al9        1.0     0.437392     0.099514     0.875494    Uiso  ? Al
   Al10       1.0     0.550345     0.208185     0.612320    Uiso  ? Al
   Al11       1.0     0.111623     0.428290     0.372252    Uiso  ? Al
   Al12       1.0     0.782046     0.430753     0.875477    Uiso  ? Al
   Al13       1.0     0.890281     0.538094     0.625453    Uiso  ? Al
   Al14       1.0     0.440841     0.427353     0.377530    Uiso  ? Al
   Al15       1.0     0.562864     0.526333     0.116379    Uiso  ? Al
   Al16       1.0     0.110488     0.427155     0.880776    Uiso  ? Al
   Al17       1.0     0.221727     0.538393     0.619906    Uiso  ? Al
   Al18       1.0     0.781602     0.427054     0.378723    Uiso  ? Al
   Al19       1.0     0.889271     0.537157     0.128130    Uiso  ? Al
   Al20       1.0     0.439183     0.428850     0.876422    Uiso  ? Al
   Al21       1.0     0.556466     0.537404     0.632592    Uiso  ? Al
   Al22       1.0     0.110686     0.757508     0.377530    Uiso  ? Al
   Al23       1.0     0.209666     0.879531     0.116379    Uiso  ? Al
   Al24       1.0     0.782847     0.754059     0.875494    Uiso  ? Al
   Al25       1.0     0.891519     0.867011     0.612320    Uiso  ? Al
   Al26       1.0     0.560752     0.877418     0.114701    Uiso  ? Al
   Al27       1.0     0.112183     0.755850     0.876422    Uiso  ? Al
   Al28       1.0     0.220737     0.873132     0.632592    Uiso  ? Al
   Al29       1.0     0.780774     0.758348     0.378226    Uiso  ? Al
   Al30       1.0     0.891197     0.868417     0.136801    Uiso  ? Al
   Al31       1.0     0.444136     0.760803     0.881497    Uiso  ? Al
   Al32       1.0     0.556078     0.872745     0.633745    Uiso  ? Al
   Hf1        1.0     0.777444     0.094110     0.858638    Uiso  ? Hf
   Hf2        1.0     0.444441     0.761107     0.355521    Uiso  ? Hf
   Mg1        1.0     0.778358     0.095025     0.369698    Uiso  ? Mg
   Mg2        1.0     0.222236     0.538903     0.121910    Uiso  ? Mg
   N1         1.0     0.223666     0.202839     0.333488    Uiso  ? N
   N2         1.0     0.109677     0.097716     0.079560    Uiso  ? N
   N3         1.0     0.898485     0.215152     0.825054    Uiso  ? N
   N4         1.0     0.778327     0.094994     0.601960    Uiso  ? N
   N5         1.0     0.540159     0.212535     0.340971    Uiso  ? N
   N6         1.0     0.442717     0.097992     0.080024    Uiso  ? N
   N7         1.0     0.221533     0.207385     0.829766    Uiso  ? N
   N8         1.0     0.115126     0.091607     0.583647    Uiso  ? N
   N9         1.0     0.897286     0.213953     0.338192    Uiso  ? N
   N10        1.0     0.777441     0.094108     0.092968    Uiso  ? N
   N11        1.0     0.536814     0.213567     0.822042    Uiso  ? N
   N12        1.0     0.443390     0.090288     0.583204    Uiso  ? N
   N13        1.0     0.222853     0.539519     0.346442    Uiso  ? N
   N14        1.0     0.103527     0.420194     0.083937    Uiso  ? N
   N15        1.0     0.890719     0.538199     0.829766    Uiso  ? N
   N16        1.0     0.774940     0.431793     0.583647    Uiso  ? N
   N17        1.0     0.565769     0.519934     0.325928    Uiso  ? N
   N18        1.0     0.458818     0.417079     0.077519    Uiso  ? N
   N19        1.0     0.220891     0.537557     0.830863    Uiso  ? N
   N20        1.0     0.109860     0.426526     0.579522    Uiso  ? N
   N21        1.0     0.886173     0.540332     0.333488    Uiso  ? N
   N22        1.0     0.781049     0.426344     0.079560    Uiso  ? N
   N23        1.0     0.556071     0.539923     0.837897    Uiso  ? N
   N24        1.0     0.445701     0.431258     0.584145    Uiso  ? N
   N25        1.0     0.203267     0.882436     0.325928    Uiso  ? N
   N26        1.0     0.100412     0.775484     0.077519    Uiso  ? N
   N27        1.0     0.896900     0.853481     0.822042    Uiso  ? N
   N28        1.0     0.773621     0.760057     0.583204    Uiso  ? N
   N29        1.0     0.565043     0.881710     0.323718    Uiso  ? N
   N30        1.0     0.444330     0.760996     0.093115    Uiso  ? N
   N31        1.0     0.223256     0.872738     0.837897    Uiso  ? N
   N32        1.0     0.114592     0.762368     0.584145    Uiso  ? N
   N33        1.0     0.895868     0.856826     0.340971    Uiso  ? N
   N34        1.0     0.781325     0.759384     0.080024    Uiso  ? N
   N35        1.0     0.555486     0.872152     0.840341    Uiso  ? N
   N36        1.0     0.444732     0.761399     0.586044    Uiso  ? N
