
#======================================================================
# CRYSTAL DATA
#----------------------------------------------------------------------
data_VESTA_phase_1

_chemical_name_common                  'Al   Hf   Mg   N                      '
_cell_length_a                         9.596761
_cell_length_b                         9.596757
_cell_length_c                         9.896210
_cell_angle_alpha                      90.014465
_cell_angle_beta                       90.014458
_cell_angle_gamma                      59.976315
_cell_volume                           789.123476
_space_group_name_H-M_alt              'P 1'
_space_group_IT_number                 1

loop_
_space_group_symop_operation_xyz
   'x, y, z'

loop_
   _atom_site_label
   _atom_site_occupancy
   _atom_site_fract_x
   _atom_site_fract_y
   _atom_site_fract_z
   _atom_site_adp_type
   _atom_site_U_iso_or_equiv
   _atom_site_type_symbol
   Al1        1.0     0.107391     0.100522     0.382127    Uiso  ? Al
   Al2        1.0     0.219984     0.207197     0.132782    Uiso  ? Al
   Al3        1.0     0.892160     0.208826     0.627751    Uiso  ? Al
   Al4        1.0     0.442294     0.100332     0.381786    Uiso  ? Al
   Al5        1.0     0.551986     0.208579     0.137109    Uiso  ? Al
   Al6        1.0     0.116232     0.096728     0.883069    Uiso  ? Al
   Al7        1.0     0.221887     0.206029     0.631322    Uiso  ? Al
   Al8        1.0     0.891279     0.207946     0.136250    Uiso  ? Al
   Al9        1.0     0.437275     0.097091     0.882771    Uiso  ? Al
   Al10       1.0     0.549741     0.208133     0.626927    Uiso  ? Al
   Al11       1.0     0.111992     0.428658     0.381587    Uiso  ? Al
   Al12       1.0     0.780061     0.432899     0.883069    Uiso  ? Al
   Al13       1.0     0.889363     0.538553     0.631323    Uiso  ? Al
   Al14       1.0     0.441289     0.424347     0.383500    Uiso  ? Al
   Al15       1.0     0.561397     0.527931     0.126080    Uiso  ? Al
   Al16       1.0     0.110250     0.426916     0.883494    Uiso  ? Al
   Al17       1.0     0.221917     0.538584     0.629500    Uiso  ? Al
   Al18       1.0     0.783856     0.424057     0.382127    Uiso  ? Al
   Al19       1.0     0.890531     0.536651     0.132782    Uiso  ? Al
   Al20       1.0     0.439177     0.431203     0.882601    Uiso  ? Al
   Al21       1.0     0.557206     0.536574     0.635660    Uiso  ? Al
   Al22       1.0     0.107681     0.757956     0.383500    Uiso  ? Al
   Al23       1.0     0.211265     0.878064     0.126080    Uiso  ? Al
   Al24       1.0     0.780425     0.753941     0.882771    Uiso  ? Al
   Al25       1.0     0.891466     0.866407     0.626927    Uiso  ? Al
   Al26       1.0     0.559928     0.876594     0.125873    Uiso  ? Al
   Al27       1.0     0.114537     0.755844     0.882602    Uiso  ? Al
   Al28       1.0     0.219907     0.873873     0.635660    Uiso  ? Al
   Al29       1.0     0.783666     0.758962     0.381786    Uiso  ? Al
   Al30       1.0     0.891912     0.868652     0.137109    Uiso  ? Al
   Al31       1.0     0.444241     0.760908     0.887225    Uiso  ? Al
   Al32       1.0     0.556614     0.873281     0.635905    Uiso  ? Al
   Hf1        1.0     0.777605     0.094272     0.867819    Uiso  ? Hf
   Hf2        1.0     0.444191     0.760861     0.367032    Uiso  ? Hf
   Mg1        1.0     0.778085     0.094752     0.381608    Uiso  ? Mg
   Mg2        1.0     0.222043     0.538710     0.130394    Uiso  ? Mg
   N1         1.0     0.222860     0.204317     0.326996    Uiso  ? N
   N2         1.0     0.111047     0.096254     0.074429    Uiso  ? N
   N3         1.0     0.899594     0.216261     0.822170    Uiso  ? N
   N4         1.0     0.778139     0.094806     0.602854    Uiso  ? N
   N5         1.0     0.541480     0.212497     0.327149    Uiso  ? N
   N6         1.0     0.442876     0.096337     0.074588    Uiso  ? N
   N7         1.0     0.222203     0.205896     0.823581    Uiso  ? N
   N8         1.0     0.113455     0.093002     0.575797    Uiso  ? N
   N9         1.0     0.896292     0.212960     0.325790    Uiso  ? N
   N10        1.0     0.777470     0.094137     0.082927    Uiso  ? N
   N11        1.0     0.534867     0.214341     0.820224    Uiso  ? N
   N12        1.0     0.443715     0.092140     0.575530    Uiso  ? N
   N13        1.0     0.222811     0.539477     0.339824    Uiso  ? N
   N14        1.0     0.103490     0.420157     0.073141    Uiso  ? N
   N15        1.0     0.889230     0.538870     0.823581    Uiso  ? N
   N16        1.0     0.776336     0.430122     0.575797    Uiso  ? N
   N17        1.0     0.565667     0.519107     0.321221    Uiso  ? N
   N18        1.0     0.458864     0.418597     0.069885    Uiso  ? N
   N19        1.0     0.221417     0.538083     0.825093    Uiso  ? N
   N20        1.0     0.110156     0.426823     0.576586    Uiso  ? N
   N21        1.0     0.887650     0.539527     0.326996    Uiso  ? N
   N22        1.0     0.779587     0.427714     0.074429    Uiso  ? N
   N23        1.0     0.556121     0.539971     0.828653    Uiso  ? N
   N24        1.0     0.445660     0.429440     0.577975    Uiso  ? N
   N25        1.0     0.202442     0.882333     0.321221    Uiso  ? N
   N26        1.0     0.101930     0.775530     0.069885    Uiso  ? N
   N27        1.0     0.897674     0.851534     0.820224    Uiso  ? N
   N28        1.0     0.775473     0.760382     0.575530    Uiso  ? N
   N29        1.0     0.565157     0.881823     0.320105    Uiso  ? N
   N30        1.0     0.444348     0.761015     0.087418    Uiso  ? N
   N31        1.0     0.223305     0.872788     0.828653    Uiso  ? N
   N32        1.0     0.112774     0.762326     0.577975    Uiso  ? N
   N33        1.0     0.895830     0.858147     0.327149    Uiso  ? N
   N34        1.0     0.779670     0.759543     0.074588    Uiso  ? N
   N35        1.0     0.555413     0.872079     0.830227    Uiso  ? N
   N36        1.0     0.444601     0.761267     0.579996    Uiso  ? N
