
#======================================================================
# CRYSTAL DATA
#----------------------------------------------------------------------
data_VESTA_phase_1

_chemical_name_common                  'Al   Hf   Mg   N                      '
_cell_length_a                         10.065713
_cell_length_b                         10.065711
_cell_length_c                         8.502408
_cell_angle_alpha                      89.998566
_cell_angle_beta                       89.998566
_cell_angle_gamma                      59.957211
_cell_volume                           745.717190
_space_group_name_H-M_alt              'P 1'
_space_group_IT_number                 1

loop_
_space_group_symop_operation_xyz
   'x, y, z'

loop_
   _atom_site_label
   _atom_site_occupancy
   _atom_site_fract_x
   _atom_site_fract_y
   _atom_site_fract_z
   _atom_site_adp_type
   _atom_site_U_iso_or_equiv
   _atom_site_type_symbol
   Al1        1.0     0.111364     0.097908     0.352965    Uiso  ? Al
   Al2        1.0     0.220983     0.205636     0.104737    Uiso  ? Al
   Al3        1.0     0.891502     0.208169     0.589831    Uiso  ? Al
   Al4        1.0     0.441030     0.097936     0.355782    Uiso  ? Al
   Al5        1.0     0.552549     0.207013     0.118225    Uiso  ? Al
   Al6        1.0     0.113322     0.098424     0.852592    Uiso  ? Al
   Al7        1.0     0.221009     0.207344     0.603660    Uiso  ? Al
   Al8        1.0     0.891750     0.208418     0.114505    Uiso  ? Al
   Al9        1.0     0.438748     0.098222     0.854132    Uiso  ? Al
   Al10       1.0     0.550100     0.209059     0.592914    Uiso  ? Al
   Al11       1.0     0.111192     0.427858     0.351143    Uiso  ? Al
   Al12       1.0     0.781759     0.429988     0.852592    Uiso  ? Al
   Al13       1.0     0.890677     0.537677     0.603660    Uiso  ? Al
   Al14       1.0     0.440738     0.427593     0.350691    Uiso  ? Al
   Al15       1.0     0.560680     0.531277     0.092401    Uiso  ? Al
   Al16       1.0     0.111142     0.427809     0.858344    Uiso  ? Al
   Al17       1.0     0.221733     0.538400     0.603944    Uiso  ? Al
   Al18       1.0     0.781243     0.428031     0.352965    Uiso  ? Al
   Al19       1.0     0.888971     0.537650     0.104737    Uiso  ? Al
   Al20       1.0     0.438537     0.429289     0.856794    Uiso  ? Al
   Al21       1.0     0.558935     0.531488     0.612602    Uiso  ? Al
   Al22       1.0     0.110924     0.757406     0.350692    Uiso  ? Al
   Al23       1.0     0.214612     0.877344     0.092401    Uiso  ? Al
   Al24       1.0     0.781556     0.755416     0.854133    Uiso  ? Al
   Al25       1.0     0.892391     0.866768     0.592915    Uiso  ? Al
   Al26       1.0     0.558927     0.875592     0.095036    Uiso  ? Al
   Al27       1.0     0.112621     0.755205     0.856794    Uiso  ? Al
   Al28       1.0     0.214824     0.875600     0.612602    Uiso  ? Al
   Al29       1.0     0.781270     0.757697     0.355782    Uiso  ? Al
   Al30       1.0     0.890346     0.869217     0.118225    Uiso  ? Al
   Al31       1.0     0.444508     0.761172     0.853101    Uiso  ? Al
   Al32       1.0     0.558615     0.875281     0.614280    Uiso  ? Al
   Hf1        1.0     0.777751     0.094420     0.853792    Uiso  ? Hf
   Hf2        1.0     0.444244     0.760910     0.353900    Uiso  ? Hf
   Mg1        1.0     0.777941     0.094610     0.354487    Uiso  ? Mg
   Mg2        1.0     0.221559     0.538226     0.104291    Uiso  ? Mg
   N1         1.0     0.223447     0.203559     0.355143    Uiso  ? N
   N2         1.0     0.113155     0.094070     0.103206    Uiso  ? N
   N3         1.0     0.896847     0.213514     0.857394    Uiso  ? N
   N4         1.0     0.778684     0.095352     0.600561    Uiso  ? N
   N5         1.0     0.539924     0.212487     0.355240    Uiso  ? N
   N6         1.0     0.443353     0.094685     0.101677    Uiso  ? N
   N7         1.0     0.221921     0.206670     0.852451    Uiso  ? N
   N8         1.0     0.111353     0.095194     0.606232    Uiso  ? N
   N9         1.0     0.897124     0.213791     0.353083    Uiso  ? N
   N10        1.0     0.777472     0.094140     0.107239    Uiso  ? N
   N11        1.0     0.540692     0.211689     0.850297    Uiso  ? N
   N12        1.0     0.443375     0.093609     0.604775    Uiso  ? N
   N13        1.0     0.222492     0.539160     0.362407    Uiso  ? N
   N14        1.0     0.104033     0.420698     0.105599    Uiso  ? N
   N15        1.0     0.890003     0.538589     0.852451    Uiso  ? N
   N16        1.0     0.778528     0.428020     0.606232    Uiso  ? N
   N17        1.0     0.563404     0.524270     0.357049    Uiso  ? N
   N18        1.0     0.457121     0.421629     0.101877    Uiso  ? N
   N19        1.0     0.220920     0.537588     0.845648    Uiso  ? N
   N20        1.0     0.109981     0.426648     0.601433    Uiso  ? N
   N21        1.0     0.886893     0.540115     0.355143    Uiso  ? N
   N22        1.0     0.777405     0.429821     0.103206    Uiso  ? N
   N23        1.0     0.557158     0.538000     0.852873    Uiso  ? N
   N24        1.0     0.445256     0.428124     0.606214    Uiso  ? N
   N25        1.0     0.207605     0.880069     0.357049    Uiso  ? N
   N26        1.0     0.104961     0.773789     0.101877    Uiso  ? N
   N27        1.0     0.895021     0.857361     0.850297    Uiso  ? N
   N28        1.0     0.776943     0.760042     0.604775    Uiso  ? N
   N29        1.0     0.562905     0.879571     0.352387    Uiso  ? N
   N30        1.0     0.444443     0.761108     0.096119    Uiso  ? N
   N31        1.0     0.221335     0.873822     0.852873    Uiso  ? N
   N32        1.0     0.111457     0.761924     0.606214    Uiso  ? N
   N33        1.0     0.895819     0.856593     0.355240    Uiso  ? N
   N34        1.0     0.778020     0.760019     0.101677    Uiso  ? N
   N35        1.0     0.556443     0.873109     0.854116    Uiso  ? N
   N36        1.0     0.444887     0.761552     0.611665    Uiso  ? N
