
#======================================================================
# CRYSTAL DATA
#----------------------------------------------------------------------
data_VESTA_phase_1

_chemical_name_common                  'Al   Hf   Mg   N                      '
_cell_length_a                         9.928184
_cell_length_b                         9.928184
_cell_length_c                         8.908422
_cell_angle_alpha                      90.005623
_cell_angle_beta                       90.005623
_cell_angle_gamma                      59.969524
_cell_volume                           760.217003
_space_group_name_H-M_alt              'P 1'
_space_group_IT_number                 1

loop_
_space_group_symop_operation_xyz
   'x, y, z'

loop_
   _atom_site_label
   _atom_site_occupancy
   _atom_site_fract_x
   _atom_site_fract_y
   _atom_site_fract_z
   _atom_site_adp_type
   _atom_site_U_iso_or_equiv
   _atom_site_type_symbol
   Al1        1.0     0.111666     0.097327     0.372705    Uiso  ? Al
   Al2        1.0     0.220957     0.205167     0.121925    Uiso  ? Al
   Al3        1.0     0.891359     0.208026     0.604452    Uiso  ? Al
   Al4        1.0     0.441473     0.096431     0.372496    Uiso  ? Al
   Al5        1.0     0.551830     0.207244     0.132832    Uiso  ? Al
   Al6        1.0     0.113061     0.099465     0.867659    Uiso  ? Al
   Al7        1.0     0.221089     0.207612     0.618490    Uiso  ? Al
   Al8        1.0     0.891997     0.208663     0.130255    Uiso  ? Al
   Al9        1.0     0.437675     0.100196     0.867912    Uiso  ? Al
   Al10       1.0     0.550814     0.208381     0.602229    Uiso  ? Al
   Al11       1.0     0.111346     0.428013     0.363063    Uiso  ? Al
   Al12       1.0     0.782799     0.429728     0.867659    Uiso  ? Al
   Al13       1.0     0.890945     0.537756     0.618490    Uiso  ? Al
   Al14       1.0     0.440901     0.428276     0.368869    Uiso  ? Al
   Al15       1.0     0.562390     0.527970     0.106251    Uiso  ? Al
   Al16       1.0     0.110764     0.427430     0.875638    Uiso  ? Al
   Al17       1.0     0.221641     0.538308     0.610774    Uiso  ? Al
   Al18       1.0     0.780660     0.428332     0.372705    Uiso  ? Al
   Al19       1.0     0.888500     0.537623     0.121925    Uiso  ? Al
   Al20       1.0     0.438898     0.428126     0.870016    Uiso  ? Al
   Al21       1.0     0.556991     0.535611     0.627748    Uiso  ? Al
   Al22       1.0     0.111609     0.757567     0.368869    Uiso  ? Al
   Al23       1.0     0.211303     0.879056     0.106251    Uiso  ? Al
   Al24       1.0     0.783529     0.754342     0.867912    Uiso  ? Al
   Al25       1.0     0.891714     0.867481     0.602229    Uiso  ? Al
   Al26       1.0     0.560176     0.876842     0.104924    Uiso  ? Al
   Al27       1.0     0.111459     0.755565     0.870016    Uiso  ? Al
   Al28       1.0     0.218944     0.873657     0.627748    Uiso  ? Al
   Al29       1.0     0.779764     0.758139     0.372496    Uiso  ? Al
   Al30       1.0     0.890578     0.868497     0.132832    Uiso  ? Al
   Al31       1.0     0.444168     0.760835     0.869880    Uiso  ? Al
   Al32       1.0     0.556822     0.873489     0.629507    Uiso  ? Al
   Hf1        1.0     0.777473     0.094140     0.854608    Uiso  ? Hf
   Hf2        1.0     0.444523     0.761190     0.352522    Uiso  ? Hf
   Mg1        1.0     0.778306     0.094972     0.362049    Uiso  ? Mg
   Mg2        1.0     0.222195     0.538861     0.114437    Uiso  ? Mg
   N1         1.0     0.224034     0.202323     0.340522    Uiso  ? N
   N2         1.0     0.109640     0.097680     0.086037    Uiso  ? N
   N3         1.0     0.897468     0.214135     0.831784    Uiso  ? N
   N4         1.0     0.778390     0.095057     0.600751    Uiso  ? N
   N5         1.0     0.539962     0.212247     0.350003    Uiso  ? N
   N6         1.0     0.442873     0.097900     0.086351    Uiso  ? N
   N7         1.0     0.221259     0.207985     0.836502    Uiso  ? N
   N8         1.0     0.115021     0.091724     0.591356    Uiso  ? N
   N9         1.0     0.897408     0.214074     0.347281    Uiso  ? N
   N10        1.0     0.777478     0.094145     0.100897    Uiso  ? N
   N11        1.0     0.538742     0.212838     0.828412    Uiso  ? N
   N12        1.0     0.443405     0.090319     0.590867    Uiso  ? N
   N13        1.0     0.222776     0.539443     0.353924    Uiso  ? N
   N14        1.0     0.103787     0.420454     0.093758    Uiso  ? N
   N15        1.0     0.891318     0.537926     0.836502    Uiso  ? N
   N16        1.0     0.775057     0.431688     0.591356    Uiso  ? N
   N17        1.0     0.564949     0.522155     0.333524    Uiso  ? N
   N18        1.0     0.458179     0.417651     0.086388    Uiso  ? N
   N19        1.0     0.220678     0.537345     0.836845    Uiso  ? N
   N20        1.0     0.109815     0.426482     0.584395    Uiso  ? N
   N21        1.0     0.885656     0.540700     0.340522    Uiso  ? N
   N22        1.0     0.781013     0.426306     0.086037    Uiso  ? N
   N23        1.0     0.556499     0.538805     0.845883    Uiso  ? N
   N24        1.0     0.445675     0.431152     0.590806    Uiso  ? N
   N25        1.0     0.205488     0.881616     0.333524    Uiso  ? N
   N26        1.0     0.100984     0.774846     0.086388    Uiso  ? N
   N27        1.0     0.896172     0.855409     0.828412    Uiso  ? N
   N28        1.0     0.773653     0.760071     0.590867    Uiso  ? N
   N29        1.0     0.564144     0.880811     0.330632    Uiso  ? N
   N30        1.0     0.444385     0.761052     0.093838    Uiso  ? N
   N31        1.0     0.222138     0.873165     0.845883    Uiso  ? N
   N32        1.0     0.114486     0.762341     0.590806    Uiso  ? N
   N33        1.0     0.895580     0.856629     0.350003    Uiso  ? N
   N34        1.0     0.781234     0.759539     0.086351    Uiso  ? N
   N35        1.0     0.555986     0.872653     0.848129    Uiso  ? N
   N36        1.0     0.444782     0.761448     0.597946    Uiso  ? N
