
#======================================================================
# CRYSTAL DATA
#----------------------------------------------------------------------
data_VESTA_phase_1

_chemical_name_common                  'Al   Hf   Mg   N                      '
_cell_length_a                         9.649909
_cell_length_b                         9.649909
_cell_length_c                         9.750795
_cell_angle_alpha                      89.998016
_cell_angle_beta                       89.998016
_cell_angle_gamma                      59.948368
_cell_volume                           785.942768
_space_group_name_H-M_alt              'P 1'
_space_group_IT_number                 1

loop_
_space_group_symop_operation_xyz
   'x, y, z'

loop_
   _atom_site_label
   _atom_site_occupancy
   _atom_site_fract_x
   _atom_site_fract_y
   _atom_site_fract_z
   _atom_site_adp_type
   _atom_site_U_iso_or_equiv
   _atom_site_type_symbol
   Al1        1.0     0.108937     0.099437     0.325530    Uiso  ? Al
   Al2        1.0     0.220101     0.206832     0.077462    Uiso  ? Al
   Al3        1.0     0.891191     0.207858     0.570356    Uiso  ? Al
   Al4        1.0     0.441961     0.099947     0.326041    Uiso  ? Al
   Al5        1.0     0.550073     0.209413     0.083428    Uiso  ? Al
   Al6        1.0     0.115133     0.097685     0.827125    Uiso  ? Al
   Al7        1.0     0.221860     0.206019     0.576244    Uiso  ? Al
   Al8        1.0     0.892518     0.209185     0.084603    Uiso  ? Al
   Al9        1.0     0.437599     0.097324     0.827332    Uiso  ? Al
   Al10       1.0     0.551271     0.207708     0.571350    Uiso  ? Al
   Al11       1.0     0.110022     0.426688     0.327326    Uiso  ? Al
   Al12       1.0     0.781019     0.431799     0.827125    Uiso  ? Al
   Al13       1.0     0.889352     0.538527     0.576244    Uiso  ? Al
   Al14       1.0     0.444012     0.423617     0.324940    Uiso  ? Al
   Al15       1.0     0.557764     0.535341     0.072582    Uiso  ? Al
   Al16       1.0     0.111784     0.428450     0.826029    Uiso  ? Al
   Al17       1.0     0.221887     0.538554     0.578257    Uiso  ? Al
   Al18       1.0     0.782771     0.425604     0.325530    Uiso  ? Al
   Al19       1.0     0.890165     0.536767     0.077462    Uiso  ? Al
   Al20       1.0     0.436378     0.432118     0.827057    Uiso  ? Al
   Al21       1.0     0.560689     0.529121     0.584283    Uiso  ? Al
   Al22       1.0     0.106950     0.760678     0.324940    Uiso  ? Al
   Al23       1.0     0.218675     0.874430     0.072582    Uiso  ? Al
   Al24       1.0     0.780657     0.754266     0.827332    Uiso  ? Al
   Al25       1.0     0.891042     0.867937     0.571350    Uiso  ? Al
   Al26       1.0     0.556556     0.873223     0.073030    Uiso  ? Al
   Al27       1.0     0.115451     0.753044     0.827057    Uiso  ? Al
   Al28       1.0     0.212454     0.877356     0.584283    Uiso  ? Al
   Al29       1.0     0.783280     0.758627     0.326041    Uiso  ? Al
   Al30       1.0     0.892746     0.866739     0.083428    Uiso  ? Al
   Al31       1.0     0.444432     0.761099     0.821948    Uiso  ? Al
   Al32       1.0     0.560246     0.876913     0.583429    Uiso  ? Al
   Hf1        1.0     0.778134     0.094801     0.845767    Uiso  ? Hf
   Hf2        1.0     0.444099     0.760766     0.342645    Uiso  ? Hf
   Mg1        1.0     0.777635     0.094302     0.327473    Uiso  ? Mg
   Mg2        1.0     0.221295     0.537961     0.081689    Uiso  ? Mg
   N1         1.0     0.223748     0.202829     0.381638    Uiso  ? N
   N2         1.0     0.115143     0.091910     0.129926    Uiso  ? N
   N3         1.0     0.899899     0.216566     0.886368    Uiso  ? N
   N4         1.0     0.778130     0.094797     0.624574    Uiso  ? N
   N5         1.0     0.541057     0.211768     0.380006    Uiso  ? N
   N6         1.0     0.443501     0.092405     0.129837    Uiso  ? N
   N7         1.0     0.221613     0.206948     0.880941    Uiso  ? N
   N8         1.0     0.109761     0.097259     0.632766    Uiso  ? N
   N9         1.0     0.896451     0.213118     0.377871    Uiso  ? N
   N10        1.0     0.777891     0.094558     0.102762    Uiso  ? N
   N11        1.0     0.534896     0.215259     0.884904    Uiso  ? N
   N12        1.0     0.443176     0.096361     0.632946    Uiso  ? N
   N13        1.0     0.222735     0.539402     0.379648    Uiso  ? N
   N14        1.0     0.102765     0.419431     0.135155    Uiso  ? N
   N15        1.0     0.890281     0.538279     0.880941    Uiso  ? N
   N16        1.0     0.780593     0.426427     0.632766    Uiso  ? N
   N17        1.0     0.565949     0.519689     0.388177    Uiso  ? N
   N18        1.0     0.458846     0.423522     0.132930    Uiso  ? N
   N19        1.0     0.220992     0.537659     0.869623    Uiso  ? N
   N20        1.0     0.110170     0.426837     0.628305    Uiso  ? N
   N21        1.0     0.886162     0.540415     0.381638    Uiso  ? N
   N22        1.0     0.775243     0.431810     0.129926    Uiso  ? N
   N23        1.0     0.555935     0.539207     0.874809    Uiso  ? N
   N24        1.0     0.444901     0.425876     0.631755    Uiso  ? N
   N25        1.0     0.203023     0.882616     0.388177    Uiso  ? N
   N26        1.0     0.106855     0.775513     0.132930    Uiso  ? N
   N27        1.0     0.898593     0.851563     0.884904    Uiso  ? N
   N28        1.0     0.779694     0.759842     0.632946    Uiso  ? N
   N29        1.0     0.565053     0.881720     0.386445    Uiso  ? N
   N30        1.0     0.444622     0.761289     0.126047    Uiso  ? N
   N31        1.0     0.222540     0.872602     0.874809    Uiso  ? N
   N32        1.0     0.109209     0.761568     0.631755    Uiso  ? N
   N33        1.0     0.895101     0.857723     0.380006    Uiso  ? N
   N34        1.0     0.775739     0.760167     0.129837    Uiso  ? N
   N35        1.0     0.555389     0.872055     0.875982    Uiso  ? N
   N36        1.0     0.444641     0.761308     0.619457    Uiso  ? N
