
#======================================================================
# CRYSTAL DATA
#----------------------------------------------------------------------
data_VESTA_phase_1

_chemical_name_common                  'Al   Hf   Mg   N                      '
_cell_length_a                         9.969430
_cell_length_b                         9.969430
_cell_length_c                         8.782404
_cell_angle_alpha                      90.004585
_cell_angle_beta                       90.004585
_cell_angle_gamma                      59.967648
_cell_volume                           755.688856
_space_group_name_H-M_alt              'P 1'
_space_group_IT_number                 1

loop_
_space_group_symop_operation_xyz
   'x, y, z'

loop_
   _atom_site_label
   _atom_site_occupancy
   _atom_site_fract_x
   _atom_site_fract_y
   _atom_site_fract_z
   _atom_site_adp_type
   _atom_site_U_iso_or_equiv
   _atom_site_type_symbol
   Al1        1.0     0.111713     0.097352     0.369483    Uiso  ? Al
   Al2        1.0     0.221045     0.205108     0.118949    Uiso  ? Al
   Al3        1.0     0.891279     0.207945     0.601372    Uiso  ? Al
   Al4        1.0     0.441429     0.096523     0.369621    Uiso  ? Al
   Al5        1.0     0.551974     0.207059     0.130356    Uiso  ? Al
   Al6        1.0     0.113017     0.099359     0.864488    Uiso  ? Al
   Al7        1.0     0.221031     0.207716     0.615514    Uiso  ? Al
   Al8        1.0     0.891968     0.208635     0.127547    Uiso  ? Al
   Al9        1.0     0.437867     0.099980     0.864909    Uiso  ? Al
   Al10       1.0     0.550820     0.208515     0.599756    Uiso  ? Al
   Al11       1.0     0.111315     0.427982     0.359987    Uiso  ? Al
   Al12       1.0     0.782692     0.429684     0.864488    Uiso  ? Al
   Al13       1.0     0.891049     0.537698     0.615514    Uiso  ? Al
   Al14       1.0     0.440863     0.428229     0.364880    Uiso  ? Al
   Al15       1.0     0.562061     0.528721     0.102804    Uiso  ? Al
   Al16       1.0     0.110856     0.427522     0.872700    Uiso  ? Al
   Al17       1.0     0.221640     0.538307     0.608224    Uiso  ? Al
   Al18       1.0     0.780685     0.428380     0.369483    Uiso  ? Al
   Al19       1.0     0.888441     0.537711     0.118949    Uiso  ? Al
   Al20       1.0     0.438815     0.428240     0.867145    Uiso  ? Al
   Al21       1.0     0.557325     0.534752     0.624833    Uiso  ? Al
   Al22       1.0     0.111562     0.757530     0.364880    Uiso  ? Al
   Al23       1.0     0.212055     0.878727     0.102804    Uiso  ? Al
   Al24       1.0     0.783313     0.754534     0.864909    Uiso  ? Al
   Al25       1.0     0.891848     0.867487     0.599756    Uiso  ? Al
   Al26       1.0     0.559905     0.876571     0.102145    Uiso  ? Al
   Al27       1.0     0.111573     0.755481     0.867145    Uiso  ? Al
   Al28       1.0     0.218085     0.873992     0.624833    Uiso  ? Al
   Al29       1.0     0.779856     0.758096     0.369621    Uiso  ? Al
   Al30       1.0     0.890392     0.868641     0.130356    Uiso  ? Al
   Al31       1.0     0.444209     0.760876     0.865164    Uiso  ? Al
   Al32       1.0     0.557199     0.873865     0.626924    Uiso  ? Al
   Hf1        1.0     0.777502     0.094169     0.853975    Uiso  ? Hf
   Hf2        1.0     0.444512     0.761179     0.352219    Uiso  ? Hf
   Mg1        1.0     0.778251     0.094918     0.360053    Uiso  ? Mg
   Mg2        1.0     0.222104     0.538771     0.111743    Uiso  ? Mg
   N1         1.0     0.224032     0.202414     0.343474    Uiso  ? N
   N2         1.0     0.110017     0.097241     0.089149    Uiso  ? N
   N3         1.0     0.897175     0.213842     0.835722    Uiso  ? N
   N4         1.0     0.778418     0.095085     0.600453    Uiso  ? N
   N5         1.0     0.539983     0.212177     0.352057    Uiso  ? N
   N6         1.0     0.442992     0.097465     0.089212    Uiso  ? N
   N7         1.0     0.221297     0.207929     0.839484    Uiso  ? N
   N8         1.0     0.114559     0.092182     0.594393    Uiso  ? N
   N9         1.0     0.897351     0.214018     0.349550    Uiso  ? N
   N10        1.0     0.777489     0.094156     0.102978    Uiso  ? N
   N11        1.0     0.539349     0.212570     0.832056    Uiso  ? N
   N12        1.0     0.443421     0.090747     0.593837    Uiso  ? N
   N13        1.0     0.222723     0.539390     0.356298    Uiso  ? N
   N14        1.0     0.103881     0.420548     0.096935    Uiso  ? N
   N15        1.0     0.891263     0.537963     0.839484    Uiso  ? N
   N16        1.0     0.775515     0.431226     0.594393    Uiso  ? N
   N17        1.0     0.564560     0.522918     0.337818    Uiso  ? N
   N18        1.0     0.457921     0.418260     0.090045    Uiso  ? N
   N19        1.0     0.220676     0.537343     0.839146    Uiso  ? N
   N20        1.0     0.109874     0.426541     0.587228    Uiso  ? N
   N21        1.0     0.885747     0.540699     0.343474    Uiso  ? N
   N22        1.0     0.780574     0.426683     0.089149    Uiso  ? N
   N23        1.0     0.556648     0.538465     0.848179    Uiso  ? N
   N24        1.0     0.445548     0.430747     0.593814    Uiso  ? N
   N25        1.0     0.206251     0.881226     0.337818    Uiso  ? N
   N26        1.0     0.101593     0.774588     0.090045    Uiso  ? N
   N27        1.0     0.895903     0.856015     0.832056    Uiso  ? N
   N28        1.0     0.774080     0.760088     0.593837    Uiso  ? N
   N29        1.0     0.563799     0.880466     0.334466    Uiso  ? N
   N30        1.0     0.444406     0.761072     0.094061    Uiso  ? N
   N31        1.0     0.221798     0.873315     0.848179    Uiso  ? N
   N32        1.0     0.114081     0.762215     0.593814    Uiso  ? N
   N33        1.0     0.895510     0.856650     0.352057    Uiso  ? N
   N34        1.0     0.780798     0.759659     0.089212    Uiso  ? N
   N35        1.0     0.556143     0.872809     0.850139    Uiso  ? N
   N36        1.0     0.444801     0.761468     0.602299    Uiso  ? N
