
#======================================================================
# CRYSTAL DATA
#----------------------------------------------------------------------
data_VESTA_phase_1

_chemical_name_common                  'Al   Hf   Mg   N                      '
_cell_length_a                         9.545479
_cell_length_b                         9.545479
_cell_length_c                         10.036821
_cell_angle_alpha                      90.010986
_cell_angle_beta                       90.010986
_cell_angle_gamma                      59.965866
_cell_volume                           791.722107
_space_group_name_H-M_alt              'P 1'
_space_group_IT_number                 1

loop_
_space_group_symop_operation_xyz
   'x, y, z'

loop_
   _atom_site_label
   _atom_site_occupancy
   _atom_site_fract_x
   _atom_site_fract_y
   _atom_site_fract_z
   _atom_site_adp_type
   _atom_site_U_iso_or_equiv
   _atom_site_type_symbol
   Al1        1.0     0.107292     0.100465     0.324166    Uiso  ? Al
   Al2        1.0     0.220156     0.207109     0.075972    Uiso  ? Al
   Al3        1.0     0.890835     0.207502     0.570280    Uiso  ? Al
   Al4        1.0     0.442523     0.100628     0.324810    Uiso  ? Al
   Al5        1.0     0.549249     0.210189     0.078157    Uiso  ? Al
   Al6        1.0     0.116251     0.096736     0.823981    Uiso  ? Al
   Al7        1.0     0.221881     0.205950     0.573516    Uiso  ? Al
   Al8        1.0     0.892707     0.209374     0.078512    Uiso  ? Al
   Al9        1.0     0.437233     0.096809     0.824153    Uiso  ? Al
   Al10       1.0     0.552143     0.207022     0.570717    Uiso  ? Al
   Al11       1.0     0.110149     0.426816     0.324761    Uiso  ? Al
   Al12       1.0     0.780069     0.432918     0.823981    Uiso  ? Al
   Al13       1.0     0.889284     0.538548     0.573516    Uiso  ? Al
   Al14       1.0     0.444593     0.422064     0.324390    Uiso  ? Al
   Al15       1.0     0.558388     0.533275     0.070931    Uiso  ? Al
   Al16       1.0     0.111822     0.428489     0.823584    Uiso  ? Al
   Al17       1.0     0.221835     0.538502     0.574323    Uiso  ? Al
   Al18       1.0     0.783799     0.423958     0.324166    Uiso  ? Al
   Al19       1.0     0.890442     0.536822     0.075972    Uiso  ? Al
   Al20       1.0     0.436295     0.433096     0.822274    Uiso  ? Al
   Al21       1.0     0.559455     0.531971     0.580020    Uiso  ? Al
   Al22       1.0     0.105397     0.761260     0.324390    Uiso  ? Al
   Al23       1.0     0.216608     0.875055     0.070931    Uiso  ? Al
   Al24       1.0     0.780143     0.753899     0.824153    Uiso  ? Al
   Al25       1.0     0.890356     0.868810     0.570717    Uiso  ? Al
   Al26       1.0     0.557466     0.874132     0.070719    Uiso  ? Al
   Al27       1.0     0.116430     0.752962     0.822274    Uiso  ? Al
   Al28       1.0     0.215304     0.876122     0.580020    Uiso  ? Al
   Al29       1.0     0.783961     0.759189     0.324810    Uiso  ? Al
   Al30       1.0     0.893522     0.865916     0.078157    Uiso  ? Al
   Al31       1.0     0.444236     0.760902     0.822492    Uiso  ? Al
   Al32       1.0     0.558792     0.875459     0.579919    Uiso  ? Al
   Hf1        1.0     0.777997     0.094664     0.841775    Uiso  ? Hf
   Hf2        1.0     0.443987     0.760654     0.331813    Uiso  ? Hf
   Mg1        1.0     0.777691     0.094358     0.320602    Uiso  ? Mg
   Mg2        1.0     0.221762     0.538429     0.077658    Uiso  ? Mg
   N1         1.0     0.223513     0.203224     0.383540    Uiso  ? N
   N2         1.0     0.113946     0.092760     0.132915    Uiso  ? N
   N3         1.0     0.900333     0.217000     0.886442    Uiso  ? N
   N4         1.0     0.778035     0.094702     0.628734    Uiso  ? N
   N5         1.0     0.542715     0.210741     0.384973    Uiso  ? N
   N6         1.0     0.443898     0.093048     0.132942    Uiso  ? N
   N7         1.0     0.221664     0.206745     0.883694    Uiso  ? N
   N8         1.0     0.110736     0.096265     0.634533    Uiso  ? N
   N9         1.0     0.895704     0.212371     0.383350    Uiso  ? N
   N10        1.0     0.777871     0.094538     0.100945    Uiso  ? N
   N11        1.0     0.533570     0.216387     0.885536    Uiso  ? N
   N12        1.0     0.443169     0.095548     0.634652    Uiso  ? N
   N13        1.0     0.222611     0.539278     0.381771    Uiso  ? N
   N14        1.0     0.103233     0.419899     0.137712    Uiso  ? N
   N15        1.0     0.890078     0.538330     0.883694    Uiso  ? N
   N16        1.0     0.779598     0.427403     0.634533    Uiso  ? N
   N17        1.0     0.565233     0.521549     0.389449    Uiso  ? N
   N18        1.0     0.459025     0.422506     0.137493    Uiso  ? N
   N19        1.0     0.221347     0.538013     0.871327    Uiso  ? N
   N20        1.0     0.110246     0.426913     0.630605    Uiso  ? N
   N21        1.0     0.886557     0.540179     0.383540    Uiso  ? N
   N22        1.0     0.776093     0.430613     0.132915    Uiso  ? N
   N23        1.0     0.556261     0.537830     0.878531    Uiso  ? N
   N24        1.0     0.444865     0.426742     0.632377    Uiso  ? N
   N25        1.0     0.204883     0.881900     0.389449    Uiso  ? N
   N26        1.0     0.105839     0.775691     0.137493    Uiso  ? N
   N27        1.0     0.899720     0.850236     0.885536    Uiso  ? N
   N28        1.0     0.778882     0.759835     0.634652    Uiso  ? N
   N29        1.0     0.563990     0.880657     0.388097    Uiso  ? N
   N30        1.0     0.444622     0.761289     0.123201    Uiso  ? N
   N31        1.0     0.221164     0.872928     0.878531    Uiso  ? N
   N32        1.0     0.110075     0.761531     0.632377    Uiso  ? N
   N33        1.0     0.894074     0.859382     0.384973    Uiso  ? N
   N34        1.0     0.776381     0.760565     0.132942    Uiso  ? N
   N35        1.0     0.555941     0.872608     0.879200    Uiso  ? N
   N36        1.0     0.444508     0.761175     0.625977    Uiso  ? N
