
#======================================================================
# CRYSTAL DATA
#----------------------------------------------------------------------
data_VESTA_phase_1

_chemical_name_common                  'Al   Hf   Mg   N                      '
_cell_length_a                         10.042882
_cell_length_b                         10.042882
_cell_length_c                         8.565830
_cell_angle_alpha                      89.994492
_cell_angle_beta                       89.994492
_cell_angle_gamma                      59.948292
_cell_volume                           747.808307
_space_group_name_H-M_alt              'P 1'
_space_group_IT_number                 1

loop_
_space_group_symop_operation_xyz
   'x, y, z'

loop_
   _atom_site_label
   _atom_site_occupancy
   _atom_site_fract_x
   _atom_site_fract_y
   _atom_site_fract_z
   _atom_site_adp_type
   _atom_site_U_iso_or_equiv
   _atom_site_type_symbol
   Al1        1.0     0.111839     0.097531     0.347221    Uiso  ? Al
   Al2        1.0     0.220913     0.205553     0.098887    Uiso  ? Al
   Al3        1.0     0.891614     0.208281     0.584450    Uiso  ? Al
   Al4        1.0     0.440849     0.097989     0.349308    Uiso  ? Al
   Al5        1.0     0.552868     0.206954     0.113759    Uiso  ? Al
   Al6        1.0     0.112842     0.098840     0.848370    Uiso  ? Al
   Al7        1.0     0.221078     0.207245     0.599019    Uiso  ? Al
   Al8        1.0     0.891630     0.208296     0.111846    Uiso  ? Al
   Al9        1.0     0.438884     0.098177     0.849540    Uiso  ? Al
   Al10       1.0     0.549882     0.209223     0.587910    Uiso  ? Al
   Al11       1.0     0.111029     0.427695     0.347627    Uiso  ? Al
   Al12       1.0     0.782173     0.429509     0.848370    Uiso  ? Al
   Al13       1.0     0.890578     0.537744     0.599018    Uiso  ? Al
   Al14       1.0     0.440868     0.427849     0.344947    Uiso  ? Al
   Al15       1.0     0.560177     0.532643     0.087698    Uiso  ? Al
   Al16       1.0     0.111169     0.427835     0.853078    Uiso  ? Al
   Al17       1.0     0.221780     0.538446     0.603135    Uiso  ? Al
   Al18       1.0     0.780865     0.428505     0.347221    Uiso  ? Al
   Al19       1.0     0.888887     0.537580     0.098887    Uiso  ? Al
   Al20       1.0     0.438426     0.429137     0.853973    Uiso  ? Al
   Al21       1.0     0.559307     0.530520     0.610201    Uiso  ? Al
   Al22       1.0     0.111182     0.757535     0.344947    Uiso  ? Al
   Al23       1.0     0.215977     0.876843     0.087698    Uiso  ? Al
   Al24       1.0     0.781511     0.755551     0.849540    Uiso  ? Al
   Al25       1.0     0.892556     0.866549     0.587910    Uiso  ? Al
   Al26       1.0     0.558281     0.874948     0.090524    Uiso  ? Al
   Al27       1.0     0.112470     0.755093     0.853973    Uiso  ? Al
   Al28       1.0     0.213853     0.875973     0.610201    Uiso  ? Al
   Al29       1.0     0.781322     0.757516     0.349308    Uiso  ? Al
   Al30       1.0     0.890288     0.869535     0.113759    Uiso  ? Al
   Al31       1.0     0.444657     0.761324     0.849409    Uiso  ? Al
   Al32       1.0     0.559133     0.875799     0.610153    Uiso  ? Al
   Hf1        1.0     0.777919     0.094586     0.853999    Uiso  ? Hf
   Hf2        1.0     0.444114     0.760781     0.355063    Uiso  ? Hf
   Mg1        1.0     0.777813     0.094480     0.352355    Uiso  ? Mg
   Mg2        1.0     0.221308     0.537974     0.101969    Uiso  ? Mg
   N1         1.0     0.223323     0.203660     0.359977    Uiso  ? N
   N2         1.0     0.114430     0.092818     0.107791    Uiso  ? N
   N3         1.0     0.897062     0.213728     0.865298    Uiso  ? N
   N4         1.0     0.778580     0.095247     0.601569    Uiso  ? N
   N5         1.0     0.539744     0.212770     0.355635    Uiso  ? N
   N6         1.0     0.443281     0.093307     0.106658    Uiso  ? N
   N7         1.0     0.222007     0.206429     0.857371    Uiso  ? N
   N8         1.0     0.110096     0.096363     0.610894    Uiso  ? N
   N9         1.0     0.897157     0.213824     0.353760    Uiso  ? N
   N10        1.0     0.777685     0.094352     0.107518    Uiso  ? N
   N11        1.0     0.540745     0.211462     0.859432    Uiso  ? N
   N12        1.0     0.443475     0.095062     0.609796    Uiso  ? N
   N13        1.0     0.222555     0.539222     0.364274    Uiso  ? N
   N14        1.0     0.103836     0.420502     0.109441    Uiso  ? N
   N15        1.0     0.889762     0.538674     0.857371    Uiso  ? N
   N16        1.0     0.779696     0.426763     0.610894    Uiso  ? N
   N17        1.0     0.563420     0.523817     0.364018    Uiso  ? N
   N18        1.0     0.457010     0.423119     0.105275    Uiso  ? N
   N19        1.0     0.220881     0.537548     0.847821    Uiso  ? N
   N20        1.0     0.109994     0.426660     0.606362    Uiso  ? N
   N21        1.0     0.886993     0.539990     0.359977    Uiso  ? N
   N22        1.0     0.776151     0.431096     0.107791    Uiso  ? N
   N23        1.0     0.557276     0.538180     0.854005    Uiso  ? N
   N24        1.0     0.445389     0.426721     0.611535    Uiso  ? N
   N25        1.0     0.207151     0.880087     0.364018    Uiso  ? N
   N26        1.0     0.106452     0.773677     0.105275    Uiso  ? N
   N27        1.0     0.894795     0.857412     0.859432    Uiso  ? N
   N28        1.0     0.778395     0.760142     0.609796    Uiso  ? N
   N29        1.0     0.562985     0.879652     0.360307    Uiso  ? N
   N30        1.0     0.444506     0.761173     0.098533    Uiso  ? N
   N31        1.0     0.221513     0.873942     0.854005    Uiso  ? N
   N32        1.0     0.110054     0.762056     0.611535    Uiso  ? N
   N33        1.0     0.896103     0.856411     0.355635    Uiso  ? N
   N34        1.0     0.776640     0.759947     0.106658    Uiso  ? N
   N35        1.0     0.556383     0.873049     0.855328    Uiso  ? N
   N36        1.0     0.444866     0.761532     0.612784    Uiso  ? N
