
#======================================================================
# CRYSTAL DATA
#----------------------------------------------------------------------
data_VESTA_phase_1

_chemical_name_common                  'Al   Hf   Mg   N                      '
_cell_length_a                         9.528690
_cell_length_b                         9.528690
_cell_length_c                         10.079668
_cell_angle_alpha                      90.019569
_cell_angle_beta                       90.019569
_cell_angle_gamma                      59.975895
_cell_volume                           792.387679
_space_group_name_H-M_alt              'P 1'
_space_group_IT_number                 1

loop_
_space_group_symop_operation_xyz
   'x, y, z'

loop_
   _atom_site_label
   _atom_site_occupancy
   _atom_site_fract_x
   _atom_site_fract_y
   _atom_site_fract_z
   _atom_site_adp_type
   _atom_site_U_iso_or_equiv
   _atom_site_type_symbol
   Al1        1.0     0.106781     0.100886     0.386432    Uiso  ? Al
   Al2        1.0     0.219902     0.207569     0.137559    Uiso  ? Al
   Al3        1.0     0.892009     0.208676     0.634507    Uiso  ? Al
   Al4        1.0     0.442450     0.100983     0.386191    Uiso  ? Al
   Al5        1.0     0.551825     0.208898     0.141249    Uiso  ? Al
   Al6        1.0     0.116585     0.096370     0.889086    Uiso  ? Al
   Al7        1.0     0.222020     0.205707     0.636559    Uiso  ? Al
   Al8        1.0     0.891191     0.207857     0.140892    Uiso  ? Al
   Al9        1.0     0.437301     0.096555     0.888666    Uiso  ? Al
   Al10       1.0     0.550005     0.207947     0.634370    Uiso  ? Al
   Al11       1.0     0.111955     0.428622     0.387802    Uiso  ? Al
   Al12       1.0     0.779703     0.433252     0.889086    Uiso  ? Al
   Al13       1.0     0.889040     0.538687     0.636559    Uiso  ? Al
   Al14       1.0     0.441755     0.423553     0.388613    Uiso  ? Al
   Al15       1.0     0.559987     0.530228     0.131511    Uiso  ? Al
   Al16       1.0     0.110303     0.426970     0.887864    Uiso  ? Al
   Al17       1.0     0.222015     0.538682     0.635229    Uiso  ? Al
   Al18       1.0     0.784220     0.423448     0.386432    Uiso  ? Al
   Al19       1.0     0.890903     0.536569     0.137559    Uiso  ? Al
   Al20       1.0     0.438967     0.431794     0.888465    Uiso  ? Al
   Al21       1.0     0.557992     0.535119     0.641473    Uiso  ? Al
   Al22       1.0     0.106886     0.758422     0.388613    Uiso  ? Al
   Al23       1.0     0.213562     0.876654     0.131511    Uiso  ? Al
   Al24       1.0     0.779888     0.753968     0.888666    Uiso  ? Al
   Al25       1.0     0.891281     0.866672     0.634370    Uiso  ? Al
   Al26       1.0     0.558847     0.875513     0.131875    Uiso  ? Al
   Al27       1.0     0.115128     0.755634     0.888465    Uiso  ? Al
   Al28       1.0     0.218452     0.874658     0.641473    Uiso  ? Al
   Al29       1.0     0.784317     0.759117     0.386191    Uiso  ? Al
   Al30       1.0     0.892231     0.868492     0.141249    Uiso  ? Al
   Al31       1.0     0.444281     0.760948     0.890293    Uiso  ? Al
   Al32       1.0     0.557360     0.874026     0.641303    Uiso  ? Al
   Hf1        1.0     0.777707     0.094373     0.876102    Uiso  ? Hf
   Hf2        1.0     0.444132     0.760799     0.378906    Uiso  ? Hf
   Mg1        1.0     0.777914     0.094581     0.388663    Uiso  ? Mg
   Mg2        1.0     0.221958     0.538624     0.137309    Uiso  ? Mg
   N1         1.0     0.222564     0.204850     0.329279    Uiso  ? N
   N2         1.0     0.111441     0.095739     0.077405    Uiso  ? N
   N3         1.0     0.899636     0.216303     0.825584    Uiso  ? N
   N4         1.0     0.778053     0.094720     0.605986    Uiso  ? N
   N5         1.0     0.541986     0.212429     0.327788    Uiso  ? N
   N6         1.0     0.443028     0.095720     0.077439    Uiso  ? N
   N7         1.0     0.222417     0.205412     0.826083    Uiso  ? N
   N8         1.0     0.112909     0.093328     0.577735    Uiso  ? N
   N9         1.0     0.895854     0.212521     0.326945    Uiso  ? N
   N10        1.0     0.777495     0.094162     0.085803    Uiso  ? N
   N11        1.0     0.534905     0.214355     0.824138    Uiso  ? N
   N12        1.0     0.443925     0.092707     0.577574    Uiso  ? N
   N13        1.0     0.222772     0.539438     0.343176    Uiso  ? N
   N14        1.0     0.103679     0.420346     0.074381    Uiso  ? N
   N15        1.0     0.888746     0.539084     0.826083    Uiso  ? N
   N16        1.0     0.776662     0.429576     0.577735    Uiso  ? N
   N17        1.0     0.564734     0.520738     0.323809    Uiso  ? N
   N18        1.0     0.458521     0.419381     0.072431    Uiso  ? N
   N19        1.0     0.221611     0.538278     0.827391    Uiso  ? N
   N20        1.0     0.110174     0.426840     0.579904    Uiso  ? N
   N21        1.0     0.888183     0.539231     0.329279    Uiso  ? N
   N22        1.0     0.779073     0.428107     0.077405    Uiso  ? N
   N23        1.0     0.556609     0.538934     0.830914    Uiso  ? N
   N24        1.0     0.445888     0.428739     0.580422    Uiso  ? N
   N25        1.0     0.204071     0.881401     0.323809    Uiso  ? N
   N26        1.0     0.102714     0.775188     0.072431    Uiso  ? N
   N27        1.0     0.897688     0.851572     0.824138    Uiso  ? N
   N28        1.0     0.776040     0.760592     0.577574    Uiso  ? N
   N29        1.0     0.564302     0.880969     0.323116    Uiso  ? N
   N30        1.0     0.444390     0.761057     0.086203    Uiso  ? N
   N31        1.0     0.222268     0.873275     0.830914    Uiso  ? N
   N32        1.0     0.112072     0.762555     0.580422    Uiso  ? N
   N33        1.0     0.895762     0.858652     0.327788    Uiso  ? N
   N34        1.0     0.779053     0.759695     0.077439    Uiso  ? N
   N35        1.0     0.555869     0.872536     0.832080    Uiso  ? N
   N36        1.0     0.444541     0.761207     0.586963    Uiso  ? N
