
#======================================================================
# CRYSTAL DATA
#----------------------------------------------------------------------
data_VESTA_phase_1

_chemical_name_common                  'Al   Hf   Mg   N                      '
_cell_length_a                         9.527876
_cell_length_b                         9.527876
_cell_length_c                         10.081952
_cell_angle_alpha                      90.018288
_cell_angle_beta                       90.018288
_cell_angle_gamma                      59.973625
_cell_volume                           792.413620
_space_group_name_H-M_alt              'P 1'
_space_group_IT_number                 1

loop_
_space_group_symop_operation_xyz
   'x, y, z'

loop_
   _atom_site_label
   _atom_site_occupancy
   _atom_site_fract_x
   _atom_site_fract_y
   _atom_site_fract_z
   _atom_site_adp_type
   _atom_site_U_iso_or_equiv
   _atom_site_type_symbol
   Al1        1.0     0.107106     0.100543     0.305773    Uiso  ? Al
   Al2        1.0     0.220185     0.207144     0.057538    Uiso  ? Al
   Al3        1.0     0.890770     0.207437     0.551897    Uiso  ? Al
   Al4        1.0     0.442589     0.100618     0.306430    Uiso  ? Al
   Al5        1.0     0.549155     0.210295     0.059253    Uiso  ? Al
   Al6        1.0     0.116341     0.096655     0.805178    Uiso  ? Al
   Al7        1.0     0.221857     0.205962     0.554837    Uiso  ? Al
   Al8        1.0     0.892717     0.209383     0.059462    Uiso  ? Al
   Al9        1.0     0.437165     0.096800     0.805344    Uiso  ? Al
   Al10       1.0     0.552263     0.206904     0.552213    Uiso  ? Al
   Al11       1.0     0.110200     0.426866     0.306108    Uiso  ? Al
   Al12       1.0     0.779988     0.433008     0.805178    Uiso  ? Al
   Al13       1.0     0.889295     0.538524     0.554837    Uiso  ? Al
   Al14       1.0     0.444638     0.421913     0.306098    Uiso  ? Al
   Al15       1.0     0.558589     0.532789     0.052165    Uiso  ? Al
   Al16       1.0     0.111804     0.428471     0.804974    Uiso  ? Al
   Al17       1.0     0.221816     0.538483     0.555574    Uiso  ? Al
   Al18       1.0     0.783876     0.423772     0.305773    Uiso  ? Al
   Al19       1.0     0.890477     0.536852     0.057538    Uiso  ? Al
   Al20       1.0     0.436348     0.433146     0.803203    Uiso  ? Al
   Al21       1.0     0.559135     0.532656     0.561250    Uiso  ? Al
   Al22       1.0     0.105246     0.761305     0.306098    Uiso  ? Al
   Al23       1.0     0.216122     0.875255     0.052165    Uiso  ? Al
   Al24       1.0     0.780133     0.753832     0.805344    Uiso  ? Al
   Al25       1.0     0.890237     0.868930     0.552213    Uiso  ? Al
   Al26       1.0     0.557691     0.874358     0.051847    Uiso  ? Al
   Al27       1.0     0.116479     0.753014     0.803203    Uiso  ? Al
   Al28       1.0     0.215989     0.875801     0.561250    Uiso  ? Al
   Al29       1.0     0.783951     0.759256     0.306430    Uiso  ? Al
   Al30       1.0     0.893629     0.865821     0.059253    Uiso  ? Al
   Al31       1.0     0.444202     0.760868     0.804684    Uiso  ? Al
   Al32       1.0     0.558419     0.875086     0.561278    Uiso  ? Al
   Hf1        1.0     0.777952     0.094618     0.822725    Uiso  ? Hf
   Hf2        1.0     0.443925     0.760592     0.311137    Uiso  ? Hf
   Mg1        1.0     0.777689     0.094355     0.301286    Uiso  ? Mg
   Mg2        1.0     0.221877     0.538544     0.058648    Uiso  ? Mg
   N1         1.0     0.223445     0.203336     0.365514    Uiso  ? N
   N2         1.0     0.113781     0.092866     0.115088    Uiso  ? N
   N3         1.0     0.900355     0.217022     0.868180    Uiso  ? N
   N4         1.0     0.778002     0.094669     0.610854    Uiso  ? N
   N5         1.0     0.542994     0.210552     0.367268    Uiso  ? N
   N6         1.0     0.443980     0.093085     0.115128    Uiso  ? N
   N7         1.0     0.221676     0.206697     0.865794    Uiso  ? N
   N8         1.0     0.110859     0.096117     0.616412    Uiso  ? N
   N9         1.0     0.895563     0.212229     0.365751    Uiso  ? N
   N10        1.0     0.777864     0.094531     0.082498    Uiso  ? N
   N11        1.0     0.533414     0.216542     0.867380    Uiso  ? N
   N12        1.0     0.443161     0.095426     0.616516    Uiso  ? N
   N13        1.0     0.222591     0.539258     0.363863    Uiso  ? N
   N14        1.0     0.103365     0.420032     0.119763    Uiso  ? N
   N15        1.0     0.890030     0.538343     0.865794    Uiso  ? N
   N16        1.0     0.779450     0.427526     0.616412    Uiso  ? N
   N17        1.0     0.564938     0.522191     0.371370    Uiso  ? N
   N18        1.0     0.459034     0.422412     0.119883    Uiso  ? N
   N19        1.0     0.221426     0.538093     0.853072    Uiso  ? N
   N20        1.0     0.110239     0.426905     0.612652    Uiso  ? N
   N21        1.0     0.886669     0.540112     0.365514    Uiso  ? N
   N22        1.0     0.776199     0.430448     0.115088    Uiso  ? N
   N23        1.0     0.556428     0.537414     0.860632    Uiso  ? N
   N24        1.0     0.444900     0.426821     0.614076    Uiso  ? N
   N25        1.0     0.205524     0.881605     0.371370    Uiso  ? N
   N26        1.0     0.105746     0.775700     0.119883    Uiso  ? N
   N27        1.0     0.899876     0.850080     0.867380    Uiso  ? N
   N28        1.0     0.778760     0.759827     0.616516    Uiso  ? N
   N29        1.0     0.563602     0.880269     0.370071    Uiso  ? N
   N30        1.0     0.444618     0.761285     0.103583    Uiso  ? N
   N31        1.0     0.220747     0.873095     0.860632    Uiso  ? N
   N32        1.0     0.110154     0.761567     0.614076    Uiso  ? N
   N33        1.0     0.893885     0.859661     0.367268    Uiso  ? N
   N34        1.0     0.776419     0.760647     0.115128    Uiso  ? N
   N35        1.0     0.556136     0.872803     0.861214    Uiso  ? N
   N36        1.0     0.444468     0.761135     0.609228    Uiso  ? N
