
#======================================================================
# CRYSTAL DATA
#----------------------------------------------------------------------
data_VESTA_phase_1

_chemical_name_common                  'Al   Hf   Mg   N                      '
_cell_length_a                         10.007925
_cell_length_b                         10.007925
_cell_length_c                         8.666417
_cell_angle_alpha                      90.003418
_cell_angle_beta                       90.003418
_cell_angle_gamma                      59.965263
_cell_volume                           751.460546
_space_group_name_H-M_alt              'P 1'
_space_group_IT_number                 1

loop_
_space_group_symop_operation_xyz
   'x, y, z'

loop_
   _atom_site_label
   _atom_site_occupancy
   _atom_site_fract_x
   _atom_site_fract_y
   _atom_site_fract_z
   _atom_site_adp_type
   _atom_site_U_iso_or_equiv
   _atom_site_type_symbol
   Al1        1.0     0.111592     0.097533     0.365322    Uiso  ? Al
   Al2        1.0     0.221072     0.205198     0.115281    Uiso  ? Al
   Al3        1.0     0.891265     0.207932     0.598356    Uiso  ? Al
   Al4        1.0     0.441367     0.096831     0.366076    Uiso  ? Al
   Al5        1.0     0.552163     0.206928     0.127204    Uiso  ? Al
   Al6        1.0     0.113123     0.099066     0.860960    Uiso  ? Al
   Al7        1.0     0.221015     0.207707     0.612145    Uiso  ? Al
   Al8        1.0     0.891897     0.208564     0.124061    Uiso  ? Al
   Al9        1.0     0.438114     0.099541     0.861686    Uiso  ? Al
   Al10       1.0     0.550712     0.208677     0.597654    Uiso  ? Al
   Al11       1.0     0.111304     0.427970     0.357069    Uiso  ? Al
   Al12       1.0     0.782399     0.429790     0.860960    Uiso  ? Al
   Al13       1.0     0.891040     0.537682     0.612145    Uiso  ? Al
   Al14       1.0     0.440796     0.428047     0.360391    Uiso  ? Al
   Al15       1.0     0.561676     0.529481     0.099439    Uiso  ? Al
   Al16       1.0     0.110953     0.427619     0.868901    Uiso  ? Al
   Al17       1.0     0.221661     0.538328     0.606200    Uiso  ? Al
   Al18       1.0     0.780867     0.428258     0.365322    Uiso  ? Al
   Al19       1.0     0.888531     0.537739     0.115280    Uiso  ? Al
   Al20       1.0     0.438737     0.428523     0.863804    Uiso  ? Al
   Al21       1.0     0.557732     0.533831     0.621099    Uiso  ? Al
   Al22       1.0     0.111380     0.757463     0.360391    Uiso  ? Al
   Al23       1.0     0.212814     0.878343     0.099439    Uiso  ? Al
   Al24       1.0     0.782875     0.754781     0.861686    Uiso  ? Al
   Al25       1.0     0.892010     0.867379     0.597654    Uiso  ? Al
   Al26       1.0     0.559631     0.876297     0.099748    Uiso  ? Al
   Al27       1.0     0.111856     0.755404     0.863804    Uiso  ? Al
   Al28       1.0     0.217165     0.874398     0.621099    Uiso  ? Al
   Al29       1.0     0.780164     0.758033     0.366076    Uiso  ? Al
   Al30       1.0     0.890261     0.868829     0.127204    Uiso  ? Al
   Al31       1.0     0.444262     0.760929     0.860681    Uiso  ? Al
   Al32       1.0     0.557600     0.874267     0.623596    Uiso  ? Al
   Hf1        1.0     0.777539     0.094206     0.853661    Uiso  ? Hf
   Hf2        1.0     0.444477     0.761143     0.352295    Uiso  ? Hf
   Mg1        1.0     0.778184     0.094851     0.358268    Uiso  ? Mg
   Mg2        1.0     0.221970     0.538637     0.109083    Uiso  ? Mg
   N1         1.0     0.223943     0.202671     0.346792    Uiso  ? N
   N2         1.0     0.110657     0.096529     0.092986    Uiso  ? N
   N3         1.0     0.896945     0.213611     0.840901    Uiso  ? N
   N4         1.0     0.778466     0.095133     0.600286    Uiso  ? N
   N5         1.0     0.540012     0.212167     0.353601    Uiso  ? N
   N6         1.0     0.443137     0.096813     0.092607    Uiso  ? N
   N7         1.0     0.221422     0.207693     0.843023    Uiso  ? N
   N8         1.0     0.113853     0.092884     0.597750    Uiso  ? N
   N9         1.0     0.897261     0.213927     0.351308    Uiso  ? N
   N10        1.0     0.777490     0.094157     0.104736    Uiso  ? N
   N11        1.0     0.539890     0.212289     0.836634    Uiso  ? N
   N12        1.0     0.443427     0.091392     0.597026    Uiso  ? N
   N13        1.0     0.222658     0.539325     0.358457    Uiso  ? N
   N14        1.0     0.103971     0.420637     0.099886    Uiso  ? N
   N15        1.0     0.891026     0.538089     0.843023    Uiso  ? N
   N16        1.0     0.776217     0.430520     0.597750    Uiso  ? N
   N17        1.0     0.564128     0.523597     0.343229    Uiso  ? N
   N18        1.0     0.457663     0.419085     0.093983    Uiso  ? N
   N19        1.0     0.220719     0.537386     0.841437    Uiso  ? N
   N20        1.0     0.109949     0.426616     0.590935    Uiso  ? N
   N21        1.0     0.886004     0.540609     0.346792    Uiso  ? N
   N22        1.0     0.779862     0.427323     0.092986    Uiso  ? N
   N23        1.0     0.556794     0.538208     0.850112    Uiso  ? N
   N24        1.0     0.445386     0.430152     0.597379    Uiso  ? N
   N25        1.0     0.206930     0.880795     0.343229    Uiso  ? N
   N26        1.0     0.102418     0.774330     0.093983    Uiso  ? N
   N27        1.0     0.895622     0.856557     0.836634    Uiso  ? N
   N28        1.0     0.774725     0.760093     0.597026    Uiso  ? N
   N29        1.0     0.563460     0.880127     0.339196    Uiso  ? N
   N30        1.0     0.444415     0.761082     0.094431    Uiso  ? N
   N31        1.0     0.221542     0.873461     0.850112    Uiso  ? N
   N32        1.0     0.113485     0.762053     0.597379    Uiso  ? N
   N33        1.0     0.895501     0.856679     0.353601    Uiso  ? N
   N34        1.0     0.780146     0.759804     0.092607    Uiso  ? N
   N35        1.0     0.556269     0.872935     0.851753    Uiso  ? N
   N36        1.0     0.444830     0.761496     0.606185    Uiso  ? N
