
#======================================================================
# CRYSTAL DATA
#----------------------------------------------------------------------
data_VESTA_phase_1

_chemical_name_common                  'Al   Hf   Mg   N                      '
_cell_length_a                         9.527952
_cell_length_b                         9.527955
_cell_length_c                         10.081780
_cell_angle_alpha                      90.018166
_cell_angle_beta                       90.018158
_cell_angle_gamma                      59.973537
_cell_volume                           792.412356
_space_group_name_H-M_alt              'P 1'
_space_group_IT_number                 1

loop_
_space_group_symop_operation_xyz
   'x, y, z'

loop_
   _atom_site_label
   _atom_site_occupancy
   _atom_site_fract_x
   _atom_site_fract_y
   _atom_site_fract_z
   _atom_site_adp_type
   _atom_site_U_iso_or_equiv
   _atom_site_type_symbol
   Al1        1.0     0.107109     0.100545     0.316624    Uiso  ? Al
   Al2        1.0     0.220187     0.207146     0.068385    Uiso  ? Al
   Al3        1.0     0.890772     0.207439     0.562749    Uiso  ? Al
   Al4        1.0     0.442592     0.100621     0.317280    Uiso  ? Al
   Al5        1.0     0.549157     0.210297     0.070100    Uiso  ? Al
   Al6        1.0     0.116343     0.096657     0.816029    Uiso  ? Al
   Al7        1.0     0.221859     0.205965     0.565688    Uiso  ? Al
   Al8        1.0     0.892719     0.209386     0.070312    Uiso  ? Al
   Al9        1.0     0.437167     0.096802     0.816194    Uiso  ? Al
   Al10       1.0     0.552265     0.206907     0.563066    Uiso  ? Al
   Al11       1.0     0.110202     0.426868     0.316955    Uiso  ? Al
   Al12       1.0     0.779990     0.433010     0.816029    Uiso  ? Al
   Al13       1.0     0.889298     0.538526     0.565688    Uiso  ? Al
   Al14       1.0     0.444641     0.421915     0.316945    Uiso  ? Al
   Al15       1.0     0.558591     0.532792     0.063017    Uiso  ? Al
   Al16       1.0     0.111807     0.428473     0.815826    Uiso  ? Al
   Al17       1.0     0.221818     0.538485     0.566424    Uiso  ? Al
   Al18       1.0     0.783878     0.423775     0.316624    Uiso  ? Al
   Al19       1.0     0.890479     0.536854     0.068385    Uiso  ? Al
   Al20       1.0     0.436349     0.433149     0.814058    Uiso  ? Al
   Al21       1.0     0.559138     0.532656     0.572103    Uiso  ? Al
   Al22       1.0     0.105248     0.761308     0.316945    Uiso  ? Al
   Al23       1.0     0.216126     0.875258     0.063017    Uiso  ? Al
   Al24       1.0     0.780135     0.753834     0.816194    Uiso  ? Al
   Al25       1.0     0.890241     0.868931     0.563066    Uiso  ? Al
   Al26       1.0     0.557693     0.874360     0.062699    Uiso  ? Al
   Al27       1.0     0.116482     0.753016     0.814058    Uiso  ? Al
   Al28       1.0     0.215989     0.875804     0.572103    Uiso  ? Al
   Al29       1.0     0.783954     0.759258     0.317280    Uiso  ? Al
   Al30       1.0     0.893630     0.865823     0.070100    Uiso  ? Al
   Al31       1.0     0.444204     0.760871     0.815534    Uiso  ? Al
   Al32       1.0     0.558423     0.875089     0.572130    Uiso  ? Al
   Hf1        1.0     0.777955     0.094621     0.833578    Uiso  ? Hf
   Hf2        1.0     0.443928     0.760594     0.321996    Uiso  ? Hf
   Mg1        1.0     0.777691     0.094357     0.312139    Uiso  ? Mg
   Mg2        1.0     0.221879     0.538546     0.069500    Uiso  ? Mg
   N1         1.0     0.223447     0.203338     0.376362    Uiso  ? N
   N2         1.0     0.113784     0.092868     0.125935    Uiso  ? N
   N3         1.0     0.900358     0.217025     0.879027    Uiso  ? N
   N4         1.0     0.778005     0.094672     0.621703    Uiso  ? N
   N5         1.0     0.542996     0.210555     0.378116    Uiso  ? N
   N6         1.0     0.443982     0.093088     0.125974    Uiso  ? N
   N7         1.0     0.221679     0.206699     0.876640    Uiso  ? N
   N8         1.0     0.110862     0.096119     0.627261    Uiso  ? N
   N9         1.0     0.895565     0.212232     0.376599    Uiso  ? N
   N10        1.0     0.777867     0.094533     0.093343    Uiso  ? N
   N11        1.0     0.533416     0.216544     0.878226    Uiso  ? N
   N12        1.0     0.443163     0.095429     0.627365    Uiso  ? N
   N13        1.0     0.222593     0.539260     0.374709    Uiso  ? N
   N14        1.0     0.103367     0.420033     0.130607    Uiso  ? N
   N15        1.0     0.890032     0.538345     0.876640    Uiso  ? N
   N16        1.0     0.779453     0.427528     0.627261    Uiso  ? N
   N17        1.0     0.564941     0.522190     0.382219    Uiso  ? N
   N18        1.0     0.459037     0.422413     0.130728    Uiso  ? N
   N19        1.0     0.221428     0.538095     0.863923    Uiso  ? N
   N20        1.0     0.110242     0.426908     0.623501    Uiso  ? N
   N21        1.0     0.886671     0.540114     0.376362    Uiso  ? N
   N22        1.0     0.776202     0.430450     0.125935    Uiso  ? N
   N23        1.0     0.556430     0.537417     0.871480    Uiso  ? N
   N24        1.0     0.444902     0.426824     0.624927    Uiso  ? N
   N25        1.0     0.205524     0.881608     0.382219    Uiso  ? N
   N26        1.0     0.105747     0.775703     0.130728    Uiso  ? N
   N27        1.0     0.899877     0.850082     0.878226    Uiso  ? N
   N28        1.0     0.778762     0.759829     0.627365    Uiso  ? N
   N29        1.0     0.563606     0.880273     0.380919    Uiso  ? N
   N30        1.0     0.444621     0.761287     0.114437    Uiso  ? N
   N31        1.0     0.220751     0.873097     0.871480    Uiso  ? N
   N32        1.0     0.110157     0.761568     0.624927    Uiso  ? N
   N33        1.0     0.893889     0.859662     0.378116    Uiso  ? N
   N34        1.0     0.776421     0.760648     0.125974    Uiso  ? N
   N35        1.0     0.556138     0.872804     0.872062    Uiso  ? N
   N36        1.0     0.444471     0.761137     0.620074    Uiso  ? N
