
#======================================================================
# CRYSTAL DATA
#----------------------------------------------------------------------
data_VESTA_phase_1

_chemical_name_common                  'Al   Hf   Mg   N                      '
_cell_length_a                         9.544866
_cell_length_b                         9.544865
_cell_length_c                         10.036943
_cell_angle_alpha                      90.017708
_cell_angle_beta                       90.017708
_cell_angle_gamma                      59.976246
_cell_volume                           791.712806
_space_group_name_H-M_alt              'P 1'
_space_group_IT_number                 1

loop_
_space_group_symop_operation_xyz
   'x, y, z'

loop_
   _atom_site_label
   _atom_site_occupancy
   _atom_site_fract_x
   _atom_site_fract_y
   _atom_site_fract_z
   _atom_site_adp_type
   _atom_site_U_iso_or_equiv
   _atom_site_type_symbol
   Al1        1.0     0.106869     0.100848     0.382722    Uiso  ? Al
   Al2        1.0     0.219920     0.207480     0.133742    Uiso  ? Al
   Al3        1.0     0.892071     0.208738     0.630300    Uiso  ? Al
   Al4        1.0     0.442425     0.100875     0.382455    Uiso  ? Al
   Al5        1.0     0.551893     0.208809     0.137473    Uiso  ? Al
   Al6        1.0     0.116544     0.096414     0.884952    Uiso  ? Al
   Al7        1.0     0.221987     0.205791     0.632629    Uiso  ? Al
   Al8        1.0     0.891199     0.207865     0.137001    Uiso  ? Al
   Al9        1.0     0.437284     0.096641     0.884561    Uiso  ? Al
   Al10       1.0     0.549891     0.208015     0.629997    Uiso  ? Al
   Al11       1.0     0.111974     0.428641     0.383644    Uiso  ? Al
   Al12       1.0     0.779748     0.433211     0.884952    Uiso  ? Al
   Al13       1.0     0.889125     0.538653     0.632629    Uiso  ? Al
   Al14       1.0     0.441632     0.423694     0.384697    Uiso  ? Al
   Al15       1.0     0.560374     0.529582     0.127608    Uiso  ? Al
   Al16       1.0     0.110280     0.426947     0.884132    Uiso  ? Al
   Al17       1.0     0.221988     0.538655     0.631222    Uiso  ? Al
   Al18       1.0     0.784181     0.423536     0.382722    Uiso  ? Al
   Al19       1.0     0.890813     0.536586     0.133742    Uiso  ? Al
   Al20       1.0     0.439023     0.431691     0.884349    Uiso  ? Al
   Al21       1.0     0.557774     0.535525     0.637263    Uiso  ? Al
   Al22       1.0     0.107027     0.758298     0.384697    Uiso  ? Al
   Al23       1.0     0.212915     0.877041     0.127608    Uiso  ? Al
   Al24       1.0     0.779975     0.753951     0.884561    Uiso  ? Al
   Al25       1.0     0.891349     0.866558     0.629997    Uiso  ? Al
   Al26       1.0     0.559151     0.875818     0.127839    Uiso  ? Al
   Al27       1.0     0.115025     0.755690     0.884349    Uiso  ? Al
   Al28       1.0     0.218858     0.874441     0.637263    Uiso  ? Al
   Al29       1.0     0.784209     0.759092     0.382455    Uiso  ? Al
   Al30       1.0     0.892142     0.868560     0.137473    Uiso  ? Al
   Al31       1.0     0.444270     0.760936     0.887000    Uiso  ? Al
   Al32       1.0     0.557152     0.873819     0.637197    Uiso  ? Al
   Hf1        1.0     0.777679     0.094345     0.871284    Uiso  ? Hf
   Hf2        1.0     0.444142     0.760809     0.373096    Uiso  ? Hf
   Mg1        1.0     0.777958     0.094624     0.384369    Uiso  ? Mg
   Mg2        1.0     0.221980     0.538647     0.132928    Uiso  ? Mg
   N1         1.0     0.222637     0.204723     0.326000    Uiso  ? N
   N2         1.0     0.111368     0.095848     0.073936    Uiso  ? N
   N3         1.0     0.899661     0.216328     0.822066    Uiso  ? N
   N4         1.0     0.778075     0.094741     0.602679    Uiso  ? N
   N5         1.0     0.541892     0.212433     0.324797    Uiso  ? N
   N6         1.0     0.442986     0.095852     0.073999    Uiso  ? N
   N7         1.0     0.222365     0.205522     0.822736    Uiso  ? N
   N8         1.0     0.113015     0.093284     0.574520    Uiso  ? N
   N9         1.0     0.895950     0.212616     0.323840    Uiso  ? N
   N10        1.0     0.777489     0.094156     0.082191    Uiso  ? N
   N11        1.0     0.534820     0.214383     0.820498    Uiso  ? N
   N12        1.0     0.443870     0.092601     0.574332    Uiso  ? N
   N13        1.0     0.222782     0.539448     0.339575    Uiso  ? N
   N14        1.0     0.103620     0.420287     0.071329    Uiso  ? N
   N15        1.0     0.888856     0.539032     0.822736    Uiso  ? N
   N16        1.0     0.776617     0.429681     0.574520    Uiso  ? N
   N17        1.0     0.565035     0.520185     0.320476    Uiso  ? N
   N18        1.0     0.458621     0.419202     0.069040    Uiso  ? N
   N19        1.0     0.221563     0.538230     0.824113    Uiso  ? N
   N20        1.0     0.110177     0.426843     0.576383    Uiso  ? N
   N21        1.0     0.888056     0.539304     0.326000    Uiso  ? N
   N22        1.0     0.779182     0.428035     0.073936    Uiso  ? N
   N23        1.0     0.556453     0.539263     0.827544    Uiso  ? N
   N24        1.0     0.445815     0.428888     0.577082    Uiso  ? N
   N25        1.0     0.203519     0.881702     0.320476    Uiso  ? N
   N26        1.0     0.102535     0.775288     0.069040    Uiso  ? N
   N27        1.0     0.897716     0.851486     0.820498    Uiso  ? N
   N28        1.0     0.775935     0.760537     0.574332    Uiso  ? N
   N29        1.0     0.564581     0.881248     0.319688    Uiso  ? N
   N30        1.0     0.444377     0.761044     0.083987    Uiso  ? N
   N31        1.0     0.222596     0.873120     0.827544    Uiso  ? N
   N32        1.0     0.112221     0.762482     0.577082    Uiso  ? N
   N33        1.0     0.895766     0.858559     0.324797    Uiso  ? N
   N34        1.0     0.779186     0.759652     0.073999    Uiso  ? N
   N35        1.0     0.555719     0.872386     0.828813    Uiso  ? N
   N36        1.0     0.444555     0.761221     0.582214    Uiso  ? N
