
#======================================================================
# CRYSTAL DATA
#----------------------------------------------------------------------
data_VESTA_phase_1

_chemical_name_common                  'Al   Hf   Mg   N '
_cell_length_a                         9.526462
_cell_length_b                         9.526464
_cell_length_c                         10.081636
_cell_angle_alpha                      90.017555
_cell_angle_beta                       90.017555
_cell_angle_gamma                      59.973896
_cell_volume                           792.155913
_space_group_name_H-M_alt              'P 1'
_space_group_IT_number                 1

loop_
_space_group_symop_operation_xyz
   'x, y, z'

loop_
   _atom_site_label
   _atom_site_occupancy
   _atom_site_fract_x
   _atom_site_fract_y
   _atom_site_fract_z
   _atom_site_adp_type
   _atom_site_U_iso_or_equiv
   _atom_site_type_symbol
   Al1        1.0     0.107101     0.100540     0.295502    Uiso  ? Al
   Al2        1.0     0.220180     0.207132     0.047265    Uiso  ? Al
   Al3        1.0     0.890762     0.207429     0.541629    Uiso  ? Al
   Al4        1.0     0.442586     0.100628     0.296164    Uiso  ? Al
   Al5        1.0     0.549134     0.210297     0.048983    Uiso  ? Al
   Al6        1.0     0.116339     0.096640     0.794906    Uiso  ? Al
   Al7        1.0     0.221855     0.205963     0.544575    Uiso  ? Al
   Al8        1.0     0.892710     0.209377     0.049192    Uiso  ? Al
   Al9        1.0     0.437163     0.096795     0.795071    Uiso  ? Al
   Al10       1.0     0.552273     0.206910     0.541945    Uiso  ? Al
   Al11       1.0     0.110195     0.426863     0.295838    Uiso  ? Al
   Al12       1.0     0.779974     0.433005     0.794906    Uiso  ? Al
   Al13       1.0     0.889296     0.538523     0.544575    Uiso  ? Al
   Al14       1.0     0.444626     0.421921     0.295825    Uiso  ? Al
   Al15       1.0     0.558573     0.532799     0.041907    Uiso  ? Al
   Al16       1.0     0.111796     0.428463     0.794713    Uiso  ? Al
   Al17       1.0     0.221813     0.538481     0.545312    Uiso  ? Al
   Al18       1.0     0.783873     0.423768     0.295502    Uiso  ? Al
   Al19       1.0     0.890465     0.536847     0.047265    Uiso  ? Al
   Al20       1.0     0.436347     0.433153     0.792940    Uiso  ? Al
   Al21       1.0     0.559133     0.532659     0.550974    Uiso  ? Al
   Al22       1.0     0.105254     0.761293     0.295825    Uiso  ? Al
   Al23       1.0     0.216133     0.875239     0.041907    Uiso  ? Al
   Al24       1.0     0.780129     0.753829     0.795071    Uiso  ? Al
   Al25       1.0     0.890242     0.868942     0.541945    Uiso  ? Al
   Al26       1.0     0.557688     0.874354     0.041591    Uiso  ? Al
   Al27       1.0     0.116487     0.753012     0.792940    Uiso  ? Al
   Al28       1.0     0.215993     0.875800     0.550974    Uiso  ? Al
   Al29       1.0     0.783960     0.759254     0.296165    Uiso  ? Al
   Al30       1.0     0.893632     0.865799     0.048983    Uiso  ? Al
   Al31       1.0     0.444206     0.760873     0.794408    Uiso  ? Al
   Al32       1.0     0.558431     0.875098     0.551004    Uiso  ? Al
   Hf1        1.0     0.777944     0.094610     0.812462    Uiso  ? Hf
   Hf2        1.0     0.443938     0.760604     0.300879    Uiso  ? Hf
   Mg1        1.0     0.777687     0.094354     0.290994    Uiso  ? Mg
   Mg2        1.0     0.221864     0.538530     0.048364    Uiso  ? Mg
   N1         1.0     0.223441     0.203334     0.355259    Uiso  ? N
   N2         1.0     0.113774     0.092855     0.104828    Uiso  ? N
   N3         1.0     0.900354     0.217020     0.857919    Uiso  ? N
   N4         1.0     0.778002     0.094670     0.600598    Uiso  ? N
   N5         1.0     0.543007     0.210558     0.357004    Uiso  ? N
   N6         1.0     0.443967     0.093084     0.104872    Uiso  ? N
   N7         1.0     0.221672     0.206684     0.855532    Uiso  ? N
   N8         1.0     0.110857     0.096112     0.606147    Uiso  ? N
   N9         1.0     0.895552     0.212219     0.355489    Uiso  ? N
   N10        1.0     0.777854     0.094519     0.072228    Uiso  ? N
   N11        1.0     0.533394     0.216551     0.857122    Uiso  ? N
   N12        1.0     0.443163     0.095434     0.606252    Uiso  ? N
   N13        1.0     0.222585     0.539252     0.353611    Uiso  ? N
   N14        1.0     0.103357     0.420023     0.109501    Uiso  ? N
   N15        1.0     0.890017     0.538338     0.855532    Uiso  ? N
   N16        1.0     0.779445     0.427524     0.606147    Uiso  ? N
   N17        1.0     0.564936     0.522183     0.361108    Uiso  ? N
   N18        1.0     0.459007     0.422420     0.109619    Uiso  ? N
   N19        1.0     0.221423     0.538088     0.842819    Uiso  ? N
   N20        1.0     0.110238     0.426905     0.602400    Uiso  ? N
   N21        1.0     0.886666     0.540108     0.355259    Uiso  ? N
   N22        1.0     0.776189     0.430440     0.104828    Uiso  ? N
   N23        1.0     0.556418     0.537426     0.850375    Uiso  ? N
   N24        1.0     0.444897     0.426830     0.603818    Uiso  ? N
   N25        1.0     0.205516     0.881603     0.361108    Uiso  ? N
   N26        1.0     0.105755     0.775673     0.109620    Uiso  ? N
   N27        1.0     0.899885     0.850060     0.857122    Uiso  ? N
   N28        1.0     0.778767     0.759830     0.606252    Uiso  ? N
   N29        1.0     0.563619     0.880287     0.359815    Uiso  ? N
   N30        1.0     0.444619     0.761284     0.093337    Uiso  ? N
   N31        1.0     0.220760     0.873084     0.850375    Uiso  ? N
   N32        1.0     0.110162     0.761565     0.603818    Uiso  ? N
   N33        1.0     0.893890     0.859675     0.357004    Uiso  ? N
   N34        1.0     0.776418     0.760634     0.104872    Uiso  ? N
   N35        1.0     0.556136     0.872802     0.850956    Uiso  ? N
   N36        1.0     0.444475     0.761142     0.598954    Uiso  ? N
