
#======================================================================
# CRYSTAL DATA
#----------------------------------------------------------------------
data_VESTA_phase_1

_chemical_name_common                  'Al   Hf   Mg   N                      '
_cell_length_a                         9.527899
_cell_length_b                         9.527899
_cell_length_c                         10.081907
_cell_angle_alpha                      90.018272
_cell_angle_beta                       90.018272
_cell_angle_gamma                      59.973614
_cell_volume                           792.413813
_space_group_name_H-M_alt              'P 1'
_space_group_IT_number                 1

loop_
_space_group_symop_operation_xyz
   'x, y, z'

loop_
   _atom_site_label
   _atom_site_occupancy
   _atom_site_fract_x
   _atom_site_fract_y
   _atom_site_fract_z
   _atom_site_adp_type
   _atom_site_U_iso_or_equiv
   _atom_site_type_symbol
   Al1        1.0     0.107107     0.100543     0.309266    Uiso  ? Al
   Al2        1.0     0.220186     0.207144     0.061027    Uiso  ? Al
   Al3        1.0     0.890771     0.207437     0.555391    Uiso  ? Al
   Al4        1.0     0.442590     0.100619     0.309922    Uiso  ? Al
   Al5        1.0     0.549155     0.210295     0.062742    Uiso  ? Al
   Al6        1.0     0.116342     0.096656     0.808670    Uiso  ? Al
   Al7        1.0     0.221857     0.205963     0.558329    Uiso  ? Al
   Al8        1.0     0.892718     0.209384     0.062954    Uiso  ? Al
   Al9        1.0     0.437166     0.096800     0.808835    Uiso  ? Al
   Al10       1.0     0.552263     0.206906     0.555708    Uiso  ? Al
   Al11       1.0     0.110200     0.426867     0.309596    Uiso  ? Al
   Al12       1.0     0.779989     0.433008     0.808670    Uiso  ? Al
   Al13       1.0     0.889297     0.538524     0.558329    Uiso  ? Al
   Al14       1.0     0.444640     0.421913     0.309588    Uiso  ? Al
   Al15       1.0     0.558590     0.532789     0.055659    Uiso  ? Al
   Al16       1.0     0.111805     0.428472     0.808468    Uiso  ? Al
   Al17       1.0     0.221817     0.538483     0.559066    Uiso  ? Al
   Al18       1.0     0.783877     0.423773     0.309266    Uiso  ? Al
   Al19       1.0     0.890477     0.536853     0.061027    Uiso  ? Al
   Al20       1.0     0.436348     0.433148     0.806699    Uiso  ? Al
   Al21       1.0     0.559135     0.532656     0.564746    Uiso  ? Al
   Al22       1.0     0.105246     0.761306     0.309588    Uiso  ? Al
   Al23       1.0     0.216123     0.875257     0.055659    Uiso  ? Al
   Al24       1.0     0.780133     0.753832     0.808835    Uiso  ? Al
   Al25       1.0     0.890239     0.868930     0.555708    Uiso  ? Al
   Al26       1.0     0.557692     0.874359     0.055341    Uiso  ? Al
   Al27       1.0     0.116481     0.753015     0.806699    Uiso  ? Al
   Al28       1.0     0.215989     0.875802     0.564746    Uiso  ? Al
   Al29       1.0     0.783952     0.759257     0.309922    Uiso  ? Al
   Al30       1.0     0.893629     0.865822     0.062742    Uiso  ? Al
   Al31       1.0     0.444203     0.760869     0.808179    Uiso  ? Al
   Al32       1.0     0.558420     0.875087     0.564773    Uiso  ? Al
   Hf1        1.0     0.777953     0.094619     0.826219    Uiso  ? Hf
   Hf2        1.0     0.443926     0.760592     0.314633    Uiso  ? Hf
   Mg1        1.0     0.777689     0.094356     0.304781    Uiso  ? Mg
   Mg2        1.0     0.221878     0.538545     0.062141    Uiso  ? Mg
   N1         1.0     0.223446     0.203337     0.369005    Uiso  ? N
   N2         1.0     0.113782     0.092867     0.118580    Uiso  ? N
   N3         1.0     0.900356     0.217023     0.871670    Uiso  ? N
   N4         1.0     0.778003     0.094670     0.614347    Uiso  ? N
   N5         1.0     0.542994     0.210553     0.370761    Uiso  ? N
   N6         1.0     0.443980     0.093086     0.118619    Uiso  ? N
   N7         1.0     0.221677     0.206697     0.869284    Uiso  ? N
   N8         1.0     0.110860     0.096118     0.619904    Uiso  ? N
   N9         1.0     0.895564     0.212230     0.369244    Uiso  ? N
   N10        1.0     0.777865     0.094532     0.085987    Uiso  ? N
   N11        1.0     0.533414     0.216543     0.870870    Uiso  ? N
   N12        1.0     0.443161     0.095427     0.620008    Uiso  ? N
   N13        1.0     0.222592     0.539258     0.367353    Uiso  ? N
   N14        1.0     0.103366     0.420032     0.123250    Uiso  ? N
   N15        1.0     0.890031     0.538344     0.869284    Uiso  ? N
   N16        1.0     0.779451     0.427527     0.619904    Uiso  ? N
   N17        1.0     0.564939     0.522190     0.374864    Uiso  ? N
   N18        1.0     0.459035     0.422412     0.123373    Uiso  ? N
   N19        1.0     0.221427     0.538093     0.856567    Uiso  ? N
   N20        1.0     0.110240     0.426907     0.616144    Uiso  ? N
   N21        1.0     0.886670     0.540112     0.369005    Uiso  ? N
   N22        1.0     0.776201     0.430449     0.118580    Uiso  ? N
   N23        1.0     0.556430     0.537415     0.864124    Uiso  ? N
   N24        1.0     0.444900     0.426822     0.617571    Uiso  ? N
   N25        1.0     0.205524     0.881606     0.374864    Uiso  ? N
   N26        1.0     0.105745     0.775702     0.123373    Uiso  ? N
   N27        1.0     0.899876     0.850081     0.870870    Uiso  ? N
   N28        1.0     0.778760     0.759828     0.620008    Uiso  ? N
   N29        1.0     0.563603     0.880270     0.373563    Uiso  ? N
   N30        1.0     0.444619     0.761286     0.107077    Uiso  ? N
   N31        1.0     0.220748     0.873096     0.864124    Uiso  ? N
   N32        1.0     0.110156     0.761567     0.617571    Uiso  ? N
   N33        1.0     0.893887     0.859661     0.370761    Uiso  ? N
   N34        1.0     0.776420     0.760647     0.118619    Uiso  ? N
   N35        1.0     0.556137     0.872804     0.864706    Uiso  ? N
   N36        1.0     0.444469     0.761136     0.612722    Uiso  ? N
