
#======================================================================
# CRYSTAL DATA
#----------------------------------------------------------------------
data_VESTA_phase_1

_chemical_name_common                  'Al   Hf   Mg   N                      '
_cell_length_a                         10.008868
_cell_length_b                         10.008867
_cell_length_c                         8.666484
_cell_angle_alpha                      89.992615
_cell_angle_beta                       89.992615
_cell_angle_gamma                      59.944027
_cell_volume                           751.446790
_space_group_name_H-M_alt              'P 1'
_space_group_IT_number                 1

loop_
_space_group_symop_operation_xyz
   'x, y, z'

loop_
   _atom_site_label
   _atom_site_occupancy
   _atom_site_fract_x
   _atom_site_fract_y
   _atom_site_fract_z
   _atom_site_adp_type
   _atom_site_U_iso_or_equiv
   _atom_site_type_symbol
   Al1        1.0     0.112268     0.097190     0.342851    Uiso  ? Al
   Al2        1.0     0.220813     0.205561     0.094122    Uiso  ? Al
   Al3        1.0     0.891709     0.208375     0.580568    Uiso  ? Al
   Al4        1.0     0.440738     0.097798     0.344089    Uiso  ? Al
   Al5        1.0     0.553020     0.206883     0.110594    Uiso  ? Al
   Al6        1.0     0.112457     0.099303     0.844758    Uiso  ? Al
   Al7        1.0     0.221192     0.207110     0.594911    Uiso  ? Al
   Al8        1.0     0.891583     0.208249     0.110022    Uiso  ? Al
   Al9        1.0     0.438857     0.098439     0.845506    Uiso  ? Al
   Al10       1.0     0.549683     0.209346     0.583431    Uiso  ? Al
   Al11       1.0     0.110861     0.427528     0.344142    Uiso  ? Al
   Al12       1.0     0.782636     0.429124     0.844758    Uiso  ? Al
   Al13       1.0     0.890443     0.537859     0.594911    Uiso  ? Al
   Al14       1.0     0.441035     0.428134     0.340069    Uiso  ? Al
   Al15       1.0     0.559839     0.533640     0.083788    Uiso  ? Al
   Al16       1.0     0.111173     0.427840     0.847957    Uiso  ? Al
   Al17       1.0     0.221852     0.538519     0.601739    Uiso  ? Al
   Al18       1.0     0.780524     0.428935     0.342851    Uiso  ? Al
   Al19       1.0     0.888894     0.537480     0.094122    Uiso  ? Al
   Al20       1.0     0.438363     0.428861     0.851066    Uiso  ? Al
   Al21       1.0     0.559568     0.529878     0.608136    Uiso  ? Al
   Al22       1.0     0.111467     0.757702     0.340069    Uiso  ? Al
   Al23       1.0     0.216973     0.876506     0.083788    Uiso  ? Al
   Al24       1.0     0.781773     0.755524     0.845506    Uiso  ? Al
   Al25       1.0     0.892679     0.866350     0.583431    Uiso  ? Al
   Al26       1.0     0.557803     0.874470     0.086269    Uiso  ? Al
   Al27       1.0     0.112195     0.755030     0.851066    Uiso  ? Al
   Al28       1.0     0.213211     0.876235     0.608136    Uiso  ? Al
   Al29       1.0     0.781132     0.757404     0.344088    Uiso  ? Al
   Al30       1.0     0.890216     0.869687     0.110594    Uiso  ? Al
   Al31       1.0     0.444725     0.761391     0.845687    Uiso  ? Al
   Al32       1.0     0.559513     0.876180     0.607025    Uiso  ? Al
   Hf1        1.0     0.777982     0.094649     0.854039    Uiso  ? Hf
   Hf2        1.0     0.444075     0.760742     0.355573    Uiso  ? Hf
   Mg1        1.0     0.777775     0.094442     0.350554    Uiso  ? Mg
   Mg2        1.0     0.221105     0.537772     0.099509    Uiso  ? Mg
   N1         1.0     0.223377     0.203553     0.364209    Uiso  ? N
   N2         1.0     0.115282     0.092016     0.111451    Uiso  ? N
   N3         1.0     0.897310     0.213976     0.870707    Uiso  ? N
   N4         1.0     0.778454     0.095121     0.602988    Uiso  ? N
   N5         1.0     0.539516     0.212976     0.356681    Uiso  ? N
   N6         1.0     0.443190     0.092368     0.110724    Uiso  ? N
   N7         1.0     0.221989     0.206423     0.861530    Uiso  ? N
   N8         1.0     0.109337     0.097165     0.614776    Uiso  ? N
   N9         1.0     0.897218     0.213884     0.354913    Uiso  ? N
   N10        1.0     0.777837     0.094504     0.107539    Uiso  ? N
   N11        1.0     0.540519     0.211393     0.866312    Uiso  ? N
   N12        1.0     0.443498     0.096047     0.614216    Uiso  ? N
   N13        1.0     0.222646     0.539313     0.366218    Uiso  ? N
   N14        1.0     0.103590     0.420256     0.113644    Uiso  ? N
   N15        1.0     0.889756     0.538656     0.861530    Uiso  ? N
   N16        1.0     0.780498     0.426004     0.614776    Uiso  ? N
   N17        1.0     0.563602     0.523201     0.369478    Uiso  ? N
   N18        1.0     0.457093     0.424049     0.108361    Uiso  ? N
   N19        1.0     0.220812     0.537478     0.849997    Uiso  ? N
   N20        1.0     0.109961     0.426628     0.610478    Uiso  ? N
   N21        1.0     0.886887     0.540044     0.364209    Uiso  ? N
   N22        1.0     0.775350     0.431949     0.111451    Uiso  ? N
   N23        1.0     0.557321     0.538378     0.855340    Uiso  ? N
   N24        1.0     0.445540     0.425705     0.616103    Uiso  ? N
   N25        1.0     0.206534     0.880269     0.369478    Uiso  ? N
   N26        1.0     0.107382     0.773760     0.108361    Uiso  ? N
   N27        1.0     0.894726     0.857186     0.866312    Uiso  ? N
   N28        1.0     0.779380     0.760165     0.614216    Uiso  ? N
   N29        1.0     0.563250     0.879917     0.366570    Uiso  ? N
   N30        1.0     0.444544     0.761211     0.101610    Uiso  ? N
   N31        1.0     0.221712     0.873988     0.855340    Uiso  ? N
   N32        1.0     0.109038     0.762207     0.616103    Uiso  ? N
   N33        1.0     0.896309     0.856183     0.356681    Uiso  ? N
   N34        1.0     0.775701     0.759857     0.110724    Uiso  ? N
   N35        1.0     0.556289     0.872955     0.856874    Uiso  ? N
   N36        1.0     0.444848     0.761515     0.613360    Uiso  ? N
