
#======================================================================
# CRYSTAL DATA
#----------------------------------------------------------------------
data_VESTA_phase_1

_chemical_name_common                  'Al   Hf   Mg   N                      '
_cell_length_a                         9.528045
_cell_length_b                         9.528045
_cell_length_c                         10.081357
_cell_angle_alpha                      90.019669
_cell_angle_beta                       90.019669
_cell_angle_gamma                      59.975834
_cell_volume                           792.412569
_space_group_name_H-M_alt              'P 1'
_space_group_IT_number                 1

loop_
_space_group_symop_operation_xyz
   'x, y, z'

loop_
   _atom_site_label
   _atom_site_occupancy
   _atom_site_fract_x
   _atom_site_fract_y
   _atom_site_fract_z
   _atom_site_adp_type
   _atom_site_U_iso_or_equiv
   _atom_site_type_symbol
   Al1        1.0     0.106784     0.100890     0.407889    Uiso  ? Al
   Al2        1.0     0.219906     0.207578     0.159022    Uiso  ? Al
   Al3        1.0     0.892010     0.208676     0.655979    Uiso  ? Al
   Al4        1.0     0.442455     0.100990     0.407650    Uiso  ? Al
   Al5        1.0     0.551825     0.208906     0.162709    Uiso  ? Al
   Al6        1.0     0.116589     0.096374     0.910561    Uiso  ? Al
   Al7        1.0     0.222026     0.205708     0.658027    Uiso  ? Al
   Al8        1.0     0.891196     0.207862     0.162358    Uiso  ? Al
   Al9        1.0     0.437307     0.096558     0.910140    Uiso  ? Al
   Al10       1.0     0.550017     0.207948     0.655849    Uiso  ? Al
   Al11       1.0     0.111958     0.428625     0.409279    Uiso  ? Al
   Al12       1.0     0.779707     0.433256     0.910561    Uiso  ? Al
   Al13       1.0     0.889042     0.538693     0.658027    Uiso  ? Al
   Al14       1.0     0.441765     0.423553     0.410076    Uiso  ? Al
   Al15       1.0     0.559973     0.530266     0.152969    Uiso  ? Al
   Al16       1.0     0.110309     0.426976     0.909325    Uiso  ? Al
   Al17       1.0     0.222021     0.538688     0.656697    Uiso  ? Al
   Al18       1.0     0.784224     0.423451     0.407889    Uiso  ? Al
   Al19       1.0     0.890911     0.536573     0.159022    Uiso  ? Al
   Al20       1.0     0.438970     0.431802     0.909940    Uiso  ? Al
   Al21       1.0     0.558007     0.535102     0.662954    Uiso  ? Al
   Al22       1.0     0.106886     0.758431     0.410076    Uiso  ? Al
   Al23       1.0     0.213599     0.876640     0.152969    Uiso  ? Al
   Al24       1.0     0.779891     0.753974     0.910140    Uiso  ? Al
   Al25       1.0     0.891282     0.866684     0.655849    Uiso  ? Al
   Al26       1.0     0.558836     0.875502     0.153339    Uiso  ? Al
   Al27       1.0     0.115135     0.755636     0.909940    Uiso  ? Al
   Al28       1.0     0.218435     0.874674     0.662954    Uiso  ? Al
   Al29       1.0     0.784324     0.759122     0.407650    Uiso  ? Al
   Al30       1.0     0.892239     0.868492     0.162709    Uiso  ? Al
   Al31       1.0     0.444286     0.760953     0.911720    Uiso  ? Al
   Al32       1.0     0.557375     0.874042     0.662779    Uiso  ? Al
   Hf1        1.0     0.777713     0.094379     0.897609    Uiso  ? Hf
   Hf2        1.0     0.444136     0.760803     0.400463    Uiso  ? Hf
   Mg1        1.0     0.777916     0.094583     0.410137    Uiso  ? Mg
   Mg2        1.0     0.221961     0.538628     0.158796    Uiso  ? Mg
   N1         1.0     0.222565     0.204860     0.350719    Uiso  ? N
   N2         1.0     0.111448     0.095740     0.098853    Uiso  ? N
   N3         1.0     0.899638     0.216305     0.847031    Uiso  ? N
   N4         1.0     0.778057     0.094724     0.627415    Uiso  ? N
   N5         1.0     0.541992     0.212434     0.349217    Uiso  ? N
   N6         1.0     0.443034     0.095720     0.098886    Uiso  ? N
   N7         1.0     0.222424     0.205413     0.847528    Uiso  ? N
   N8         1.0     0.112911     0.093334     0.599172    Uiso  ? N
   N9         1.0     0.895856     0.212522     0.348380    Uiso  ? N
   N10        1.0     0.777500     0.094166     0.107262    Uiso  ? N
   N11        1.0     0.534916     0.214358     0.845590    Uiso  ? N
   N12        1.0     0.443932     0.092715     0.599012    Uiso  ? N
   N13        1.0     0.222775     0.539442     0.364631    Uiso  ? N
   N14        1.0     0.103686     0.420353     0.095815    Uiso  ? N
   N15        1.0     0.888746     0.539090     0.847528    Uiso  ? N
   N16        1.0     0.776667     0.429577     0.599172    Uiso  ? N
   N17        1.0     0.564723     0.520773     0.345248    Uiso  ? N
   N18        1.0     0.458521     0.419393     0.093878    Uiso  ? N
   N19        1.0     0.221618     0.538285     0.848831    Uiso  ? N
   N20        1.0     0.110178     0.426844     0.601355    Uiso  ? N
   N21        1.0     0.888193     0.539232     0.350719    Uiso  ? N
   N22        1.0     0.779073     0.428114     0.098853    Uiso  ? N
   N23        1.0     0.556622     0.538920     0.852359    Uiso  ? N
   N24        1.0     0.445896     0.428738     0.601862    Uiso  ? N
   N25        1.0     0.204106     0.881389     0.345248    Uiso  ? N
   N26        1.0     0.102726     0.775187     0.093878    Uiso  ? N
   N27        1.0     0.897691     0.851583     0.845590    Uiso  ? N
   N28        1.0     0.776049     0.760598     0.599012    Uiso  ? N
   N29        1.0     0.564291     0.880958     0.344559    Uiso  ? N
   N30        1.0     0.444395     0.761062     0.107583    Uiso  ? N
   N31        1.0     0.222254     0.873288     0.852359    Uiso  ? N
   N32        1.0     0.112071     0.762563     0.601862    Uiso  ? N
   N33        1.0     0.895767     0.858658     0.349217    Uiso  ? N
   N34        1.0     0.779053     0.759701     0.098886    Uiso  ? N
   N35        1.0     0.555882     0.872549     0.853520    Uiso  ? N
   N36        1.0     0.444545     0.761211     0.608479    Uiso  ? N
