
#======================================================================
# CRYSTAL DATA
#----------------------------------------------------------------------
data_VESTA_phase_1

_chemical_name_common                  'Al   Hf   Mg   N                      '
_cell_length_a                         9.528053
_cell_length_b                         9.528053
_cell_length_c                         10.081329
_cell_angle_alpha                      90.019638
_cell_angle_beta                       90.019638
_cell_angle_gamma                      59.975849
_cell_volume                           792.411945
_space_group_name_H-M_alt              'P 1'
_space_group_IT_number                 1

loop_
_space_group_symop_operation_xyz
   'x, y, z'

loop_
   _atom_site_label
   _atom_site_occupancy
   _atom_site_fract_x
   _atom_site_fract_y
   _atom_site_fract_z
   _atom_site_adp_type
   _atom_site_U_iso_or_equiv
   _atom_site_type_symbol
   Al1        1.0     0.106781     0.100887     0.393913    Uiso  ? Al
   Al2        1.0     0.219903     0.207575     0.145044    Uiso  ? Al
   Al3        1.0     0.892007     0.208673     0.642004    Uiso  ? Al
   Al4        1.0     0.442452     0.100987     0.393674    Uiso  ? Al
   Al5        1.0     0.551822     0.208903     0.148736    Uiso  ? Al
   Al6        1.0     0.116586     0.096371     0.896585    Uiso  ? Al
   Al7        1.0     0.222023     0.205705     0.644049    Uiso  ? Al
   Al8        1.0     0.891193     0.207859     0.148384    Uiso  ? Al
   Al9        1.0     0.437304     0.096555     0.896164    Uiso  ? Al
   Al10       1.0     0.550014     0.207945     0.641875    Uiso  ? Al
   Al11       1.0     0.111955     0.428622     0.395301    Uiso  ? Al
   Al12       1.0     0.779705     0.433253     0.896585    Uiso  ? Al
   Al13       1.0     0.889038     0.538690     0.644049    Uiso  ? Al
   Al14       1.0     0.441762     0.423550     0.396102    Uiso  ? Al
   Al15       1.0     0.559970     0.530262     0.138996    Uiso  ? Al
   Al16       1.0     0.110306     0.426973     0.895346    Uiso  ? Al
   Al17       1.0     0.222018     0.538685     0.642721    Uiso  ? Al
   Al18       1.0     0.784221     0.423448     0.393913    Uiso  ? Al
   Al19       1.0     0.890908     0.536570     0.145044    Uiso  ? Al
   Al20       1.0     0.438967     0.431799     0.895964    Uiso  ? Al
   Al21       1.0     0.558004     0.535099     0.648981    Uiso  ? Al
   Al22       1.0     0.106884     0.758428     0.396102    Uiso  ? Al
   Al23       1.0     0.213596     0.876637     0.138996    Uiso  ? Al
   Al24       1.0     0.779888     0.753971     0.896164    Uiso  ? Al
   Al25       1.0     0.891278     0.866681     0.641875    Uiso  ? Al
   Al26       1.0     0.558833     0.875500     0.139366    Uiso  ? Al
   Al27       1.0     0.115132     0.755633     0.895964    Uiso  ? Al
   Al28       1.0     0.218433     0.874671     0.648981    Uiso  ? Al
   Al29       1.0     0.784321     0.759119     0.393674    Uiso  ? Al
   Al30       1.0     0.892237     0.868488     0.148736    Uiso  ? Al
   Al31       1.0     0.444283     0.760950     0.897749    Uiso  ? Al
   Al32       1.0     0.557372     0.874039     0.648806    Uiso  ? Al
   Hf1        1.0     0.777710     0.094376     0.883636    Uiso  ? Hf
   Hf2        1.0     0.444133     0.760800     0.386489    Uiso  ? Hf
   Mg1        1.0     0.777914     0.094580     0.396164    Uiso  ? Mg
   Mg2        1.0     0.221958     0.538625     0.144820    Uiso  ? Mg
   N1         1.0     0.222563     0.204857     0.336743    Uiso  ? N
   N2         1.0     0.111445     0.095737     0.084879    Uiso  ? N
   N3         1.0     0.899635     0.216302     0.833057    Uiso  ? N
   N4         1.0     0.778054     0.094721     0.613442    Uiso  ? N
   N5         1.0     0.541989     0.212431     0.335244    Uiso  ? N
   N6         1.0     0.443032     0.095717     0.084912    Uiso  ? N
   N7         1.0     0.222421     0.205409     0.833552    Uiso  ? N
   N8         1.0     0.112908     0.093330     0.585197    Uiso  ? N
   N9         1.0     0.895853     0.212519     0.334406    Uiso  ? N
   N10        1.0     0.777497     0.094163     0.093290    Uiso  ? N
   N11        1.0     0.534913     0.214354     0.831617    Uiso  ? N
   N12        1.0     0.443929     0.092712     0.585037    Uiso  ? N
   N13        1.0     0.222773     0.539439     0.350656    Uiso  ? N
   N14        1.0     0.103683     0.420350     0.081837    Uiso  ? N
   N15        1.0     0.888743     0.539087     0.833552    Uiso  ? N
   N16        1.0     0.776664     0.429574     0.585197    Uiso  ? N
   N17        1.0     0.564720     0.520770     0.331274    Uiso  ? N
   N18        1.0     0.458518     0.419389     0.079903    Uiso  ? N
   N19        1.0     0.221615     0.538282     0.834855    Uiso  ? N
   N20        1.0     0.110175     0.426841     0.587378    Uiso  ? N
   N21        1.0     0.888190     0.539229     0.336743    Uiso  ? N
   N22        1.0     0.779070     0.428111     0.084879    Uiso  ? N
   N23        1.0     0.556619     0.538918     0.838387    Uiso  ? N
   N24        1.0     0.445894     0.428735     0.587889    Uiso  ? N
   N25        1.0     0.204103     0.881386     0.331274    Uiso  ? N
   N26        1.0     0.102723     0.775185     0.079903    Uiso  ? N
   N27        1.0     0.897688     0.851580     0.831617    Uiso  ? N
   N28        1.0     0.776045     0.760596     0.585037    Uiso  ? N
   N29        1.0     0.564288     0.880955     0.330586    Uiso  ? N
   N30        1.0     0.444392     0.761059     0.093611    Uiso  ? N
   N31        1.0     0.222252     0.873285     0.838387    Uiso  ? N
   N32        1.0     0.112068     0.762560     0.587889    Uiso  ? N
   N33        1.0     0.895764     0.858656     0.335244    Uiso  ? N
   N34        1.0     0.779050     0.759698     0.084912    Uiso  ? N
   N35        1.0     0.555879     0.872545     0.839547    Uiso  ? N
   N36        1.0     0.444542     0.761208     0.594506    Uiso  ? N
