
#======================================================================
# CRYSTAL DATA
#----------------------------------------------------------------------
data_VESTA_phase_1

_chemical_name_common                  'Al   Hf   Mg   N                      '
_cell_length_a                         9.698553
_cell_length_b                         9.698552
_cell_length_c                         9.605423
_cell_angle_alpha                      90.011078
_cell_angle_beta                       90.011078
_cell_angle_gamma                      59.975163
_cell_volume                           782.261970
_space_group_name_H-M_alt              'P 1'
_space_group_IT_number                 1

loop_
_space_group_symop_operation_xyz
   'x, y, z'

loop_
   _atom_site_label
   _atom_site_occupancy
   _atom_site_fract_x
   _atom_site_fract_y
   _atom_site_fract_z
   _atom_site_adp_type
   _atom_site_U_iso_or_equiv
   _atom_site_type_symbol
   Al1        1.0     0.108899     0.099418     0.380908    Uiso  ? Al
   Al2        1.0     0.220188     0.206597     0.130869    Uiso  ? Al
   Al3        1.0     0.892063     0.208729     0.621871    Uiso  ? Al
   Al4        1.0     0.441960     0.098850     0.380456    Uiso  ? Al
   Al5        1.0     0.551893     0.208224     0.137331    Uiso  ? Al
   Al6        1.0     0.115194     0.097709     0.879601    Uiso  ? Al
   Al7        1.0     0.221674     0.206468     0.628796    Uiso  ? Al
   Al8        1.0     0.891544     0.208211     0.135773    Uiso  ? Al
   Al9        1.0     0.437319     0.098337     0.879473    Uiso  ? Al
   Al10       1.0     0.549926     0.208178     0.620045    Uiso  ? Al
   Al11       1.0     0.111861     0.428528     0.377426    Uiso  ? Al
   Al12       1.0     0.781042     0.431860     0.879601    Uiso  ? Al
   Al13       1.0     0.889801     0.538340     0.628796    Uiso  ? Al
   Al14       1.0     0.440908     0.425958     0.381107    Uiso  ? Al
   Al15       1.0     0.562539     0.526356     0.122014    Uiso  ? Al
   Al16       1.0     0.110324     0.426991     0.882469    Uiso  ? Al
   Al17       1.0     0.221812     0.538479     0.625411    Uiso  ? Al
   Al18       1.0     0.782752     0.425566     0.380908    Uiso  ? Al
   Al19       1.0     0.889930     0.536855     0.130869    Uiso  ? Al
   Al20       1.0     0.439281     0.429963     0.879690    Uiso  ? Al
   Al21       1.0     0.556592     0.537551     0.634141    Uiso  ? Al
   Al22       1.0     0.109291     0.757574     0.381107    Uiso  ? Al
   Al23       1.0     0.209689     0.879206     0.122014    Uiso  ? Al
   Al24       1.0     0.781670     0.753986     0.879473    Uiso  ? Al
   Al25       1.0     0.891511     0.866593     0.620045    Uiso  ? Al
   Al26       1.0     0.560680     0.877347     0.120963    Uiso  ? Al
   Al27       1.0     0.113297     0.755948     0.879690    Uiso  ? Al
   Al28       1.0     0.220884     0.873259     0.634141    Uiso  ? Al
   Al29       1.0     0.782183     0.758627     0.380456    Uiso  ? Al
   Al30       1.0     0.891558     0.868560     0.137331    Uiso  ? Al
   Al31       1.0     0.444183     0.760849     0.885774    Uiso  ? Al
   Al32       1.0     0.556081     0.872747     0.634901    Uiso  ? Al
   Hf1        1.0     0.777497     0.094164     0.862786    Uiso  ? Hf
   Hf2        1.0     0.444321     0.760987     0.359693    Uiso  ? Hf
   Mg1        1.0     0.778270     0.094936     0.375776    Uiso  ? Mg
   Mg2        1.0     0.222153     0.538820     0.126235    Uiso  ? Mg
   N1         1.0     0.223278     0.203534     0.329957    Uiso  ? N
   N2         1.0     0.110289     0.097089     0.076652    Uiso  ? N
   N3         1.0     0.899125     0.215792     0.823172    Uiso  ? N
   N4         1.0     0.778249     0.094916     0.602650    Uiso  ? N
   N5         1.0     0.540662     0.212599     0.333790    Uiso  ? N
   N6         1.0     0.442750     0.097307     0.076991    Uiso  ? N
   N7         1.0     0.221863     0.206668     0.826394    Uiso  ? N
   N8         1.0     0.114424     0.092224     0.579443    Uiso  ? N
   N9         1.0     0.896906     0.213573     0.331615    Uiso  ? N
   N10        1.0     0.777442     0.094109     0.087323    Uiso  ? N
   N11        1.0     0.535658     0.214004     0.820578    Uiso  ? N
   N12        1.0     0.443496     0.091077     0.579058    Uiso  ? N
   N13        1.0     0.222847     0.539513     0.342398    Uiso  ? N
   N14        1.0     0.103432     0.420099     0.078104    Uiso  ? N
   N15        1.0     0.890002     0.538530     0.826394    Uiso  ? N
   N16        1.0     0.775557     0.431090     0.579443    Uiso  ? N
   N17        1.0     0.565985     0.518951     0.323312    Uiso  ? N
   N18        1.0     0.459004     0.417583     0.073176    Uiso  ? N
   N19        1.0     0.221137     0.537804     0.827803    Uiso  ? N
   N20        1.0     0.110018     0.426684     0.577843    Uiso  ? N
   N21        1.0     0.886867     0.539944     0.329957    Uiso  ? N
   N22        1.0     0.780422     0.426956     0.076652    Uiso  ? N
   N23        1.0     0.555941     0.540311     0.832820    Uiso  ? N
   N24        1.0     0.445608     0.430534     0.580817    Uiso  ? N
   N25        1.0     0.202284     0.882652     0.323312    Uiso  ? N
   N26        1.0     0.100916     0.775670     0.073176    Uiso  ? N
   N27        1.0     0.897337     0.852325     0.820578    Uiso  ? N
   N28        1.0     0.774410     0.760162     0.579058    Uiso  ? N
   N29        1.0     0.565370     0.882037     0.321578    Uiso  ? N
   N30        1.0     0.444326     0.760992     0.091485    Uiso  ? N
   N31        1.0     0.223644     0.872607     0.832820    Uiso  ? N
   N32        1.0     0.113867     0.762274     0.580817    Uiso  ? N
   N33        1.0     0.895932     0.857328     0.333790    Uiso  ? N
   N34        1.0     0.780640     0.759417     0.076991    Uiso  ? N
   N35        1.0     0.555295     0.871962     0.834907    Uiso  ? N
   N36        1.0     0.444679     0.761345     0.581145    Uiso  ? N
