
#======================================================================
# CRYSTAL DATA
#----------------------------------------------------------------------
data_VESTA_phase_1

_chemical_name_common                  'Al   Hf   Mg   N                      '
_cell_length_a                         9.699962
_cell_length_b                         9.699962
_cell_length_c                         9.605993
_cell_angle_alpha                      89.995453
_cell_angle_beta                       89.995453
_cell_angle_gamma                      59.944363
_cell_volume                           782.292539
_space_group_name_H-M_alt              'P 1'
_space_group_IT_number                 1

loop_
_space_group_symop_operation_xyz
   'x, y, z'

loop_
   _atom_site_label
   _atom_site_occupancy
   _atom_site_fract_x
   _atom_site_fract_y
   _atom_site_fract_z
   _atom_site_adp_type
   _atom_site_U_iso_or_equiv
   _atom_site_type_symbol
   Al1        1.0     0.109874     0.098795     0.326514    Uiso  ? Al
   Al2        1.0     0.220130     0.206665     0.078421    Uiso  ? Al
   Al3        1.0     0.891362     0.208028     0.570297    Uiso  ? Al
   Al4        1.0     0.441672     0.099422     0.326948    Uiso  ? Al
   Al5        1.0     0.550571     0.208972     0.086619    Uiso  ? Al
   Al6        1.0     0.114444     0.098267     0.828671    Uiso  ? Al
   Al7        1.0     0.221814     0.206107     0.577725    Uiso  ? Al
   Al8        1.0     0.892379     0.209046     0.088137    Uiso  ? Al
   Al9        1.0     0.437782     0.097706     0.828893    Uiso  ? Al
   Al10       1.0     0.550825     0.208062     0.571478    Uiso  ? Al
   Al11       1.0     0.110050     0.426716     0.328703    Uiso  ? Al
   Al12       1.0     0.781600     0.431111     0.828671    Uiso  ? Al
   Al13       1.0     0.889440     0.538481     0.577725    Uiso  ? Al
   Al14       1.0     0.443602     0.424593     0.325422    Uiso  ? Al
   Al15       1.0     0.557729     0.535902     0.072990    Uiso  ? Al
   Al16       1.0     0.111697     0.428364     0.827424    Uiso  ? Al
   Al17       1.0     0.221907     0.538574     0.580771    Uiso  ? Al
   Al18       1.0     0.782128     0.426541     0.326514    Uiso  ? Al
   Al19       1.0     0.889999     0.536797     0.078421    Uiso  ? Al
   Al20       1.0     0.436600     0.431417     0.829502    Uiso  ? Al
   Al21       1.0     0.560945     0.528397     0.586965    Uiso  ? Al
   Al22       1.0     0.107926     0.760269     0.325422    Uiso  ? Al
   Al23       1.0     0.219236     0.874396     0.072990    Uiso  ? Al
   Al24       1.0     0.781039     0.754448     0.828894    Uiso  ? Al
   Al25       1.0     0.891396     0.867492     0.571478    Uiso  ? Al
   Al26       1.0     0.556346     0.873013     0.073737    Uiso  ? Al
   Al27       1.0     0.114751     0.753267     0.829502    Uiso  ? Al
   Al28       1.0     0.211730     0.877612     0.586965    Uiso  ? Al
   Al29       1.0     0.782755     0.758339     0.326948    Uiso  ? Al
   Al30       1.0     0.892305     0.867237     0.086619    Uiso  ? Al
   Al31       1.0     0.444525     0.761192     0.822778    Uiso  ? Al
   Al32       1.0     0.560596     0.877262     0.585746    Uiso  ? Al
   Hf1        1.0     0.778164     0.094830     0.847421    Uiso  ? Hf
   Hf2        1.0     0.444102     0.760768     0.346238    Uiso  ? Hf
   Mg1        1.0     0.777618     0.094284     0.331001    Uiso  ? Mg
   Mg2        1.0     0.221134     0.537801     0.083488    Uiso  ? Mg
   N1         1.0     0.223801     0.202761     0.380374    Uiso  ? N
   N2         1.0     0.115714     0.091483     0.128206    Uiso  ? N
   N3         1.0     0.899598     0.216264     0.886065    Uiso  ? N
   N4         1.0     0.778160     0.094827     0.621703    Uiso  ? N
   N5         1.0     0.540393     0.212194     0.376827    Uiso  ? N
   N6         1.0     0.443355     0.091998     0.128062    Uiso  ? N
   N7         1.0     0.221614     0.206988     0.879249    Uiso  ? N
   N8         1.0     0.109281     0.097722     0.631415    Uiso  ? N
   N9         1.0     0.896740     0.213407     0.374516    Uiso  ? N
   N10        1.0     0.777906     0.094573     0.103638    Uiso  ? N
   N11        1.0     0.535678     0.214625     0.884394    Uiso  ? N
   N12        1.0     0.443195     0.096759     0.631616    Uiso  ? N
   N13        1.0     0.222790     0.539456     0.378507    Uiso  ? N
   N14        1.0     0.102678     0.419344     0.133496    Uiso  ? N
   N15        1.0     0.890321     0.538280     0.879249    Uiso  ? N
   N16        1.0     0.781055     0.425948     0.631415    Uiso  ? N
   N17        1.0     0.565881     0.519570     0.387345    Uiso  ? N
   N18        1.0     0.458676     0.424082     0.130293    Uiso  ? N
   N19        1.0     0.220862     0.537529     0.867903    Uiso  ? N
   N20        1.0     0.110097     0.426763     0.626852    Uiso  ? N
   N21        1.0     0.886095     0.540468     0.380374    Uiso  ? N
   N22        1.0     0.774817     0.432381     0.128206    Uiso  ? N
   N23        1.0     0.556029     0.539437     0.872333    Uiso  ? N
   N24        1.0     0.445042     0.425371     0.631026    Uiso  ? N
   N25        1.0     0.202903     0.882548     0.387345    Uiso  ? N
   N26        1.0     0.107416     0.775343     0.130293    Uiso  ? N
   N27        1.0     0.897958     0.852344     0.884394    Uiso  ? N
   N28        1.0     0.780092     0.759861     0.631616    Uiso  ? N
   N29        1.0     0.565122     0.881789     0.385443    Uiso  ? N
   N30        1.0     0.444615     0.761281     0.125157    Uiso  ? N
   N31        1.0     0.222771     0.872696     0.872333    Uiso  ? N
   N32        1.0     0.108704     0.761708     0.631026    Uiso  ? N
   N33        1.0     0.895527     0.857060     0.376827    Uiso  ? N
   N34        1.0     0.775331     0.760022     0.128062    Uiso  ? N
   N35        1.0     0.555353     0.872020     0.873739    Uiso  ? N
   N36        1.0     0.444692     0.761358     0.617506    Uiso  ? N
