
#======================================================================
# CRYSTAL DATA
#----------------------------------------------------------------------
data_VESTA_phase_1

_chemical_name_common                  'Al   Hf   Mg   N                      '
_cell_length_a                         9.528045
_cell_length_b                         9.528045
_cell_length_c                         10.081355
_cell_angle_alpha                      90.019684
_cell_angle_beta                       90.019684
_cell_angle_gamma                      59.975830
_cell_volume                           792.412389
_space_group_name_H-M_alt              'P 1'
_space_group_IT_number                 1

loop_
_space_group_symop_operation_xyz
   'x, y, z'

loop_
   _atom_site_label
   _atom_site_occupancy
   _atom_site_fract_x
   _atom_site_fract_y
   _atom_site_fract_z
   _atom_site_adp_type
   _atom_site_U_iso_or_equiv
   _atom_site_type_symbol
   Al1        1.0     0.106782     0.100888     0.397559    Uiso  ? Al
   Al2        1.0     0.219903     0.207576     0.148694    Uiso  ? Al
   Al3        1.0     0.892007     0.208674     0.645648    Uiso  ? Al
   Al4        1.0     0.442453     0.100988     0.397319    Uiso  ? Al
   Al5        1.0     0.551823     0.208904     0.152382    Uiso  ? Al
   Al6        1.0     0.116587     0.096372     0.900235    Uiso  ? Al
   Al7        1.0     0.222024     0.205705     0.647697    Uiso  ? Al
   Al8        1.0     0.891193     0.207860     0.152032    Uiso  ? Al
   Al9        1.0     0.437305     0.096556     0.899813    Uiso  ? Al
   Al10       1.0     0.550015     0.207945     0.645518    Uiso  ? Al
   Al11       1.0     0.111956     0.428623     0.398952    Uiso  ? Al
   Al12       1.0     0.779706     0.433253     0.900235    Uiso  ? Al
   Al13       1.0     0.889038     0.538691     0.647697    Uiso  ? Al
   Al14       1.0     0.441762     0.423551     0.399750    Uiso  ? Al
   Al15       1.0     0.559970     0.530264     0.142643    Uiso  ? Al
   Al16       1.0     0.110307     0.426974     0.898994    Uiso  ? Al
   Al17       1.0     0.222019     0.538685     0.646367    Uiso  ? Al
   Al18       1.0     0.784221     0.423449     0.397559    Uiso  ? Al
   Al19       1.0     0.890910     0.536570     0.148694    Uiso  ? Al
   Al20       1.0     0.438968     0.431799     0.899611    Uiso  ? Al
   Al21       1.0     0.558006     0.535100     0.652626    Uiso  ? Al
   Al22       1.0     0.106885     0.758429     0.399750    Uiso  ? Al
   Al23       1.0     0.213597     0.876637     0.142643    Uiso  ? Al
   Al24       1.0     0.779889     0.753972     0.899813    Uiso  ? Al
   Al25       1.0     0.891279     0.866682     0.645518    Uiso  ? Al
   Al26       1.0     0.558833     0.875500     0.143013    Uiso  ? Al
   Al27       1.0     0.115133     0.755634     0.899611    Uiso  ? Al
   Al28       1.0     0.218433     0.874672     0.652626    Uiso  ? Al
   Al29       1.0     0.784322     0.759120     0.397319    Uiso  ? Al
   Al30       1.0     0.892238     0.868489     0.152382    Uiso  ? Al
   Al31       1.0     0.444284     0.760951     0.901392    Uiso  ? Al
   Al32       1.0     0.557373     0.874040     0.652451    Uiso  ? Al
   Hf1        1.0     0.777710     0.094377     0.887281    Uiso  ? Hf
   Hf2        1.0     0.444134     0.760801     0.390136    Uiso  ? Hf
   Mg1        1.0     0.777914     0.094581     0.399808    Uiso  ? Mg
   Mg2        1.0     0.221959     0.538626     0.148468    Uiso  ? Mg
   N1         1.0     0.222563     0.204858     0.340391    Uiso  ? N
   N2         1.0     0.111445     0.095738     0.088527    Uiso  ? N
   N3         1.0     0.899636     0.216303     0.836701    Uiso  ? N
   N4         1.0     0.778055     0.094722     0.617085    Uiso  ? N
   N5         1.0     0.541989     0.212432     0.338889    Uiso  ? N
   N6         1.0     0.443032     0.095718     0.088560    Uiso  ? N
   N7         1.0     0.222422     0.205410     0.837199    Uiso  ? N
   N8         1.0     0.112909     0.093331     0.588842    Uiso  ? N
   N9         1.0     0.895853     0.212520     0.338053    Uiso  ? N
   N10        1.0     0.777497     0.094164     0.096935    Uiso  ? N
   N11        1.0     0.534914     0.214355     0.835260    Uiso  ? N
   N12        1.0     0.443929     0.092713     0.588682    Uiso  ? N
   N13        1.0     0.222773     0.539440     0.354304    Uiso  ? N
   N14        1.0     0.103684     0.420351     0.085485    Uiso  ? N
   N15        1.0     0.888743     0.539088     0.837199    Uiso  ? N
   N16        1.0     0.776665     0.429575     0.588842    Uiso  ? N
   N17        1.0     0.564720     0.520770     0.334920    Uiso  ? N
   N18        1.0     0.458519     0.419390     0.083549    Uiso  ? N
   N19        1.0     0.221616     0.538283     0.838501    Uiso  ? N
   N20        1.0     0.110175     0.426842     0.591027    Uiso  ? N
   N21        1.0     0.888192     0.539229     0.340391    Uiso  ? N
   N22        1.0     0.779071     0.428112     0.088527    Uiso  ? N
   N23        1.0     0.556620     0.538918     0.842031    Uiso  ? N
   N24        1.0     0.445894     0.428736     0.591535    Uiso  ? N
   N25        1.0     0.204104     0.881387     0.334920    Uiso  ? N
   N26        1.0     0.102724     0.775185     0.083549    Uiso  ? N
   N27        1.0     0.897688     0.851581     0.835260    Uiso  ? N
   N28        1.0     0.776046     0.760596     0.588682    Uiso  ? N
   N29        1.0     0.564289     0.880956     0.334231    Uiso  ? N
   N30        1.0     0.444393     0.761060     0.097256    Uiso  ? N
   N31        1.0     0.222252     0.873287     0.842031    Uiso  ? N
   N32        1.0     0.112069     0.762561     0.591535    Uiso  ? N
   N33        1.0     0.895766     0.858656     0.338889    Uiso  ? N
   N34        1.0     0.779051     0.759699     0.088560    Uiso  ? N
   N35        1.0     0.555880     0.872547     0.843192    Uiso  ? N
   N36        1.0     0.444542     0.761209     0.598151    Uiso  ? N
