# generated using pymatgen
data_Al11BN12
_symmetry_space_group_name_H-M   'P 1'
_cell_length_a   9.30434013
_cell_length_b   9.29789122
_cell_length_c   9.88987010
_cell_angle_alpha   90.21365207
_cell_angle_beta   90.23660919
_cell_angle_gamma   59.87388148
_symmetry_Int_Tables_number   1
_chemical_formula_structural   Al11BN12
_chemical_formula_sum   'Al33 B3 N36'
_cell_volume   740.00291365
_cell_formula_units_Z   3
loop_
 _symmetry_equiv_pos_site_id
 _symmetry_equiv_pos_as_xyz
  1  'x, y, z'
loop_
 _atom_site_type_symbol
 _atom_site_label
 _atom_site_symmetry_multiplicity
 _atom_site_fract_x
 _atom_site_fract_y
 _atom_site_fract_z
 _atom_site_occupancy
  Al  Al0  1  0.11185384  0.09220040  0.31728196  1
  Al  Al1  1  0.21956522  0.20596714  0.06312150  1
  Al  Al2  1  0.78256779  0.09213639  0.80356075  1
  Al  Al3  1  0.44798283  0.09021850  0.31071649  1
  Al  Al4  1  0.55906722  0.20320397  0.06290661  1
  Al  Al5  1  0.10872474  0.09505355  0.80856103  1
  Al  Al6  1  0.21819000  0.20542919  0.56029020  1
  Al  Al7  1  0.78109093  0.09334493  0.32320907  1
  Al  Al8  1  0.88786187  0.20485723  0.06497609  1
  Al  Al9  1  0.44051138  0.09293458  0.81362740  1
  Al  Al10  1  0.56095064  0.20195084  0.56283502  1
  Al  Al11  1  0.12030414  0.42309139  0.31805080  1
  Al  Al12  1  0.22004634  0.54112759  0.06239562  1
  Al  Al13  1  0.77292789  0.42410891  0.80807124  1
  Al  Al14  1  0.89029855  0.53453794  0.60511897  1
  Al  Al15  1  0.44652000  0.42768397  0.31112668  1
  Al  Al16  1  0.55448784  0.54341857  0.05885820  1
  Al  Al17  1  0.11318026  0.42692002  0.81044536  1
  Al  Al18  1  0.21792565  0.54392622  0.56063259  1
  Al  Al19  1  0.77631223  0.42183143  0.32745775  1
  Al  Al20  1  0.88322389  0.54539592  0.12940673  1
  Al  Al21  1  0.44171189  0.43308043  0.81300330  1
  Al  Al22  1  0.55625773  0.53411154  0.56806630  1
  Al  Al23  1  0.11292452  0.76304004  0.31565405  1
  Al  Al24  1  0.22558946  0.87070493  0.05807284  1
  Al  Al25  1  0.77283151  0.76694555  0.80975078  1
  Al  Al26  1  0.44627021  0.76053852  0.31404303  1
  Al  Al27  1  0.55420632  0.86847889  0.05714453  1
  Al  Al28  1  0.10929757  0.76354175  0.80844397  1
  Al  Al29  1  0.21404286  0.87683470  0.56757595  1
  Al  Al30  1  0.78005775  0.76481217  0.36199614  1
  Al  Al31  1  0.88684077  0.87361691  0.06313027  1
  Al  Al32  1  0.55090099  0.87575924  0.57286889  1
  B  B33  1  0.89405494  0.19853299  0.55608424  1
  B  B34  1  0.89881276  0.88185904  0.55674066  1
  B  B35  1  0.44342175  0.76114169  0.80719610  1
  N  N36  1  0.22624530  0.20124057  0.37016443  1
  N  N37  1  0.11033474  0.09304061  0.12365224  1
  N  N38  1  0.88732305  0.20428304  0.87454335  1
  N  N39  1  0.80166430  0.08184936  0.60812348  1
  N  N40  1  0.55556197  0.20496018  0.37141623  1
  N  N41  1  0.44478083  0.09280740  0.11756848  1
  N  N42  1  0.21847434  0.20639133  0.87128400  1
  N  N43  1  0.08619378  0.10774913  0.61478825  1
  N  N44  1  0.89323131  0.20135899  0.39298309  1
  N  N45  1  0.77993533  0.09371639  0.13014966  1
  N  N46  1  0.55873935  0.20381345  0.86827210  1
  N  N47  1  0.44069504  0.09808084  0.62350953  1
  N  N48  1  0.22514971  0.54009939  0.37037776  1
  N  N49  1  0.11373756  0.42712927  0.12333774  1
  N  N50  1  0.88407066  0.53991699  0.82042691  1
  N  N51  1  0.78737988  0.39397355  0.61186711  1
  N  N52  1  0.55308924  0.54070508  0.37720223  1
  N  N53  1  0.44536571  0.42869014  0.11788219  1
  N  N54  1  0.21921762  0.54191535  0.87040495  1
  N  N55  1  0.11928390  0.42421010  0.61641527  1
  N  N56  1  0.89189142  0.53618589  0.35270581  1
  N  N57  1  0.77360614  0.42461882  0.12886971  1
  N  N58  1  0.54352090  0.56286086  0.86332590  1
  N  N59  1  0.44172525  0.42759106  0.62234847  1
  N  N60  1  0.22653903  0.87039771  0.37660907  1
  N  N61  1  0.11016081  0.76422173  0.12252239  1
  N  N62  1  0.88756764  0.87484798  0.87133781  1
  N  N63  1  0.78593281  0.77878221  0.60475747  1
  N  N64  1  0.55123334  0.87304137  0.38082044  1
  N  N65  1  0.44386564  0.76166497  0.12403360  1
  N  N66  1  0.24385656  0.86160003  0.86058118  1
  N  N67  1  0.08652681  0.77506916  0.61526560  1
  N  N68  1  0.89731270  0.87542784  0.39508192  1
  N  N69  1  0.77232015  0.76961603  0.11754534  1
  N  N70  1  0.54129924  0.86050215  0.86045536  1
  N  N71  1  0.44311671  0.75942132  0.64223315  1
