# generated using pymatgen
data_Al11BN12
_symmetry_space_group_name_H-M   'P 1'
_cell_length_a   9.32235615
_cell_length_b   9.36123094
_cell_length_c   9.94118326
_cell_angle_alpha   90.09569889
_cell_angle_beta   90.09892507
_cell_angle_gamma   60.03978384
_symmetry_Int_Tables_number   1
_chemical_formula_structural   Al11BN12
_chemical_formula_sum   'Al33 B3 N36'
_cell_volume   751.62374086
_cell_formula_units_Z   3
loop_
 _symmetry_equiv_pos_site_id
 _symmetry_equiv_pos_as_xyz
  1  'x, y, z'
loop_
 _atom_site_type_symbol
 _atom_site_label
 _atom_site_symmetry_multiplicity
 _atom_site_fract_x
 _atom_site_fract_y
 _atom_site_fract_z
 _atom_site_occupancy
  Al  Al0  1  0.10372281  0.09891090  0.39783034  1
  Al  Al1  1  0.21847517  0.20449771  0.13757516  1
  Al  Al2  1  0.78206937  0.09101768  0.87325501  1
  Al  Al3  1  0.44909699  0.08945107  0.34380359  1
  Al  Al4  1  0.56126692  0.20583707  0.13500472  1
  Al  Al5  1  0.10963918  0.09736017  0.87371159  1
  Al  Al6  1  0.21120620  0.21121158  0.63665221  1
  Al  Al7  1  0.78271260  0.09931108  0.39828613  1
  Al  Al8  1  0.88932015  0.20469833  0.13351876  1
  Al  Al9  1  0.44539804  0.08740873  0.82687296  1
  Al  Al10  1  0.56581180  0.21031066  0.63716030  1
  Al  Al11  1  0.11146794  0.42720178  0.38590275  1
  Al  Al12  1  0.22199727  0.54121456  0.13832184  1
  Al  Al13  1  0.77730396  0.42818286  0.87477757  1
  Al  Al14  1  0.89425753  0.53268792  0.63982931  1
  Al  Al15  1  0.44200962  0.42792645  0.39084624  1
  Al  Al16  1  0.55152247  0.54980999  0.06929749  1
  Al  Al17  1  0.11087825  0.42582871  0.89383398  1
  Al  Al18  1  0.21739142  0.53582703  0.64121947  1
  Al  Al19  1  0.78578062  0.42110792  0.39327699  1
  Al  Al20  1  0.88518123  0.54094902  0.13749464  1
  Al  Al21  1  0.44064114  0.42938393  0.88388846  1
  Al  Al22  1  0.55611588  0.54124852  0.58602753  1
  Al  Al23  1  0.10342187  0.76180169  0.39655084  1
  Al  Al24  1  0.23015537  0.86900320  0.06386646  1
  Al  Al25  1  0.77771698  0.75511955  0.88034073  1
  Al  Al26  1  0.44281649  0.76130542  0.32795440  1
  Al  Al27  1  0.54719830  0.87442638  0.06641188  1
  Al  Al28  1  0.11391858  0.75481773  0.87783622  1
  Al  Al29  1  0.21217290  0.87671194  0.60003015  1
  Al  Al30  1  0.78732754  0.76092514  0.39322207  1
  Al  Al31  1  0.88801371  0.87466863  0.13667252  1
  Al  Al32  1  0.55561680  0.87327566  0.58511690  1
  B  B33  1  0.88501438  0.20705377  0.64293849  1
  B  B34  1  0.91016492  0.82684203  0.65615666  1
  B  B35  1  0.44430507  0.75908239  0.81309714  1
  N  N36  1  0.21750112  0.20404985  0.33339453  1
  N  N37  1  0.10811318  0.09792335  0.06939092  1
  N  N38  1  0.88688447  0.20619502  0.80801105  1
  N  N39  1  0.78634030  0.12483149  0.58501451  1
  N  N40  1  0.56113844  0.20794103  0.33207576  1
  N  N41  1  0.44676044  0.09151981  0.11623912  1
  N  N42  1  0.21649886  0.21127740  0.82847494  1
  N  N43  1  0.08073879  0.11306903  0.59324459  1
  N  N44  1  0.89097999  0.20595198  0.32309426  1
  N  N45  1  0.78201670  0.09167680  0.06785701  1
  N  N46  1  0.55812859  0.20720298  0.83009686  1
  N  N47  1  0.44476664  0.09644975  0.61761867  1
  N  N48  1  0.22006364  0.54286881  0.33016922  1
  N  N49  1  0.11053184  0.42795178  0.08382857  1
  N  N50  1  0.89240776  0.53606715  0.82783842  1
  N  N51  1  0.79274020  0.40871946  0.59081258  1
  N  N52  1  0.55614720  0.54438458  0.38505038  1
  N  N53  1  0.44322112  0.42736163  0.07864340  1
  N  N54  1  0.22017275  0.53429320  0.82948411  1
  N  N55  1  0.11059586  0.42737874  0.57525719  1
  N  N56  1  0.88683329  0.54157646  0.33056333  1
  N  N57  1  0.78217591  0.42468960  0.07183596  1
  N  N58  1  0.53882907  0.56882080  0.86756130  1
  N  N59  1  0.43468492  0.43176722  0.58462700  1
  N  N60  1  0.22700597  0.86791810  0.39779277  1
  N  N61  1  0.10809387  0.76018989  0.07234228  1
  N  N62  1  0.89013397  0.86456789  0.80770566  1
  N  N63  1  0.79897229  0.76612954  0.59229258  1
  N  N64  1  0.55616564  0.86793471  0.39084214  1
  N  N65  1  0.44198669  0.76410122  0.13710855  1
  N  N66  1  0.24688817  0.85860149  0.86013325  1
  N  N67  1  0.08165880  0.76543908  0.59549888  1
  N  N68  1  0.88700522  0.87809025  0.32840058  1
  N  N69  1  0.78099415  0.76075825  0.07399953  1
  N  N70  1  0.53951996  0.85918647  0.86883171  1
  N  N71  1  0.44464448  0.76188448  0.65249660  1
