# generated using pymatgen
data_Al11BN12
_symmetry_space_group_name_H-M   'P 1'
_cell_length_a   9.28264782
_cell_length_b   9.26946442
_cell_length_c   10.03506077
_cell_angle_alpha   89.99996665
_cell_angle_beta   90.41167997
_cell_angle_gamma   60.04701380
_symmetry_Int_Tables_number   1
_chemical_formula_structural   Al11BN12
_chemical_formula_sum   'Al33 B3 N36'
_cell_volume   748.11397625
_cell_formula_units_Z   3
loop_
 _symmetry_equiv_pos_site_id
 _symmetry_equiv_pos_as_xyz
  1  'x, y, z'
loop_
 _atom_site_type_symbol
 _atom_site_label
 _atom_site_symmetry_multiplicity
 _atom_site_fract_x
 _atom_site_fract_y
 _atom_site_fract_z
 _atom_site_occupancy
  Al  Al0  1  0.11440739  0.09032243  0.32409717  1
  Al  Al1  1  0.21834912  0.20727276  0.07028366  1
  Al  Al2  1  0.78303167  0.09181743  0.80874767  1
  Al  Al3  1  0.44753478  0.09129643  0.32094519  1
  Al  Al4  1  0.55778274  0.20444235  0.07115987  1
  Al  Al5  1  0.10855587  0.09458853  0.81444954  1
  Al  Al6  1  0.21667714  0.20765494  0.56849016  1
  Al  Al7  1  0.78136629  0.09264986  0.33068617  1
  Al  Al8  1  0.88999262  0.19966238  0.07060812  1
  Al  Al9  1  0.44200352  0.09158004  0.82061065  1
  Al  Al10  1  0.56232547  0.20217057  0.57006872  1
  Al  Al11  1  0.11899943  0.42383376  0.32028402  1
  Al  Al12  1  0.21834948  0.54104512  0.07028357  1
  Al  Al13  1  0.77426248  0.43385236  0.88203041  1
  Al  Al14  1  0.88492934  0.54086789  0.64106038  1
  Al  Al15  1  0.44753496  0.42783549  0.32094520  1
  Al  Al16  1  0.54324383  0.54893398  0.06744379  1
  Al  Al17  1  0.11801652  0.42432501  0.82067445  1
  Al  Al18  1  0.21667717  0.54233469  0.56849004  1
  Al  Al19  1  0.78489783  0.42382686  0.39930570  1
  Al  Al20  1  0.87632640  0.54517065  0.14205507  1
  Al  Al21  1  0.44200361  0.43308376  0.82061046  1
  Al  Al22  1  0.55294381  0.53809883  0.58304500  1
  Al  Al23  1  0.11440694  0.76193750  0.32409724  1
  Al  Al24  1  0.22302208  0.87182236  0.06546837  1
  Al  Al25  1  0.77426170  0.75855111  0.88203033  1
  Al  Al26  1  0.44808274  0.75929190  0.32400658  1
  Al  Al27  1  0.54324332  0.87448960  0.06744371  1
  Al  Al28  1  0.10855539  0.76352217  0.81444929  1
  Al  Al29  1  0.21489155  0.87588778  0.57425986  1
  Al  Al30  1  0.78489716  0.75794034  0.39930586  1
  Al  Al31  1  0.88999277  0.87701236  0.07060760  1
  Al  Al32  1  0.55294342  0.87562426  0.58304517  1
  B  B33  1  0.90071411  0.18974244  0.56298616  1
  B  B34  1  0.90071400  0.87620901  0.56298591  1
  B  B35  1  0.43978053  0.76344301  0.81716800  1
  N  N36  1  0.22458195  0.20372579  0.37998603  1
  N  N37  1  0.11031053  0.09303009  0.13286927  1
  N  N38  1  0.89100587  0.19872909  0.87976802  1
  N  N39  1  0.80274442  0.08196079  0.61518183  1
  N  N40  1  0.55671353  0.20497662  0.38109494  1
  N  N41  1  0.44332368  0.09461477  0.12948141  1
  N  N42  1  0.22011843  0.20441860  0.88035478  1
  N  N43  1  0.08768213  0.10590654  0.62279167  1
  N  N44  1  0.90010430  0.19197155  0.39997161  1
  N  N45  1  0.77853349  0.09406672  0.14004419  1
  N  N46  1  0.55939365  0.20363686  0.87825273  1
  N  N47  1  0.44173645  0.09819270  0.63237100  1
  N  N48  1  0.22458194  0.53835939  0.37998590  1
  N  N49  1  0.11166147  0.42750293  0.12930745  1
  N  N50  1  0.88573770  0.54046415  0.82950968  1
  N  N51  1  0.79155562  0.40301055  0.59284787  1
  N  N52  1  0.55272625  0.54089806  0.38820482  1
  N  N53  1  0.44332386  0.42872851  0.12948147  1
  N  N54  1  0.22011848  0.54212966  0.88035465  1
  N  N55  1  0.11644254  0.42511191  0.62894476  1
  N  N56  1  0.88460618  0.54102963  0.33500615  1
  N  N57  1  0.77388230  0.43092011  0.08038317  1
  N  N58  1  0.53497783  0.56902235  0.87202222  1
  N  N59  1  0.44173653  0.42673751  0.63237079  1
  N  N60  1  0.22858539  0.86904078  0.38571638  1
  N  N61  1  0.11031047  0.76332638  0.13286919  1
  N  N62  1  0.89100529  0.87693126  0.87976754  1
  N  N63  1  0.79155540  0.77209919  0.59284790  1
  N  N64  1  0.55272567  0.87304260  0.38820496  1
  N  N65  1  0.44013360  0.76326659  0.13589412  1
  N  N66  1  0.24164254  0.86251183  0.86950945  1
  N  N67  1  0.08768210  0.77307783  0.62279140  1
  N  N68  1  0.90010352  0.87458993  0.39997147  1
  N  N69  1  0.77388193  0.76186508  0.08038319  1
  N  N70  1  0.53497740  0.86266677  0.87202210  1
  N  N71  1  0.44154086  0.76256279  0.65232821  1
