# generated using pymatgen
data_Al11BN12
_symmetry_space_group_name_H-M   'P 1'
_cell_length_a   9.25242511
_cell_length_b   9.26665880
_cell_length_c   9.89565443
_cell_angle_alpha   90.13704039
_cell_angle_beta   89.93681951
_cell_angle_gamma   60.03881040
_symmetry_Int_Tables_number   1
_chemical_formula_structural   Al11BN12
_chemical_formula_sum   'Al33 B3 N36'
_cell_volume   735.05670791
_cell_formula_units_Z   3
loop_
 _symmetry_equiv_pos_site_id
 _symmetry_equiv_pos_as_xyz
  1  'x, y, z'
loop_
 _atom_site_type_symbol
 _atom_site_label
 _atom_site_symmetry_multiplicity
 _atom_site_fract_x
 _atom_site_fract_y
 _atom_site_fract_z
 _atom_site_occupancy
  Al  Al0  1  0.10528589  0.09611569  0.39896668  1
  Al  Al1  1  0.22117567  0.20461619  0.14582886  1
  Al  Al2  1  0.78073113  0.09202557  0.88142747  1
  Al  Al3  1  0.44523266  0.09334452  0.39485872  1
  Al  Al4  1  0.55881470  0.20409715  0.14407792  1
  Al  Al5  1  0.11463414  0.09100814  0.89006273  1
  Al  Al6  1  0.21684824  0.20668579  0.64546433  1
  Al  Al7  1  0.78228543  0.09419028  0.40410625  1
  Al  Al8  1  0.88801394  0.20482637  0.14252388  1
  Al  Al9  1  0.44297043  0.09107652  0.89551003  1
  Al  Al10  1  0.56150691  0.20437859  0.64466218  1
  Al  Al11  1  0.11012769  0.42828058  0.39493941  1
  Al  Al12  1  0.22104321  0.54063927  0.14593466  1
  Al  Al13  1  0.77552733  0.42966447  0.88831184  1
  Al  Al14  1  0.89079483  0.53697132  0.64498851  1
  Al  Al15  1  0.44461969  0.42982401  0.39464446  1
  Al  Al16  1  0.55566770  0.54081018  0.13810624  1
  Al  Al17  1  0.11104955  0.42712165  0.89692054  1
  Al  Al18  1  0.21697948  0.54161229  0.64605835  1
  Al  Al19  1  0.77739274  0.42445701  0.39918398  1
  Al  Al20  1  0.88677439  0.53977881  0.14557287  1
  Al  Al21  1  0.44315449  0.43213517  0.89555938  1
  Al  Al22  1  0.55497369  0.54074797  0.64964889  1
  Al  Al23  1  0.10512244  0.76572611  0.39930035  1
  Al  Al24  1  0.22284305  0.87194051  0.13874608  1
  Al  Al25  1  0.77545837  0.75952929  0.88971883  1
  Al  Al26  1  0.44413939  0.76185776  0.39354984  1
  Al  Al27  1  0.55569903  0.87046866  0.13859834  1
  Al  Al28  1  0.11548994  0.75958641  0.89092168  1
  Al  Al29  1  0.21712555  0.87456310  0.64977272  1
  Al  Al30  1  0.77816412  0.76615872  0.39933990  1
  Al  Al31  1  0.88796939  0.87426343  0.14359028  1
  Al  Al32  1  0.55574023  0.87242098  0.65014816  1
  B  B33  1  0.89287746  0.19659560  0.65130223  1
  B  B34  1  0.89692687  0.86632131  0.65352792  1
  B  B35  1  0.44440638  0.76087945  0.89808927  1
  N  N36  1  0.22080175  0.20414484  0.33839095  1
  N  N37  1  0.10959344  0.09502523  0.08166837  1
  N  N38  1  0.89092689  0.20423073  0.81487103  1
  N  N39  1  0.79840527  0.08990343  0.59910440  1
  N  N40  1  0.55884207  0.20473543  0.33868611  1
  N  N41  1  0.44423039  0.09493311  0.08677965  1
  N  N42  1  0.22210665  0.20606432  0.83572931  1
  N  N43  1  0.08658434  0.10437691  0.59475798  1
  N  N44  1  0.88728158  0.20603682  0.33300550  1
  N  N45  1  0.77990125  0.09293849  0.07570859  1
  N  N46  1  0.55404876  0.20610740  0.83533505  1
  N  N47  1  0.44425738  0.09379085  0.58744680  1
  N  N48  1  0.22010786  0.54246838  0.33843158  1
  N  N49  1  0.11060097  0.42760539  0.08875088  1
  N  N50  1  0.89050798  0.53746051  0.83457811  1
  N  N51  1  0.78588675  0.40575019  0.59433338  1
  N  N52  1  0.55606306  0.54063546  0.33203985  1
  N  N53  1  0.44406503  0.42731497  0.08673362  1
  N  N54  1  0.22212431  0.53729548  0.83621736  1
  N  N55  1  0.11115688  0.42702492  0.58498330  1
  N  N56  1  0.88509798  0.54159099  0.34001541  1
  N  N57  1  0.77944284  0.42559559  0.08065693  1
  N  N58  1  0.54251703  0.56401484  0.84293057  1
  N  N59  1  0.44255674  0.43118751  0.58724269  1
  N  N60  1  0.22094358  0.87297398  0.33480135  1
  N  N61  1  0.10943753  0.76151816  0.08230466  1
  N  N62  1  0.89163288  0.86865138  0.81522928  1
  N  N63  1  0.78866360  0.77596966  0.59549102  1
  N  N64  1  0.55665949  0.87091123  0.33272305  1
  N  N65  1  0.44403189  0.76130462  0.06518951  1
  N  N66  1  0.24751055  0.85909837  0.84199534  1
  N  N67  1  0.08649593  0.77358481  0.59567551  1
  N  N68  1  0.88675376  0.87625699  0.33435630  1
  N  N69  1  0.77967606  0.76112785  0.08169901  1
  N  N70  1  0.54296409  0.85970630  0.84311608  1
  N  N71  1  0.44327340  0.76260243  0.58346362  1
