# generated using pymatgen
data_Al11BN12
_symmetry_space_group_name_H-M   'P 1'
_cell_length_a   9.28266966
_cell_length_b   9.26949077
_cell_length_c   10.03497102
_cell_angle_alpha   89.99966538
_cell_angle_beta   90.41102169
_cell_angle_gamma   60.04714907
_symmetry_Int_Tables_number   1
_chemical_formula_structural   Al11BN12
_chemical_formula_sum   'Al33 B3 N36'
_cell_volume   748.11225270
_cell_formula_units_Z   3
loop_
 _symmetry_equiv_pos_site_id
 _symmetry_equiv_pos_as_xyz
  1  'x, y, z'
loop_
 _atom_site_type_symbol
 _atom_site_label
 _atom_site_symmetry_multiplicity
 _atom_site_fract_x
 _atom_site_fract_y
 _atom_site_fract_z
 _atom_site_occupancy
  Al  Al0  1  0.11445221  0.09030208  0.31666952  1
  Al  Al1  1  0.21839477  0.20724917  0.06286065  1
  Al  Al2  1  0.78307719  0.09178893  0.80132046  1
  Al  Al3  1  0.44757940  0.09127740  0.31352133  1
  Al  Al4  1  0.55782899  0.20441915  0.06373630  1
  Al  Al5  1  0.10860228  0.09456087  0.80702322  1
  Al  Al6  1  0.21672219  0.20763172  0.56106629  1
  Al  Al7  1  0.78141149  0.09263151  0.32326075  1
  Al  Al8  1  0.89003732  0.19964093  0.06317891  1
  Al  Al9  1  0.44204859  0.09155393  0.81318751  1
  Al  Al10  1  0.56236940  0.20215001  0.56264566  1
  Al  Al11  1  0.11904477  0.42381280  0.31286289  1
  Al  Al12  1  0.21839708  0.54102024  0.06286122  1
  Al  Al13  1  0.77430883  0.43382396  0.87458740  1
  Al  Al14  1  0.88497625  0.54085155  0.63362872  1
  Al  Al15  1  0.44758287  0.42781508  0.31352133  1
  Al  Al16  1  0.54329285  0.54890933  0.06000950  1
  Al  Al17  1  0.11805999  0.42430049  0.81325029  1
  Al  Al18  1  0.21672334  0.54231301  0.56106439  1
  Al  Al19  1  0.78494252  0.42380637  0.39188481  1
  Al  Al20  1  0.87637368  0.54514287  0.13462767  1
  Al  Al21  1  0.44204680  0.43305737  0.81318602  1
  Al  Al22  1  0.55298686  0.53807964  0.57562289  1
  Al  Al23  1  0.11445463  0.76191608  0.31666818  1
  Al  Al24  1  0.22306800  0.87179790  0.05804054  1
  Al  Al25  1  0.77430687  0.75852568  0.87460818  1
  Al  Al26  1  0.44812933  0.75926892  0.31657671  1
  Al  Al27  1  0.54328816  0.87446646  0.06001984  1
  Al  Al28  1  0.10859990  0.76349611  0.80702347  1
  Al  Al29  1  0.21493589  0.87586573  0.56683028  1
  Al  Al30  1  0.78494175  0.75792223  0.39186858  1
  Al  Al31  1  0.89003746  0.87698888  0.06318594  1
  Al  Al32  1  0.55298951  0.87560373  0.57561382  1
  B  B33  1  0.90075968  0.18971616  0.55556112  1
  B  B34  1  0.90075760  0.87618431  0.55555562  1
  B  B35  1  0.43982482  0.76341947  0.80973825  1
  N  N36  1  0.22462700  0.20370399  0.37256051  1
  N  N37  1  0.11035461  0.09300638  0.12544092  1
  N  N38  1  0.89105117  0.19870116  0.87233758  1
  N  N39  1  0.80278899  0.08193866  0.60775335  1
  N  N40  1  0.55675879  0.20495656  0.37366984  1
  N  N41  1  0.44336857  0.09459206  0.12205597  1
  N  N42  1  0.22016189  0.20439347  0.87292913  1
  N  N43  1  0.08772632  0.10588280  0.61536437  1
  N  N44  1  0.90014900  0.19195260  0.39254629  1
  N  N45  1  0.77857891  0.09404519  0.13261778  1
  N  N46  1  0.55943876  0.20361077  0.87082669  1
  N  N47  1  0.44178124  0.09816968  0.62494522  1
  N  N48  1  0.22462851  0.53833911  0.37255856  1
  N  N49  1  0.11170828  0.42747839  0.12188405  1
  N  N50  1  0.88578247  0.54044359  0.82208018  1
  N  N51  1  0.79159794  0.40299231  0.58542887  1
  N  N52  1  0.55277271  0.54087788  0.38078076  1
  N  N53  1  0.44337219  0.42870590  0.12205465  1
  N  N54  1  0.22016246  0.54210403  0.87292994  1
  N  N55  1  0.11648851  0.42508932  0.62151721  1
  N  N56  1  0.88465227  0.54100613  0.32758229  1
  N  N57  1  0.77392974  0.43089728  0.07294723  1
  N  N58  1  0.53502350  0.56899617  0.86458706  1
  N  N59  1  0.44177980  0.42671603  0.62494499  1
  N  N60  1  0.22863144  0.86902025  0.37828595  1
  N  N61  1  0.11035624  0.76330255  0.12544087  1
  N  N62  1  0.89104994  0.87690500  0.87234333  1
  N  N63  1  0.79160117  0.77208182  0.58541396  1
  N  N64  1  0.55277142  0.87302139  0.38077276  1
  N  N65  1  0.44017904  0.76324013  0.12846364  1
  N  N66  1  0.24168853  0.86248495  0.86208101  1
  N  N67  1  0.08772609  0.77305548  0.61536292  1
  N  N68  1  0.90015005  0.87456979  0.39253894  1
  N  N69  1  0.77392621  0.76184168  0.07296394  1
  N  N70  1  0.53502355  0.86264070  0.86459667  1
  N  N71  1  0.44158420  0.76254495  0.64489825  1
