# generated using pymatgen
data_Al11BN12
_symmetry_space_group_name_H-M   'P 1'
_cell_length_a   9.32392326
_cell_length_b   9.36256871
_cell_length_c   9.95099660
_cell_angle_alpha   90.15231062
_cell_angle_beta   90.19588495
_cell_angle_gamma   60.01712370
_symmetry_Int_Tables_number   1
_chemical_formula_structural   Al11BN12
_chemical_formula_sum   'Al33 B3 N36'
_cell_volume   752.42467692
_cell_formula_units_Z   3
loop_
 _symmetry_equiv_pos_site_id
 _symmetry_equiv_pos_as_xyz
  1  'x, y, z'
loop_
 _atom_site_type_symbol
 _atom_site_label
 _atom_site_symmetry_multiplicity
 _atom_site_fract_x
 _atom_site_fract_y
 _atom_site_fract_z
 _atom_site_occupancy
  Al  Al0  1  0.10441812  0.09882754  0.39836890  1
  Al  Al1  1  0.21570232  0.20582916  0.13765993  1
  Al  Al2  1  0.78259932  0.09103146  0.87388167  1
  Al  Al3  1  0.45117984  0.08563890  0.32694653  1
  Al  Al4  1  0.56226870  0.20693444  0.13353157  1
  Al  Al5  1  0.10989510  0.09752108  0.87414751  1
  Al  Al6  1  0.21082342  0.21154130  0.63751247  1
  Al  Al7  1  0.78320163  0.09844352  0.39860116  1
  Al  Al8  1  0.88908938  0.20475629  0.13426558  1
  Al  Al9  1  0.44622408  0.08603946  0.82127682  1
  Al  Al10  1  0.56709288  0.20829786  0.63672121  1
  Al  Al11  1  0.11194408  0.42608921  0.38643430  1
  Al  Al12  1  0.22164381  0.54150068  0.13828508  1
  Al  Al13  1  0.77821108  0.42823225  0.87530224  1
  Al  Al14  1  0.89350968  0.53352799  0.64015198  1
  Al  Al15  1  0.44304702  0.42717667  0.38777969  1
  Al  Al16  1  0.55030959  0.54900862  0.06770910  1
  Al  Al17  1  0.11093752  0.42637072  0.89412564  1
  Al  Al18  1  0.21577648  0.53722854  0.64065860  1
  Al  Al19  1  0.78612988  0.42061996  0.39408632  1
  Al  Al20  1  0.88427005  0.54112211  0.13802276  1
  Al  Al21  1  0.44148214  0.43113913  0.87440364  1
  Al  Al22  1  0.55620382  0.54171752  0.58620242  1
  Al  Al23  1  0.10330266  0.76205534  0.39727087  1
  Al  Al24  1  0.23016138  0.86870977  0.06409290  1
  Al  Al25  1  0.77727052  0.75594656  0.88090159  1
  Al  Al26  1  0.44263805  0.76083530  0.32790659  1
  Al  Al27  1  0.54697661  0.87350784  0.06672538  1
  Al  Al28  1  0.11301916  0.75575706  0.87814122  1
  Al  Al29  1  0.21265298  0.87673521  0.60058344  1
  Al  Al30  1  0.78735193  0.76072609  0.39313277  1
  Al  Al31  1  0.88821052  0.87435493  0.13723701  1
  Al  Al32  1  0.55431593  0.87493035  0.58186140  1
  B  B33  1  0.88572147  0.20647194  0.64349176  1
  B  B34  1  0.90870005  0.82936700  0.65580472  1
  B  B35  1  0.44454477  0.76063634  0.81329959  1
  N  N36  1  0.21739184  0.20372758  0.33318306  1
  N  N37  1  0.10773492  0.09767757  0.06954226  1
  N  N38  1  0.88707450  0.20633517  0.80833015  1
  N  N39  1  0.78808476  0.12230740  0.58560752  1
  N  N40  1  0.56236507  0.20671606  0.33225673  1
  N  N41  1  0.44794373  0.08857944  0.12589300  1
  N  N42  1  0.21679427  0.21148285  0.83010031  1
  N  N43  1  0.08106775  0.11297532  0.59389830  1
  N  N44  1  0.89113516  0.20555571  0.32374611  1
  N  N45  1  0.78273171  0.09107598  0.06807826  1
  N  N46  1  0.55907096  0.20604491  0.83116638  1
  N  N47  1  0.44519992  0.09472266  0.62382395  1
  N  N48  1  0.21952074  0.54293149  0.33097388  1
  N  N49  1  0.10977158  0.42845134  0.08395696  1
  N  N50  1  0.89207146  0.53690895  0.82809564  1
  N  N51  1  0.79305521  0.40820464  0.59113615  1
  N  N52  1  0.55599523  0.54444887  0.38651383  1
  N  N53  1  0.44260444  0.42784955  0.07964595  1
  N  N54  1  0.21831542  0.53590427  0.82902397  1
  N  N55  1  0.11016625  0.42737723  0.57564759  1
  N  N56  1  0.88671083  0.54115435  0.33092478  1
  N  N57  1  0.78160295  0.42460042  0.07187091  1
  N  N58  1  0.53949096  0.56978468  0.86695589  1
  N  N59  1  0.43579034  0.43195081  0.58966811  1
  N  N60  1  0.22724686  0.86773452  0.39828426  1
  N  N61  1  0.10770474  0.76055354  0.07248506  1
  N  N62  1  0.88943199  0.86528571  0.80787382  1
  N  N63  1  0.79814061  0.76705147  0.59187057  1
  N  N64  1  0.55563446  0.86886279  0.38922047  1
  N  N65  1  0.44208658  0.76296016  0.13716094  1
  N  N66  1  0.24682469  0.85883345  0.86027336  1
  N  N67  1  0.08096627  0.76667456  0.59556794  1
  N  N68  1  0.88724978  0.87755093  0.32852740  1
  N  N69  1  0.78076403  0.76089052  0.07455489  1
  N  N70  1  0.53849093  0.86046746  0.87121985  1
  N  N71  1  0.44539169  0.76292586  0.65264720  1
