# generated using pymatgen
data_Al11BN12
_symmetry_space_group_name_H-M   'P 1'
_cell_length_a   9.27355975
_cell_length_b   9.28489241
_cell_length_c   10.13519833
_cell_angle_alpha   90.00030713
_cell_angle_beta   90.42130476
_cell_angle_gamma   59.95926316
_symmetry_Int_Tables_number   1
_chemical_formula_structural   Al11BN12
_chemical_formula_sum   'Al33 B3 N36'
_cell_volume   755.42639651
_cell_formula_units_Z   3
loop_
 _symmetry_equiv_pos_site_id
 _symmetry_equiv_pos_as_xyz
  1  'x, y, z'
loop_
 _atom_site_type_symbol
 _atom_site_label
 _atom_site_symmetry_multiplicity
 _atom_site_fract_x
 _atom_site_fract_y
 _atom_site_fract_z
 _atom_site_occupancy
  Al  Al0  1  0.12202359  0.08776248  0.32045287  1
  Al  Al1  1  0.22098663  0.20674097  0.07150323  1
  Al  Al2  1  0.76858681  0.09904070  0.81916036  1
  Al  Al3  1  0.44986870  0.08980581  0.32305492  1
  Al  Al4  1  0.55662262  0.20502185  0.06846177  1
  Al  Al5  1  0.11764769  0.09032488  0.81906266  1
  Al  Al6  1  0.21503729  0.20766215  0.56999484  1
  Al  Al7  1  0.78211123  0.09227614  0.35577999  1
  Al  Al8  1  0.88389174  0.21024234  0.13825717  1
  Al  Al9  1  0.43960712  0.09139009  0.82077413  1
  Al  Al10  1  0.55924738  0.20370933  0.57551798  1
  Al  Al11  1  0.11822348  0.42422102  0.32219750  1
  Al  Al12  1  0.22098724  0.53893829  0.07150314  1
  Al  Al13  1  0.77627894  0.43215200  0.88354667  1
  Al  Al14  1  0.88444338  0.54111118  0.64216591  1
  Al  Al15  1  0.44986929  0.42699019  0.32305512  1
  Al  Al16  1  0.54572243  0.54700287  0.06747518  1
  Al  Al17  1  0.11673630  0.42496521  0.82102395  1
  Al  Al18  1  0.21503721  0.54396671  0.56999507  1
  Al  Al19  1  0.78964587  0.41709389  0.40191763  1
  Al  Al20  1  0.87794096  0.54436249  0.14198718  1
  Al  Al21  1  0.43960737  0.43566985  0.82077399  1
  Al  Al22  1  0.55203370  0.53888402  0.58409314  1
  Al  Al23  1  0.12202370  0.75687855  0.32045288  1
  Al  Al24  1  0.22643243  0.87011648  0.06601776  1
  Al  Al25  1  0.77627868  0.75823678  0.88354654  1
  Al  Al26  1  0.45120116  0.75773183  0.32667746  1
  Al  Al27  1  0.54572178  0.87394098  0.06747491  1
  Al  Al28  1  0.11764733  0.75869462  0.81906273  1
  Al  Al29  1  0.20873496  0.87896511  0.57594424  1
  Al  Al30  1  0.78964539  0.75992535  0.40191781  1
  Al  Al31  1  0.88389293  0.87252813  0.13825732  1
  Al  Al32  1  0.55203313  0.87574870  0.58409302  1
  B  B33  1  0.89199588  0.20654342  0.65354862  1
  B  B34  1  0.89199498  0.86812824  0.65354864  1
  B  B35  1  0.44171845  0.76247417  0.81890444  1
  N  N36  1  0.22542559  0.20361159  0.38274336  1
  N  N37  1  0.11922773  0.08866684  0.12861250  1
  N  N38  1  0.88153475  0.21584489  0.81462507  1
  N  N39  1  0.79518415  0.08574063  0.61967656  1
  N  N40  1  0.55530111  0.20568187  0.38656902  1
  N  N41  1  0.44649947  0.09279041  0.13260353  1
  N  N42  1  0.21938874  0.20659105  0.88384036  1
  N  N43  1  0.09162981  0.10502265  0.62960720  1
  N  N44  1  0.88996097  0.20913552  0.32921985  1
  N  N45  1  0.77772507  0.09447174  0.10706355  1
  N  N46  1  0.54808164  0.20929295  0.87855158  1
  N  N47  1  0.44012117  0.09759574  0.63464271  1
  N  N48  1  0.22542666  0.53762682  0.38274369  1
  N  N49  1  0.11396256  0.42635217  0.13292234  1
  N  N50  1  0.88367477  0.54149511  0.82784273  1
  N  N51  1  0.79508285  0.39776362  0.59218060  1
  N  N52  1  0.55399339  0.54054536  0.39270559  1
  N  N53  1  0.44650079  0.42737697  0.13260364  1
  N  N54  1  0.21938929  0.54068635  0.88384017  1
  N  N55  1  0.11641205  0.42512736  0.63052842  1
  N  N56  1  0.88219357  0.54223462  0.33599749  1
  N  N57  1  0.78069952  0.42616419  0.07244528  1
  N  N58  1  0.53457616  0.56938455  0.87387142  1
  N  N59  1  0.44012173  0.42895031  0.63464264  1
  N  N60  1  0.22666942  0.86999798  0.38805678  1
  N  N61  1  0.11922831  0.75877243  0.12861263  1
  N  N62  1  0.88153421  0.86928810  0.81462520  1
  N  N63  1  0.79508235  0.77381949  0.59218079  1
  N  N64  1  0.55399255  0.87212633  0.39270559  1
  N  N65  1  0.44635464  0.76015576  0.13886377  1
  N  N66  1  0.24248804  0.86208937  0.87391072  1
  N  N67  1  0.09162959  0.77001452  0.62960730  1
  N  N68  1  0.88996129  0.86756693  0.32922022  1
  N  N69  1  0.78069906  0.75980110  0.07244517  1
  N  N70  1  0.53457537  0.86270619  0.87387107  1
  N  N71  1  0.44079487  0.76293585  0.65460054  1
