# generated using pymatgen
data_Al11BN12
_symmetry_space_group_name_H-M   'P 1'
_cell_length_a   9.28496217
_cell_length_b   9.28304217
_cell_length_c   9.87504484
_cell_angle_alpha   90.14292421
_cell_angle_beta   90.18018143
_cell_angle_gamma   59.91314980
_symmetry_Int_Tables_number   1
_chemical_formula_structural   Al11BN12
_chemical_formula_sum   'Al33 B3 N36'
_cell_volume   736.47334820
_cell_formula_units_Z   3
loop_
 _symmetry_equiv_pos_site_id
 _symmetry_equiv_pos_as_xyz
  1  'x, y, z'
loop_
 _atom_site_type_symbol
 _atom_site_label
 _atom_site_symmetry_multiplicity
 _atom_site_fract_x
 _atom_site_fract_y
 _atom_site_fract_z
 _atom_site_occupancy
  Al  Al0  1  0.11150240  0.09233872  0.31793177  1
  Al  Al1  1  0.22039693  0.20531383  0.06312062  1
  Al  Al2  1  0.78246767  0.09178586  0.80408830  1
  Al  Al3  1  0.44653969  0.09175790  0.31183911  1
  Al  Al4  1  0.55907824  0.20371450  0.06298076  1
  Al  Al5  1  0.10877919  0.09494000  0.80888821  1
  Al  Al6  1  0.21795329  0.20555100  0.56147590  1
  Al  Al7  1  0.78096079  0.09312909  0.32532047  1
  Al  Al8  1  0.88796723  0.20447553  0.06514017  1
  Al  Al9  1  0.44154589  0.09176300  0.81372873  1
  Al  Al10  1  0.56095182  0.20218623  0.56337798  1
  Al  Al11  1  0.11498306  0.42586570  0.31777725  1
  Al  Al12  1  0.22065364  0.54106135  0.06281793  1
  Al  Al13  1  0.77525757  0.42592159  0.80753953  1
  Al  Al14  1  0.89057058  0.53701399  0.57364129  1
  Al  Al15  1  0.44611715  0.42786733  0.31194861  1
  Al  Al16  1  0.55427993  0.54335966  0.05878534  1
  Al  Al17  1  0.11020416  0.42831700  0.81085360  1
  Al  Al18  1  0.21749565  0.54371239  0.56159792  1
  Al  Al19  1  0.77757489  0.42380696  0.32648519  1
  Al  Al20  1  0.88527491  0.54155363  0.09019633  1
  Al  Al21  1  0.44180074  0.43311989  0.81314452  1
  Al  Al22  1  0.55658270  0.53476731  0.56874234  1
  Al  Al23  1  0.11177360  0.76313324  0.31743790  1
  Al  Al24  1  0.22590839  0.87060138  0.05810334  1
  Al  Al25  1  0.77518664  0.76473062  0.80646760  1
  Al  Al26  1  0.44557699  0.76057389  0.31476086  1
  Al  Al27  1  0.55475464  0.86867052  0.05884220  1
  Al  Al28  1  0.10872986  0.76331128  0.80914896  1
  Al  Al29  1  0.21410243  0.87642546  0.56863309  1
  Al  Al30  1  0.77805849  0.76520426  0.33090665  1
  Al  Al31  1  0.88743836  0.87419332  0.06528058  1
  Al  Al32  1  0.55564903  0.87437899  0.57002988  1
  B  B33  1  0.89457445  0.19768650  0.55684360  1
  B  B34  1  0.89537798  0.87694558  0.55702712  1
  B  B35  1  0.44503511  0.76042196  0.80768068  1
  N  N36  1  0.22471093  0.20279750  0.37070697  1
  N  N37  1  0.11056797  0.09284270  0.12396082  1
  N  N38  1  0.88703287  0.20464062  0.87460327  1
  N  N39  1  0.80072867  0.08249411  0.60843411  1
  N  N40  1  0.55500891  0.20548526  0.37189132  1
  N  N41  1  0.44552185  0.09264346  0.11817474  1
  N  N42  1  0.21901413  0.20616624  0.87118727  1
  N  N43  1  0.08598582  0.10743222  0.61514292  1
  N  N44  1  0.89269354  0.20207225  0.39344314  1
  N  N45  1  0.77962637  0.09388992  0.13130566  1
  N  N46  1  0.55860130  0.20398368  0.86860938  1
  N  N47  1  0.44130282  0.09704589  0.62314607  1
  N  N48  1  0.22427928  0.53959183  0.37080096  1
  N  N49  1  0.11251404  0.42756155  0.12438740  1
  N  N50  1  0.88465135  0.54073879  0.85200493  1
  N  N51  1  0.78855958  0.39739428  0.61344199  1
  N  N52  1  0.55342118  0.54052017  0.37731974  1
  N  N53  1  0.44557708  0.42867726  0.11834176  1
  N  N54  1  0.21931066  0.54153320  0.87082762  1
  N  N55  1  0.11521433  0.42594892  0.61908855  1
  N  N56  1  0.89061067  0.53734104  0.37313447  1
  N  N57  1  0.77484386  0.42556844  0.12953525  1
  N  N58  1  0.54399872  0.56281500  0.86315041  1
  N  N59  1  0.44156488  0.42784388  0.62245810  1
  N  N60  1  0.22588225  0.87052505  0.37730473  1
  N  N61  1  0.11053018  0.76395168  0.12349995  1
  N  N62  1  0.88662076  0.87432033  0.87441681  1
  N  N63  1  0.78818242  0.77900863  0.61241625  1
  N  N64  1  0.55289416  0.87252535  0.37859852  1
  N  N65  1  0.44439355  0.76140195  0.12436435  1
  N  N66  1  0.24411442  0.86139268  0.86067222  1
  N  N67  1  0.08597724  0.77438749  0.61555435  1
  N  N68  1  0.89364545  0.87278273  0.39407144  1
  N  N69  1  0.77441652  0.76760648  0.13158071  1
  N  N70  1  0.54399963  0.85937847  0.86285390  1
  N  N71  1  0.44466155  0.76020889  0.64226890  1
