# generated using pymatgen
data_Al11BN12
_symmetry_space_group_name_H-M   'P 1'
_cell_length_a   9.27409256
_cell_length_b   9.27122566
_cell_length_c   10.08525441
_cell_angle_alpha   89.80672826
_cell_angle_beta   90.40687852
_cell_angle_gamma   60.05804326
_symmetry_Int_Tables_number   1
_chemical_formula_structural   Al11BN12
_chemical_formula_sum   'Al33 B3 N36'
_cell_volume   751.37197283
_cell_formula_units_Z   3
loop_
 _symmetry_equiv_pos_site_id
 _symmetry_equiv_pos_as_xyz
  1  'x, y, z'
loop_
 _atom_site_type_symbol
 _atom_site_label
 _atom_site_symmetry_multiplicity
 _atom_site_fract_x
 _atom_site_fract_y
 _atom_site_fract_z
 _atom_site_occupancy
  Al  Al0  1  0.11792656  0.09082341  0.31697456  1
  Al  Al1  1  0.22000085  0.20709659  0.06988326  1
  Al  Al2  1  0.78138564  0.09425145  0.81956933  1
  Al  Al3  1  0.44708502  0.09303769  0.32296102  1
  Al  Al4  1  0.55570111  0.20369067  0.07095984  1
  Al  Al5  1  0.10875416  0.09349524  0.82614661  1
  Al  Al6  1  0.21561448  0.20827282  0.57099874  1
  Al  Al7  1  0.77905100  0.09279863  0.32540127  1
  Al  Al8  1  0.88746866  0.20446191  0.10912792  1
  Al  Al9  1  0.44226568  0.09079629  0.82136049  1
  Al  Al10  1  0.56282043  0.20510982  0.57338375  1
  Al  Al11  1  0.11913886  0.42430030  0.32262218  1
  Al  Al12  1  0.21829973  0.54042356  0.07264787  1
  Al  Al13  1  0.77837297  0.42870145  0.89297372  1
  Al  Al14  1  0.88627958  0.53892925  0.64122183  1
  Al  Al15  1  0.44907110  0.42804014  0.32289083  1
  Al  Al16  1  0.54297020  0.54903883  0.06938334  1
  Al  Al17  1  0.11748970  0.42441127  0.82161040  1
  Al  Al18  1  0.21827894  0.54121910  0.56906425  1
  Al  Al19  1  0.78808191  0.41683806  0.39363345  1
  Al  Al20  1  0.87605642  0.54617225  0.14634699  1
  Al  Al21  1  0.44167116  0.43371794  0.82269598  1
  Al  Al22  1  0.55302570  0.53754324  0.58309928  1
  Al  Al23  1  0.11447877  0.76391692  0.32496073  1
  Al  Al24  1  0.22510733  0.86906131  0.06488677  1
  Al  Al25  1  0.77365353  0.75518226  0.88397336  1
  Al  Al26  1  0.44770919  0.76025389  0.32618751  1
  Al  Al27  1  0.54291646  0.87442450  0.06956172  1
  Al  Al28  1  0.10807989  0.76228546  0.81573345  1
  Al  Al29  1  0.21224446  0.87828125  0.57648897  1
  Al  Al30  1  0.78395947  0.75986710  0.39948222  1
  Al  Al31  1  0.89011176  0.87497563  0.06835202  1
  Al  Al32  1  0.55320149  0.87646095  0.58366777  1
  B  B33  1  0.89177698  0.19979789  0.61224671  1
  B  B34  1  0.90808895  0.86151529  0.56226390  1
  B  B35  1  0.44117343  0.76133568  0.81914604  1
  N  N36  1  0.22417635  0.20411285  0.38360883  1
  N  N37  1  0.12185338  0.08604998  0.12700644  1
  N  N38  1  0.89174403  0.19760441  0.88763454  1
  N  N39  1  0.79910891  0.09992310  0.62460337  1
  N  N40  1  0.55749244  0.20530451  0.38502670  1
  N  N41  1  0.44295946  0.09428755  0.13223905  1
  N  N42  1  0.22152237  0.20516236  0.88116288  1
  N  N43  1  0.08272507  0.10889616  0.63035246  1
  N  N44  1  0.89056950  0.20937877  0.32682644  1
  N  N45  1  0.77247224  0.08623111  0.13610021  1
  N  N46  1  0.55597837  0.20470182  0.87984920  1
  N  N47  1  0.44260149  0.09814006  0.63387029  1
  N  N48  1  0.22497220  0.53966050  0.38156698  1
  N  N49  1  0.11181728  0.42650559  0.13237884  1
  N  N50  1  0.88385972  0.53793943  0.82792722  1
  N  N51  1  0.79753639  0.39214499  0.59034545  1
  N  N52  1  0.55349785  0.54219335  0.39204742  1
  N  N53  1  0.44396691  0.42780383  0.13198721  1
  N  N54  1  0.21931934  0.54168310  0.88282211  1
  N  N55  1  0.11702005  0.42531776  0.63040543  1
  N  N56  1  0.88459835  0.54366724  0.33898330  1
  N  N57  1  0.77263758  0.43498089  0.08328054  1
  N  N58  1  0.53644651  0.56732582  0.87422571  1
  N  N59  1  0.44060926  0.42879998  0.63494907  1
  N  N60  1  0.22673167  0.87276600  0.38864907  1
  N  N61  1  0.10994645  0.76311049  0.13436917  1
  N  N62  1  0.89030293  0.87392527  0.87863831  1
  N  N63  1  0.79422762  0.77124187  0.59267638  1
  N  N64  1  0.55232185  0.87440095  0.39013854  1
  N  N65  1  0.44098565  0.76170884  0.13866217  1
  N  N66  1  0.24311421  0.85892450  0.86985413  1
  N  N67  1  0.08815373  0.77135115  0.62405653  1
  N  N68  1  0.90038937  0.87730240  0.40434888  1
  N  N69  1  0.77429503  0.75960446  0.08006266  1
  N  N70  1  0.53426979  0.86210328  0.87387031  1
  N  N71  1  0.44306614  0.76189171  0.65354487  1
