# generated using pymatgen
data_Al11BN12
_symmetry_space_group_name_H-M   'P 1'
_cell_length_a   9.30508211
_cell_length_b   9.35217126
_cell_length_c   9.94995764
_cell_angle_alpha   90.15422592
_cell_angle_beta   90.10607144
_cell_angle_gamma   60.08464776
_symmetry_Int_Tables_number   1
_chemical_formula_structural   Al11BN12
_chemical_formula_sum   'Al33 B3 N36'
_cell_volume   750.50343338
_cell_formula_units_Z   3
loop_
 _symmetry_equiv_pos_site_id
 _symmetry_equiv_pos_as_xyz
  1  'x, y, z'
loop_
 _atom_site_type_symbol
 _atom_site_label
 _atom_site_symmetry_multiplicity
 _atom_site_fract_x
 _atom_site_fract_y
 _atom_site_fract_z
 _atom_site_occupancy
  Al  Al0  1  0.10467926  0.09892160  0.39696547  1
  Al  Al1  1  0.22227857  0.20279994  0.13739558  1
  Al  Al2  1  0.78123332  0.09113021  0.87239917  1
  Al  Al3  1  0.44478384  0.09682281  0.39088849  1
  Al  Al4  1  0.55903059  0.20412039  0.13521879  1
  Al  Al5  1  0.10969165  0.09751076  0.87249712  1
  Al  Al6  1  0.21576194  0.20968109  0.63832891  1
  Al  Al7  1  0.78178119  0.09916307  0.39731847  1
  Al  Al8  1  0.88915336  0.20476397  0.13300464  1
  Al  Al9  1  0.44050075  0.09560038  0.87856796  1
  Al  Al10  1  0.56345442  0.20921065  0.63821587  1
  Al  Al11  1  0.11222234  0.42621600  0.38498968  1
  Al  Al12  1  0.22208247  0.54127227  0.13798404  1
  Al  Al13  1  0.77708883  0.42824990  0.87470557  1
  Al  Al14  1  0.89495102  0.53177403  0.63943181  1
  Al  Al15  1  0.44237388  0.42688733  0.38958094  1
  Al  Al16  1  0.55124254  0.54937706  0.06892711  1
  Al  Al17  1  0.11051513  0.42610737  0.89325112  1
  Al  Al18  1  0.21744947  0.53576319  0.64061686  1
  Al  Al19  1  0.78601382  0.42082203  0.39297799  1
  Al  Al20  1  0.88621644  0.53986211  0.13756044  1
  Al  Al21  1  0.44085623  0.42940988  0.88286788  1
  Al  Al22  1  0.55580195  0.54123726  0.58463646  1
  Al  Al23  1  0.10357432  0.76162488  0.39657129  1
  Al  Al24  1  0.22965531  0.86972808  0.06335780  1
  Al  Al25  1  0.77727123  0.75533624  0.87927355  1
  Al  Al26  1  0.44329911  0.76171855  0.32846292  1
  Al  Al27  1  0.55023276  0.86921902  0.06853399  1
  Al  Al28  1  0.11407736  0.75490011  0.87769382  1
  Al  Al29  1  0.21197448  0.87720409  0.59946536  1
  Al  Al30  1  0.78685242  0.76078478  0.39309189  1
  Al  Al31  1  0.88842898  0.87481141  0.13684048  1
  Al  Al32  1  0.55695589  0.87222945  0.58986518  1
  B  B33  1  0.88440921  0.20770254  0.64204634  1
  B  B34  1  0.91047491  0.82683902  0.65634450  1
  B  B35  1  0.44462747  0.75981153  0.81306606  1
  N  N36  1  0.22276045  0.20124816  0.33001775  1
  N  N37  1  0.10829520  0.09869426  0.06878141  1
  N  N38  1  0.88641177  0.20641034  0.80736873  1
  N  N39  1  0.78478856  0.12547122  0.58430145  1
  N  N40  1  0.55811790  0.20479654  0.32892692  1
  N  N41  1  0.44298193  0.09796344  0.07631907  1
  N  N42  1  0.21953061  0.21009165  0.82673713  1
  N  N43  1  0.08164151  0.11375054  0.59293695  1
  N  N44  1  0.89114136  0.20560655  0.32262664  1
  N  N45  1  0.78101250  0.09176837  0.06749353  1
  N  N46  1  0.55593579  0.20564538  0.82780218  1
  N  N47  1  0.44182296  0.10296450  0.58651332  1
  N  N48  1  0.22011300  0.54286184  0.32965381  1
  N  N49  1  0.11115899  0.42725184  0.08333399  1
  N  N50  1  0.89254568  0.53577724  0.82738787  1
  N  N51  1  0.79255202  0.40863078  0.59027550  1
  N  N52  1  0.55620654  0.54368467  0.38433851  1
  N  N53  1  0.44344546  0.42650986  0.07811267  1
  N  N54  1  0.22006268  0.53444307  0.82889547  1
  N  N55  1  0.11113300  0.42635379  0.57460480  1
  N  N56  1  0.88764200  0.54072631  0.33030002  1
  N  N57  1  0.78210517  0.42475902  0.07155075  1
  N  N58  1  0.53870248  0.56888049  0.86795320  1
  N  N59  1  0.43488715  0.43132351  0.58388963  1
  N  N60  1  0.22712995  0.86795407  0.39783651  1
  N  N61  1  0.10824316  0.76015377  0.07207432  1
  N  N62  1  0.89048213  0.86462876  0.80771493  1
  N  N63  1  0.79922557  0.76603004  0.59297268  1
  N  N64  1  0.55757685  0.86589221  0.38986940  1
  N  N65  1  0.44136028  0.76411506  0.13758251  1
  N  N66  1  0.24689157  0.85895103  0.86033073  1
  N  N67  1  0.08177917  0.76551033  0.59538517  1
  N  N68  1  0.88737661  0.87767511  0.32828215  1
  N  N69  1  0.78196052  0.76000533  0.07412604  1
  N  N70  1  0.54018883  0.85825800  0.86669978  1
  N  N71  1  0.44418229  0.76176247  0.65262324  1
