# generated using pymatgen
data_Al11BN12
_symmetry_space_group_name_H-M   'P 1'
_cell_length_a   9.25908544
_cell_length_b   9.25658524
_cell_length_c   9.89721458
_cell_angle_alpha   89.99996781
_cell_angle_beta   89.91025326
_cell_angle_gamma   60.00902266
_symmetry_Int_Tables_number   1
_chemical_formula_structural   Al11BN12
_chemical_formula_sum   'Al33 B3 N36'
_cell_volume   734.68518483
_cell_formula_units_Z   3
loop_
 _symmetry_equiv_pos_site_id
 _symmetry_equiv_pos_as_xyz
  1  'x, y, z'
loop_
 _atom_site_type_symbol
 _atom_site_label
 _atom_site_symmetry_multiplicity
 _atom_site_fract_x
 _atom_site_fract_y
 _atom_site_fract_z
 _atom_site_occupancy
  Al  Al0  1  0.10556631  0.09562088  0.40538287  1
  Al  Al1  1  0.22092907  0.20489309  0.15203032  1
  Al  Al2  1  0.78033205  0.09316843  0.88896617  1
  Al  Al3  1  0.44476837  0.09283911  0.40110076  1
  Al  Al4  1  0.55854453  0.20406194  0.15078821  1
  Al  Al5  1  0.11490103  0.09115952  0.89653525  1
  Al  Al6  1  0.21626866  0.20758185  0.65193022  1
  Al  Al7  1  0.78273523  0.09196661  0.41013187  1
  Al  Al8  1  0.88814626  0.20464505  0.14940468  1
  Al  Al9  1  0.44269697  0.09141321  0.90174520  1
  Al  Al10  1  0.56139579  0.20263608  0.65115443  1
  Al  Al11  1  0.10978292  0.42844235  0.40107901  1
  Al  Al12  1  0.22092902  0.54084587  0.15203011  1
  Al  Al13  1  0.77561021  0.43024639  0.89473984  1
  Al  Al14  1  0.89009466  0.53828634  0.65076262  1
  Al  Al15  1  0.44476813  0.42906106  0.40110089  1
  Al  Al16  1  0.55577361  0.54050893  0.14429676  1
  Al  Al17  1  0.11059258  0.42803791  0.90295110  1
  Al  Al18  1  0.21626831  0.54281825  0.65193045  1
  Al  Al19  1  0.77762452  0.42328431  0.40552990  1
  Al  Al20  1  0.88650857  0.54007953  0.15160184  1
  Al  Al21  1  0.44269686  0.43255879  0.90174498  1
  Al  Al22  1  0.55547460  0.53926137  0.65604009  1
  Al  Al23  1  0.10556626  0.76548021  0.40538295  1
  Al  Al24  1  0.22308854  0.87178946  0.14475782  1
  Al  Al25  1  0.77561006  0.76081213  0.89473986  1
  Al  Al26  1  0.44449673  0.76108595  0.39948258  1
  Al  Al27  1  0.55577379  0.87038495  0.14429674  1
  Al  Al28  1  0.11490087  0.76060864  0.89653522  1
  Al  Al29  1  0.21824206  0.87421344  0.65593567  1
  Al  Al30  1  0.77762488  0.76575873  0.40553000  1
  Al  Al31  1  0.88814598  0.87387728  0.14940477  1
  Al  Al32  1  0.55547461  0.87193154  0.65604021  1
  B  B33  1  0.89457048  0.19713402  0.65835987  1
  B  B34  1  0.89457051  0.87496360  0.65835998  1
  B  B35  1  0.44458822  0.76104020  0.90418121  1
  N  N36  1  0.22045273  0.20418482  0.34457269  1
  N  N37  1  0.10935911  0.09536482  0.08803745  1
  N  N38  1  0.89124086  0.20443842  0.82131698  1
  N  N39  1  0.80022713  0.08322054  0.60601396  1
  N  N40  1  0.55914870  0.20376009  0.34545683  1
  N  N41  1  0.44381413  0.09539531  0.09297167  1
  N  N42  1  0.22181750  0.20678408  0.84208774  1
  N  N43  1  0.08675724  0.10465981  0.60135259  1
  N  N44  1  0.88740378  0.20465417  0.33995323  1
  N  N45  1  0.77946481  0.09360177  0.08277164  1
  N  N46  1  0.55405605  0.20630643  0.84168345  1
  N  N47  1  0.44296722  0.09379345  0.59363941  1
  N  N48  1  0.22045268  0.54203041  0.34457254  1
  N  N49  1  0.11018458  0.42824161  0.09481218  1
  N  N50  1  0.89020145  0.53823369  0.84033416  1
  N  N51  1  0.78679770  0.40302951  0.60092093  1
  N  N52  1  0.55643451  0.53963923  0.33829310  1
  N  N53  1  0.44381382  0.42745853  0.09297139  1
  N  N54  1  0.22181719  0.53806755  0.84208795  1
  N  N55  1  0.11043142  0.42811843  0.59103481  1
  N  N56  1  0.88480137  0.54093319  0.34613729  1
  N  N57  1  0.77948412  0.42562221  0.08703547  1
  N  N58  1  0.54279331  0.56380115  0.84912287  1
  N  N59  1  0.44296693  0.42990713  0.59363947  1
  N  N60  1  0.22139733  0.87263520  0.34069274  1
  N  N61  1  0.10935875  0.76194402  0.08803739  1
  N  N62  1  0.89124070  0.87098965  0.82131705  1
  N  N63  1  0.78679772  0.77684023  0.60092110  1
  N  N64  1  0.55643478  0.87059469  0.33829317  1
  N  N65  1  0.44412412  0.76127172  0.07119706  1
  N  N66  1  0.24798628  0.85934139  0.84813505  1
  N  N67  1  0.08675714  0.77525138  0.60135269  1
  N  N68  1  0.88740367  0.87461057  0.33995338  1
  N  N69  1  0.77948426  0.76156138  0.08703563  1
  N  N70  1  0.54279308  0.86007434  0.84912311  1
  N  N71  1  0.44393683  0.76136537  0.58941000  1
