# generated using pymatgen
data_Al11BN12
_symmetry_space_group_name_H-M   'P 1'
_cell_length_a   9.27807902
_cell_length_b   9.25860038
_cell_length_c   10.10770550
_cell_angle_alpha   89.92277891
_cell_angle_beta   90.47322801
_cell_angle_gamma   59.99311516
_symmetry_Int_Tables_number   1
_chemical_formula_structural   Al11BN12
_chemical_formula_sum   'Al33 B3 N36'
_cell_volume   751.85307314
_cell_formula_units_Z   3
loop_
 _symmetry_equiv_pos_site_id
 _symmetry_equiv_pos_as_xyz
  1  'x, y, z'
loop_
 _atom_site_type_symbol
 _atom_site_label
 _atom_site_symmetry_multiplicity
 _atom_site_fract_x
 _atom_site_fract_y
 _atom_site_fract_z
 _atom_site_occupancy
  Al  Al0  1  0.12056611  0.08899024  0.31934916  1
  Al  Al1  1  0.21890220  0.20759424  0.06966803  1
  Al  Al2  1  0.77849052  0.09034376  0.81534515  1
  Al  Al3  1  0.44714893  0.09248711  0.32249522  1
  Al  Al4  1  0.55539539  0.20391052  0.07074522  1
  Al  Al5  1  0.11330068  0.09167737  0.82168694  1
  Al  Al6  1  0.21542822  0.20835133  0.57052237  1
  Al  Al7  1  0.77780349  0.09148310  0.32765208  1
  Al  Al8  1  0.88445261  0.20976339  0.13327922  1
  Al  Al9  1  0.44157939  0.09094335  0.82113989  1
  Al  Al10  1  0.56266288  0.20277029  0.57247501  1
  Al  Al11  1  0.11867384  0.42490408  0.32227246  1
  Al  Al12  1  0.21840619  0.54059291  0.07240748  1
  Al  Al13  1  0.77822995  0.42862685  0.88860119  1
  Al  Al14  1  0.88500310  0.54061429  0.64239503  1
  Al  Al15  1  0.44868101  0.42860475  0.32312545  1
  Al  Al16  1  0.54363683  0.54819097  0.06770904  1
  Al  Al17  1  0.11728557  0.42492703  0.82136834  1
  Al  Al18  1  0.21700646  0.54261225  0.56944952  1
  Al  Al19  1  0.78954263  0.41603929  0.39900328  1
  Al  Al20  1  0.87583700  0.54600498  0.14536672  1
  Al  Al21  1  0.44190125  0.43334778  0.82221993  1
  Al  Al22  1  0.55372694  0.53669979  0.58405960  1
  Al  Al23  1  0.11404355  0.76367712  0.32532827  1
  Al  Al24  1  0.22454176  0.86932919  0.06517992  1
  Al  Al25  1  0.77352936  0.75606746  0.88416779  1
  Al  Al26  1  0.44943575  0.75885914  0.32599093  1
  Al  Al27  1  0.54272253  0.87449054  0.06927280  1
  Al  Al28  1  0.10863598  0.76280586  0.81554351  1
  Al  Al29  1  0.21398096  0.87727142  0.57583214  1
  Al  Al30  1  0.78526267  0.75928243  0.40233551  1
  Al  Al31  1  0.89041349  0.87537801  0.06902062  1
  Al  Al32  1  0.55270145  0.87577018  0.58388449  1
  B  B33  1  0.89422499  0.19889797  0.63317849  1
  B  B34  1  0.90322216  0.87679897  0.56527919  1
  B  B35  1  0.44114157  0.76129105  0.81937711  1
  N  N36  1  0.22439460  0.20449748  0.38313777  1
  N  N37  1  0.11839339  0.08791932  0.12663737  1
  N  N38  1  0.88623485  0.20663059  0.84539097  1
  N  N39  1  0.80182766  0.08519095  0.62158203  1
  N  N40  1  0.55655633  0.20557856  0.38459964  1
  N  N41  1  0.44230734  0.09462173  0.13211686  1
  N  N42  1  0.22118400  0.20558003  0.88183049  1
  N  N43  1  0.08874928  0.10551865  0.62872185  1
  N  N44  1  0.89045373  0.20954802  0.32681153  1
  N  N45  1  0.77251275  0.08803479  0.13623924  1
  N  N46  1  0.55593794  0.20409152  0.88016659  1
  N  N47  1  0.44156543  0.09813671  0.63400396  1
  N  N48  1  0.22488971  0.53951959  0.38198767  1
  N  N49  1  0.11162458  0.42707426  0.13241310  1
  N  N50  1  0.88422884  0.53925390  0.82870007  1
  N  N51  1  0.79762812  0.39137251  0.59158432  1
  N  N52  1  0.55456189  0.54111333  0.39272141  1
  N  N53  1  0.44432822  0.42808245  0.13211757  1
  N  N54  1  0.21984371  0.54170202  0.88284514  1
  N  N55  1  0.11637565  0.42589322  0.63055416  1
  N  N56  1  0.88379397  0.54310311  0.33803409  1
  N  N57  1  0.77591802  0.42996556  0.07833659  1
  N  N58  1  0.53625285  0.56769256  0.87401828  1
  N  N59  1  0.44157396  0.42711062  0.63489463  1
  N  N60  1  0.22814242  0.87108834  0.38798597  1
  N  N61  1  0.10996194  0.76324099  0.13490817  1
  N  N62  1  0.89140072  0.87395947  0.88034361  1
  N  N63  1  0.79153014  0.77209067  0.59381396  1
  N  N64  1  0.55267830  0.87417303  0.39009311  1
  N  N65  1  0.44167636  0.76103618  0.13846936  1
  N  N66  1  0.24312725  0.85929795  0.87117423  1
  N  N67  1  0.08812766  0.77347378  0.62465652  1
  N  N68  1  0.90048553  0.87788263  0.40420836  1
  N  N69  1  0.77398729  0.75999606  0.07989993  1
  N  N70  1  0.53400547  0.86242134  0.87421404  1
  N  N71  1  0.44282371  0.76138321  0.65403911  1
