# generated using pymatgen
data_Al11BN12
_symmetry_space_group_name_H-M   'P 1'
_cell_length_a   9.25312683
_cell_length_b   9.30551582
_cell_length_c   9.91946345
_cell_angle_alpha   90.24596708
_cell_angle_beta   89.79559349
_cell_angle_gamma   60.07154797
_symmetry_Int_Tables_number   1
_chemical_formula_structural   Al11BN12
_chemical_formula_sum   'Al33 B3 N36'
_cell_volume   740.19647573
_cell_formula_units_Z   3
loop_
 _symmetry_equiv_pos_site_id
 _symmetry_equiv_pos_as_xyz
  1  'x, y, z'
loop_
 _atom_site_type_symbol
 _atom_site_label
 _atom_site_symmetry_multiplicity
 _atom_site_fract_x
 _atom_site_fract_y
 _atom_site_fract_z
 _atom_site_occupancy
  Al  Al0  1  0.10375075  0.09849369  0.40030294  1
  Al  Al1  1  0.22179700  0.20335684  0.14512054  1
  Al  Al2  1  0.78067588  0.09131728  0.87885002  1
  Al  Al3  1  0.44573664  0.09488752  0.39594055  1
  Al  Al4  1  0.55904108  0.20401500  0.14312644  1
  Al  Al5  1  0.11355251  0.09196956  0.88519224  1
  Al  Al6  1  0.21814215  0.20680264  0.64536784  1
  Al  Al7  1  0.78127759  0.09870789  0.40415440  1
  Al  Al8  1  0.88881534  0.20452666  0.14036684  1
  Al  Al9  1  0.44246132  0.09051304  0.89587134  1
  Al  Al10  1  0.56209279  0.20821782  0.64454761  1
  Al  Al11  1  0.11072156  0.42741635  0.39405036  1
  Al  Al12  1  0.22168992  0.54084634  0.14547805  1
  Al  Al13  1  0.77359507  0.43097201  0.88957302  1
  Al  Al14  1  0.89266350  0.53327092  0.64689265  1
  Al  Al15  1  0.44422931  0.42891797  0.39556472  1
  Al  Al16  1  0.55603648  0.54033743  0.14446448  1
  Al  Al17  1  0.11105047  0.42645493  0.89850182  1
  Al  Al18  1  0.21893531  0.53751789  0.64715751  1
  Al  Al19  1  0.77924455  0.42364488  0.40011142  1
  Al  Al20  1  0.88634785  0.53969731  0.14620750  1
  Al  Al21  1  0.44344823  0.43250236  0.89605937  1
  Al  Al22  1  0.55542115  0.54111023  0.64511085  1
  Al  Al23  1  0.10272533  0.76444306  0.40029963  1
  Al  Al24  1  0.22370214  0.87195714  0.13652173  1
  Al  Al25  1  0.77246932  0.75741712  0.89328381  1
  Al  Al26  1  0.44492185  0.76130308  0.39191830  1
  Al  Al27  1  0.55597745  0.87093575  0.14557001  1
  Al  Al28  1  0.11748504  0.75781505  0.88893122  1
  Al  Al29  1  0.21403366  0.87649547  0.63923744  1
  Al  Al30  1  0.78075308  0.76532595  0.40010075  1
  Al  Al31  1  0.88827395  0.87487360  0.14368728  1
  Al  Al32  1  0.55646573  0.87339276  0.64685468  1
  B  B33  1  0.88529672  0.20469404  0.64874090  1
  B  B34  1  0.90724909  0.83433617  0.66066987  1
  B  B35  1  0.44300683  0.76128307  0.87443098  1
  N  N36  1  0.22160961  0.20352781  0.33775847  1
  N  N37  1  0.11057871  0.09404543  0.07779110  1
  N  N38  1  0.88783364  0.20698571  0.81475626  1
  N  N39  1  0.78753217  0.11864222  0.59351426  1
  N  N40  1  0.55797914  0.20562731  0.33696585  1
  N  N41  1  0.44579608  0.09303313  0.08667273  1
  N  N42  1  0.22239165  0.20669625  0.83524193  1
  N  N43  1  0.08512833  0.10831177  0.59515052  1
  N  N44  1  0.88851553  0.20739830  0.33020547  1
  N  N45  1  0.78095218  0.09164556  0.07395587  1
  N  N46  1  0.55349550  0.20603218  0.83560890  1
  N  N47  1  0.44648216  0.09488985  0.58810950  1
  N  N48  1  0.21970839  0.54255738  0.33780572  1
  N  N49  1  0.11119133  0.42692064  0.08949218  1
  N  N50  1  0.89040398  0.53705037  0.83621180  1
  N  N51  1  0.78646182  0.41112086  0.59453001  1
  N  N52  1  0.55795804  0.53744094  0.33740316  1
  N  N53  1  0.44547355  0.42722541  0.08661974  1
  N  N54  1  0.22248982  0.53580011  0.83666211  1
  N  N55  1  0.11209944  0.42581322  0.58451561  1
  N  N56  1  0.88555875  0.54199610  0.34018684  1
  N  N57  1  0.77861269  0.42585879  0.08107091  1
  N  N58  1  0.54024511  0.56738821  0.83905050  1
  N  N59  1  0.44001754  0.43370327  0.58744810  1
  N  N60  1  0.21756602  0.87397075  0.34628588  1
  N  N61  1  0.11002456  0.76135542  0.08023202  1
  N  N62  1  0.89114532  0.86362264  0.81502878  1
  N  N63  1  0.79326737  0.77047207  0.59779603  1
  N  N64  1  0.55913135  0.87222062  0.33914796  1
  N  N65  1  0.44636253  0.76016975  0.08669204  1
  N  N66  1  0.24865921  0.85815057  0.83531613  1
  N  N67  1  0.08383985  0.76845140  0.59779134  1
  N  N68  1  0.88559636  0.87833855  0.33510521  1
  N  N69  1  0.77931476  0.76136586  0.08360797  1
  N  N70  1  0.54101493  0.85839566  0.83957200  1
  N  N71  1  0.44522445  0.76264647  0.58226970  1
