# generated using pymatgen
data_Al11BN12
_symmetry_space_group_name_H-M   'P 1'
_cell_length_a   9.26867432
_cell_length_b   9.32833468
_cell_length_c   9.97565293
_cell_angle_alpha   90.24035936
_cell_angle_beta   89.68688599
_cell_angle_gamma   60.05514506
_symmetry_Int_Tables_number   1
_chemical_formula_structural   Al11BN12
_chemical_formula_sum   'Al33 B3 N36'
_cell_volume   747.33344355
_cell_formula_units_Z   3
loop_
 _symmetry_equiv_pos_site_id
 _symmetry_equiv_pos_as_xyz
  1  'x, y, z'
loop_
 _atom_site_type_symbol
 _atom_site_label
 _atom_site_symmetry_multiplicity
 _atom_site_fract_x
 _atom_site_fract_y
 _atom_site_fract_z
 _atom_site_occupancy
  Al  Al0  1  0.10149270  0.10307563  0.40228056  1
  Al  Al1  1  0.22134182  0.20286843  0.14475690  1
  Al  Al2  1  0.78027311  0.09152476  0.87895162  1
  Al  Al3  1  0.44554829  0.09594316  0.39766587  1
  Al  Al4  1  0.55890967  0.20409966  0.14300756  1
  Al  Al5  1  0.11018972  0.09744942  0.87901135  1
  Al  Al6  1  0.21787548  0.20816145  0.64591015  1
  Al  Al7  1  0.78105867  0.09925883  0.40394100  1
  Al  Al8  1  0.89087265  0.20279116  0.13991370  1
  Al  Al9  1  0.44343738  0.08961506  0.89548568  1
  Al  Al10  1  0.56233821  0.20847764  0.64523904  1
  Al  Al11  1  0.11071726  0.42721541  0.39371722  1
  Al  Al12  1  0.22136314  0.54195548  0.14494417  1
  Al  Al13  1  0.77232933  0.43183656  0.88969143  1
  Al  Al14  1  0.89277187  0.53297854  0.64761428  1
  Al  Al15  1  0.44403205  0.42766224  0.39706917  1
  Al  Al16  1  0.55965727  0.53301568  0.14802515  1
  Al  Al17  1  0.11141361  0.42606482  0.89895824  1
  Al  Al18  1  0.21900897  0.53634525  0.64748536  1
  Al  Al19  1  0.78020160  0.42334944  0.40145165  1
  Al  Al20  1  0.88694679  0.53942903  0.14647105  1
  Al  Al21  1  0.44451816  0.43255773  0.89544267  1
  Al  Al22  1  0.55839386  0.53393401  0.64497216  1
  Al  Al23  1  0.10056600  0.76116525  0.40198925  1
  Al  Al24  1  0.23705041  0.86603885  0.06720198  1
  Al  Al25  1  0.77117317  0.75747148  0.89397606  1
  Al  Al26  1  0.43668719  0.76465258  0.33923138  1
  Al  Al27  1  0.55975344  0.87486730  0.14963407  1
  Al  Al28  1  0.11423174  0.75491045  0.88364361  1
  Al  Al29  1  0.20919687  0.87899324  0.59727369  1
  Al  Al30  1  0.78168516  0.76456233  0.40165424  1
  Al  Al31  1  0.89070133  0.87472760  0.14353158  1
  Al  Al32  1  0.55941036  0.87769815  0.64761439  1
  B  B33  1  0.88473295  0.20659979  0.64882216  1
  B  B34  1  0.90757347  0.83004101  0.66238288  1
  B  B35  1  0.44122220  0.76240371  0.81277940  1
  N  N36  1  0.22197026  0.20275460  0.33690059  1
  N  N37  1  0.10958917  0.09727073  0.07408782  1
  N  N38  1  0.88532370  0.20856125  0.81447597  1
  N  N39  1  0.78610604  0.12223516  0.59206463  1
  N  N40  1  0.55780586  0.20543106  0.33602864  1
  N  N41  1  0.44565148  0.09298995  0.08641742  1
  N  N42  1  0.22363728  0.20748704  0.83429165  1
  N  N43  1  0.08035095  0.11579415  0.59874767  1
  N  N44  1  0.88952635  0.20679265  0.32925729  1
  N  N45  1  0.78117190  0.09151037  0.07396542  1
  N  N46  1  0.55369274  0.20591946  0.83573206  1
  N  N47  1  0.44553453  0.09709122  0.58783163  1
  N  N48  1  0.22008193  0.54227662  0.33664701  1
  N  N49  1  0.11175312  0.42678311  0.08936665  1
  N  N50  1  0.89080421  0.53683296  0.83660752  1
  N  N51  1  0.78713867  0.41231340  0.59380338  1
  N  N52  1  0.56027899  0.53245085  0.34296110  1
  N  N53  1  0.44537494  0.42741686  0.08607441  1
  N  N54  1  0.22366518  0.53354135  0.83562376  1
  N  N55  1  0.11184278  0.42609060  0.58349514  1
  N  N56  1  0.88583902  0.54188046  0.33966413  1
  N  N57  1  0.77876453  0.42600226  0.08137274  1
  N  N58  1  0.54377321  0.56107399  0.83756648  1
  N  N59  1  0.43879990  0.43274299  0.58682295  1
  N  N60  1  0.21998582  0.87187698  0.40038623  1
  N  N61  1  0.10977318  0.76001236  0.07707433  1
  N  N62  1  0.88908765  0.86379968  0.81491933  1
  N  N63  1  0.79394253  0.76927906  0.59763396  1
  N  N64  1  0.56109261  0.87405141  0.34577994  1
  N  N65  1  0.44044964  0.76351838  0.14394117  1
  N  N66  1  0.25204617  0.85652469  0.86558899  1
  N  N67  1  0.08056617  0.76573044  0.60090106  1
  N  N68  1  0.88631145  0.87807840  0.33460104  1
  N  N69  1  0.77963617  0.76126044  0.08424184  1
  N  N70  1  0.54474183  0.86136842  0.83890074  1
  N  N71  1  0.43810114  0.76608629  0.63807072  1
