# generated using pymatgen
data_Al11BN12
_symmetry_space_group_name_H-M   'P 1'
_cell_length_a   9.26757673
_cell_length_b   9.27565691
_cell_length_c   10.11946180
_cell_angle_alpha   90.00727657
_cell_angle_beta   90.46112581
_cell_angle_gamma   59.95478745
_symmetry_Int_Tables_number   1
_chemical_formula_structural   Al11BN12
_chemical_formula_sum   'Al33 B3 N36'
_cell_volume   752.97818387
_cell_formula_units_Z   3
loop_
 _symmetry_equiv_pos_site_id
 _symmetry_equiv_pos_as_xyz
  1  'x, y, z'
loop_
 _atom_site_type_symbol
 _atom_site_label
 _atom_site_symmetry_multiplicity
 _atom_site_fract_x
 _atom_site_fract_y
 _atom_site_fract_z
 _atom_site_occupancy
  Al  Al0  1  0.12109753  0.08809041  0.32003220  1
  Al  Al1  1  0.22088728  0.20655776  0.07176184  1
  Al  Al2  1  0.77391697  0.09638618  0.85388009  1
  Al  Al3  1  0.45158317  0.09015627  0.32382982  1
  Al  Al4  1  0.55532845  0.20565800  0.06732782  1
  Al  Al5  1  0.11692946  0.09048832  0.81830503  1
  Al  Al6  1  0.21459955  0.20765332  0.56955703  1
  Al  Al7  1  0.79236128  0.08715590  0.39732960  1
  Al  Al8  1  0.88206782  0.20746664  0.13818140  1
  Al  Al9  1  0.43850611  0.09128990  0.82045730  1
  Al  Al10  1  0.55534169  0.20564558  0.57915973  1
  Al  Al11  1  0.11859070  0.42404397  0.32193459  1
  Al  Al12  1  0.22089001  0.53921391  0.07176311  1
  Al  Al13  1  0.77624677  0.43172742  0.88290678  1
  Al  Al14  1  0.88450170  0.54108144  0.64131543  1
  Al  Al15  1  0.45158404  0.42492516  0.32383175  1
  Al  Al16  1  0.54617725  0.54686972  0.06761485  1
  Al  Al17  1  0.11669047  0.42499823  0.82107359  1
  Al  Al18  1  0.21459683  0.54439922  0.56955835  1
  Al  Al19  1  0.78936176  0.41676702  0.40011628  1
  Al  Al20  1  0.87844073  0.54411028  0.14126304  1
  Al  Al21  1  0.43850418  0.43687584  0.82045652  1
  Al  Al22  1  0.55232838  0.53890059  0.58356902  1
  Al  Al23  1  0.12109746  0.75748724  0.32003448  1
  Al  Al24  1  0.22603666  0.87031093  0.06611706  1
  Al  Al25  1  0.77624376  0.75871931  0.88290763  1
  Al  Al26  1  0.45060020  0.75803227  0.32652745  1
  Al  Al27  1  0.54617285  0.87359768  0.06761416  1
  Al  Al28  1  0.11692162  0.75926989  0.81830301  1
  Al  Al29  1  0.20956561  0.87854054  0.57606829  1
  Al  Al30  1  0.78936167  0.76054756  0.40011647  1
  Al  Al31  1  0.88206940  0.87712079  0.13818262  1
  Al  Al32  1  0.55233212  0.87541119  0.58356422  1
  B  B33  1  0.89100268  0.20528392  0.65214907  1
  B  B34  1  0.89099120  0.87041136  0.65214249  1
  B  B35  1  0.44190450  0.76237739  0.81880070  1
  N  N36  1  0.22536330  0.20345336  0.38228022  1
  N  N37  1  0.11867518  0.08893472  0.12894079  1
  N  N38  1  0.87916641  0.21486553  0.81102008  1
  N  N39  1  0.80022650  0.08320776  0.60264629  1
  N  N40  1  0.55699919  0.20482019  0.38849736  1
  N  N41  1  0.44777840  0.09265204  0.13283241  1
  N  N42  1  0.21831639  0.20656998  0.88400160  1
  N  N43  1  0.09189772  0.10490315  0.62910662  1
  N  N44  1  0.88676745  0.20615698  0.32805865  1
  N  N45  1  0.78546042  0.09060983  0.07259032  1
  N  N46  1  0.54293786  0.21185408  0.87621751  1
  N  N47  1  0.43902691  0.09698297  0.63476519  1
  N  N48  1  0.22536526  0.53783143  0.38228131  1
  N  N49  1  0.11436682  0.42617214  0.13258725  1
  N  N50  1  0.88340793  0.54161589  0.82755693  1
  N  N51  1  0.79532007  0.39754298  0.59089198  1
  N  N52  1  0.55383830  0.54086832  0.39224779  1
  N  N53  1  0.44778070  0.42625921  0.13283354  1
  N  N54  1  0.21831619  0.54177633  0.88400273  1
  N  N55  1  0.11653794  0.42507927  0.63042678  1
  N  N56  1  0.88244605  0.54209134  0.33528348  1
  N  N57  1  0.78129465  0.42492074  0.07254403  1
  N  N58  1  0.53453265  0.56946472  0.87395455  1
  N  N59  1  0.43902867  0.43067460  0.63476299  1
  N  N60  1  0.22612239  0.87026442  0.38807538  1
  N  N61  1  0.11867788  0.75909754  0.12894372  1
  N  N62  1  0.87916607  0.87261267  0.81102033  1
  N  N63  1  0.79531972  0.77381180  0.59088509  1
  N  N64  1  0.55383863  0.87193449  0.39224497  1
  N  N65  1  0.44623723  0.76022634  0.13866187  1
  N  N66  1  0.24188406  0.86238718  0.87382694  1
  N  N67  1  0.09189672  0.76989225  0.62910563  1
  N  N68  1  0.88676808  0.87369979  0.32805797  1
  N  N69  1  0.78129016  0.76046935  0.07254468  1
  N  N70  1  0.53452884  0.86265248  0.87396049  1
  N  N71  1  0.44118841  0.76274715  0.65456957  1
