# generated using pymatgen
data_Al11BN12
_symmetry_space_group_name_H-M   'P 1'
_cell_length_a   9.28553972
_cell_length_b   9.27746261
_cell_length_c   10.08111849
_cell_angle_alpha   90.00057529
_cell_angle_beta   90.29040466
_cell_angle_gamma   60.02870165
_symmetry_Int_Tables_number   1
_chemical_formula_structural   Al11BN12
_chemical_formula_sum   'Al33 B3 N36'
_cell_volume   752.30479345
_cell_formula_units_Z   3
loop_
 _symmetry_equiv_pos_site_id
 _symmetry_equiv_pos_as_xyz
  1  'x, y, z'
loop_
 _atom_site_type_symbol
 _atom_site_label
 _atom_site_symmetry_multiplicity
 _atom_site_fract_x
 _atom_site_fract_y
 _atom_site_fract_z
 _atom_site_occupancy
  Al  Al0  1  0.10598498  0.10003394  0.39902486  1
  Al  Al1  1  0.21683896  0.20574836  0.14090566  1
  Al  Al2  1  0.78261713  0.09197174  0.87473270  1
  Al  Al3  1  0.45495964  0.08792796  0.32554085  1
  Al  Al4  1  0.55310136  0.20672942  0.06798213  1
  Al  Al5  1  0.10994736  0.09765157  0.87866676  1
  Al  Al6  1  0.20791320  0.21363674  0.64201626  1
  Al  Al7  1  0.79177112  0.08739844  0.39969578  1
  Al  Al8  1  0.88904409  0.20377546  0.13703713  1
  Al  Al9  1  0.44567723  0.08842067  0.82077956  1
  Al  Al10  1  0.55724785  0.20465673  0.57955126  1
  Al  Al11  1  0.11291075  0.42682578  0.38892230  1
  Al  Al12  1  0.21683775  0.54397348  0.14088383  1
  Al  Al13  1  0.77750347  0.42937888  0.87842105  1
  Al  Al14  1  0.88957564  0.53848947  0.64014076  1
  Al  Al15  1  0.45494882  0.42368348  0.32553457  1
  Al  Al16  1  0.54878059  0.54543385  0.06733771  1
  Al  Al17  1  0.10930784  0.42862078  0.89470276  1
  Al  Al18  1  0.20791458  0.54500354  0.64201239  1
  Al  Al19  1  0.78607215  0.41963147  0.39580526  1
  Al  Al20  1  0.88435619  0.54110188  0.13881604  1
  Al  Al21  1  0.44567270  0.43246182  0.82078196  1
  Al  Al22  1  0.55400639  0.53799516  0.58190424  1
  Al  Al23  1  0.10598896  0.76054550  0.39902368  1
  Al  Al24  1  0.23253495  0.86701378  0.06451407  1
  Al  Al25  1  0.77750895  0.75967315  0.87842359  1
  Al  Al26  1  0.44316955  0.76169934  0.32750369  1
  Al  Al27  1  0.54878312  0.87234990  0.06734002  1
  Al  Al28  1  0.10994889  0.75896442  0.87865251  1
  Al  Al29  1  0.21731838  0.87462419  0.59649356  1
  Al  Al30  1  0.78608070  0.76085657  0.39580501  1
  Al  Al31  1  0.88904842  0.87374264  0.13703584  1
  Al  Al32  1  0.55401327  0.87455488  0.58190433  1
  B  B33  1  0.89320374  0.19948209  0.64733106  1
  B  B34  1  0.89320524  0.87387067  0.64733094  1
  B  B35  1  0.44278390  0.76189011  0.81707129  1
  N  N36  1  0.21839643  0.20464018  0.33270114  1
  N  N37  1  0.10874516  0.09797688  0.07177945  1
  N  N38  1  0.88666811  0.20667406  0.80746166  1
  N  N39  1  0.80355145  0.08150403  0.59482979  1
  N  N40  1  0.55710441  0.20473389  0.38861737  1
  N  N41  1  0.45289552  0.08928558  0.13281574  1
  N  N42  1  0.21421232  0.21292699  0.83072527  1
  N  N43  1  0.08196680  0.11182081  0.59377213  1
  N  N44  1  0.88965309  0.20361239  0.32599431  1
  N  N45  1  0.78787714  0.08934250  0.06844974  1
  N  N46  1  0.54734124  0.20960871  0.87783811  1
  N  N47  1  0.44399247  0.09476143  0.63215382  1
  N  N48  1  0.21839021  0.54352858  0.33269450  1
  N  N49  1  0.11069236  0.42792931  0.08279990  1
  N  N50  1  0.88941353  0.53857062  0.82613609  1
  N  N51  1  0.79368368  0.39911382  0.58968389  1
  N  N52  1  0.55302706  0.54266969  0.39051479  1
  N  N53  1  0.45289269  0.42438460  0.13280784  1
  N  N54  1  0.21420845  0.53941522  0.83072667  1
  N  N55  1  0.10847966  0.42903624  0.57576159  1
  N  N56  1  0.88601998  0.54026987  0.33066768  1
  N  N57  1  0.78263579  0.42359752  0.07183292  1
  N  N58  1  0.53681317  0.56772231  0.87427625  1
  N  N59  1  0.44399157  0.42780601  0.63215641  1
  N  N60  1  0.22907722  0.86874561  0.39751572  1
  N  N61  1  0.10874402  0.75984191  0.07176754  1
  N  N62  1  0.88666564  0.87321813  0.80745955  1
  N  N63  1  0.79369192  0.77375666  0.58968324  1
  N  N64  1  0.55303573  0.87086339  0.39051585  1
  N  N65  1  0.44454321  0.76101179  0.13896380  1
  N  N66  1  0.24789129  0.85933744  0.86446651  1
  N  N67  1  0.08197380  0.77277037  0.59377596  1
  N  N68  1  0.88965609  0.87330018  0.32599431  1
  N  N69  1  0.78263962  0.76032642  0.07183467  1
  N  N70  1  0.53681805  0.86202306  0.87427751  1
  N  N71  1  0.44761662  0.75947362  0.65566217  1
