# generated using pymatgen
data_Al11BN12
_symmetry_space_group_name_H-M   'P 1'
_cell_length_a   9.28029023
_cell_length_b   9.29231566
_cell_length_c   10.16066465
_cell_angle_alpha   90.02820191
_cell_angle_beta   90.42561499
_cell_angle_gamma   59.80662183
_symmetry_Int_Tables_number   1
_chemical_formula_structural   Al11BN12
_chemical_formula_sum   'Al33 B3 N36'
_cell_volume   757.30992785
_cell_formula_units_Z   3
loop_
 _symmetry_equiv_pos_site_id
 _symmetry_equiv_pos_as_xyz
  1  'x, y, z'
loop_
 _atom_site_type_symbol
 _atom_site_label
 _atom_site_symmetry_multiplicity
 _atom_site_fract_x
 _atom_site_fract_y
 _atom_site_fract_z
 _atom_site_occupancy
  Al  Al0  1  0.12080354  0.08834172  0.32091178  1
  Al  Al1  1  0.22085709  0.20719160  0.07140882  1
  Al  Al2  1  0.76882437  0.09888681  0.81185325  1
  Al  Al3  1  0.44840950  0.08988167  0.32293763  1
  Al  Al4  1  0.55537799  0.20546174  0.06950283  1
  Al  Al5  1  0.11954242  0.08974793  0.82015261  1
  Al  Al6  1  0.21637978  0.20834251  0.56985561  1
  Al  Al7  1  0.77470027  0.09553308  0.32788193  1
  Al  Al8  1  0.88507694  0.21259457  0.13840268  1
  Al  Al9  1  0.44151565  0.09105290  0.82067136  1
  Al  Al10  1  0.56329612  0.19896813  0.57181137  1
  Al  Al11  1  0.11754389  0.42515843  0.32250328  1
  Al  Al12  1  0.22103645  0.53898352  0.07122432  1
  Al  Al13  1  0.77621785  0.43338614  0.88359601  1
  Al  Al14  1  0.88539663  0.54228097  0.64274922  1
  Al  Al15  1  0.44873215  0.42797745  0.32363719  1
  Al  Al16  1  0.54503069  0.54717944  0.06710452  1
  Al  Al17  1  0.11781493  0.42479560  0.82101140  1
  Al  Al18  1  0.21631249  0.54382481  0.57054570  1
  Al  Al19  1  0.79017164  0.41621742  0.40251978  1
  Al  Al20  1  0.87724575  0.54463002  0.14286865  1
  Al  Al21  1  0.44154228  0.43375065  0.82056673  1
  Al  Al22  1  0.55225398  0.53816301  0.58476917  1
  Al  Al23  1  0.12036998  0.75808591  0.32142498  1
  Al  Al24  1  0.22679741  0.86968558  0.06592538  1
  Al  Al25  1  0.77660737  0.75811274  0.88362594  1
  Al  Al26  1  0.45101270  0.75756465  0.32735530  1
  Al  Al27  1  0.54491306  0.87381314  0.06709665  1
  Al  Al28  1  0.11784278  0.75814333  0.81872021  1
  Al  Al29  1  0.20698321  0.88012694  0.57604010  1
  Al  Al30  1  0.78908880  0.76070352  0.40279918  1
  Al  Al31  1  0.88528017  0.86832615  0.13772728  1
  Al  Al32  1  0.55137021  0.87522621  0.58424704  1
  B  B33  1  0.89693860  0.21314483  0.65595214  1
  B  B34  1  0.88877210  0.87148761  0.65303762  1
  B  B35  1  0.44141307  0.76239096  0.81884353  1
  N  N36  1  0.22425850  0.20423035  0.38281273  1
  N  N37  1  0.11916181  0.08872695  0.12780908  1
  N  N38  1  0.88228268  0.21677148  0.81476303  1
  N  N39  1  0.79247412  0.07739843  0.62359038  1
  N  N40  1  0.55468395  0.20551043  0.38399878  1
  N  N41  1  0.44595188  0.09256841  0.13260971  1
  N  N42  1  0.22084775  0.20645387  0.88419356  1
  N  N43  1  0.09241017  0.10707355  0.63076661  1
  N  N44  1  0.88950501  0.20999383  0.32852037  1
  N  N45  1  0.77312596  0.09678698  0.12479141  1
  N  N46  1  0.55218783  0.20718170  0.88113661  1
  N  N47  1  0.44041156  0.09735230  0.63466592  1
  N  N48  1  0.22472812  0.53836907  0.38334195  1
  N  N49  1  0.11366198  0.42699153  0.13327511  1
  N  N50  1  0.88458715  0.54116388  0.82800965  1
  N  N51  1  0.79711734  0.39780385  0.59303084  1
  N  N52  1  0.55406064  0.54020252  0.39395252  1
  N  N53  1  0.44611913  0.42809281  0.13299410  1
  N  N54  1  0.22109735  0.53955811  0.88384758  1
  N  N55  1  0.11744956  0.42549812  0.63102068  1
  N  N56  1  0.88124655  0.54249080  0.33617236  1
  N  N57  1  0.78035075  0.42675071  0.07165166  1
  N  N58  1  0.53473465  0.56910954  0.87374172  1
  N  N59  1  0.44310976  0.42542521  0.63451863  1
  N  N60  1  0.22591788  0.87057076  0.38837002  1
  N  N61  1  0.11934965  0.75913052  0.12835082  1
  N  N62  1  0.88282125  0.86846133  0.81830159  1
  N  N63  1  0.79416642  0.77275718  0.59287508  1
  N  N64  1  0.55293077  0.87245194  0.39313353  1
  N  N65  1  0.44638549  0.75991221  0.13935850  1
  N  N66  1  0.24278382  0.86163385  0.87417759  1
  N  N67  1  0.09149058  0.77043267  0.63002209  1
  N  N68  1  0.88921440  0.86608727  0.32808466  1
  N  N69  1  0.77986998  0.75942401  0.07197806  1
  N  N70  1  0.53457772  0.86239029  0.87390665  1
  N  N71  1  0.44005754  0.76275596  0.65491328  1
