# generated using pymatgen
data_Al11BN12
_symmetry_space_group_name_H-M   'P 1'
_cell_length_a   9.28264410
_cell_length_b   9.26946121
_cell_length_c   10.03505812
_cell_angle_alpha   89.99990553
_cell_angle_beta   90.41161336
_cell_angle_gamma   60.04707502
_symmetry_Int_Tables_number   1
_chemical_formula_structural   Al11BN12
_chemical_formula_sum   'Al33 B3 N36'
_cell_volume   748.11368485
_cell_formula_units_Z   3
loop_
 _symmetry_equiv_pos_site_id
 _symmetry_equiv_pos_as_xyz
  1  'x, y, z'
loop_
 _atom_site_type_symbol
 _atom_site_label
 _atom_site_symmetry_multiplicity
 _atom_site_fract_x
 _atom_site_fract_y
 _atom_site_fract_z
 _atom_site_occupancy
  Al  Al0  1  0.11441910  0.09031662  0.32225962  1
  Al  Al1  1  0.21835951  0.20726769  0.06844250  1
  Al  Al2  1  0.78304256  0.09181208  0.80691085  1
  Al  Al3  1  0.44754623  0.09129075  0.31910406  1
  Al  Al4  1  0.55779330  0.20443713  0.06931733  1
  Al  Al5  1  0.10856644  0.09458352  0.81260885  1
  Al  Al6  1  0.21668820  0.20764967  0.56665251  1
  Al  Al7  1  0.78137806  0.09264396  0.32884229  1
  Al  Al8  1  0.89000514  0.19965638  0.06876823  1
  Al  Al9  1  0.44201551  0.09157345  0.81876910  1
  Al  Al10  1  0.56233795  0.20216446  0.56822636  1
  Al  Al11  1  0.11901282  0.42382706  0.31844558  1
  Al  Al12  1  0.21835986  0.54103974  0.06844240  1
  Al  Al13  1  0.77427351  0.43384826  0.88019673  1
  Al  Al14  1  0.88493897  0.54086307  0.63922403  1
  Al  Al15  1  0.44754644  0.42782988  0.31910404  1
  Al  Al16  1  0.54325475  0.54892866  0.06560873  1
  Al  Al17  1  0.11802775  0.42431937  0.81883409  1
  Al  Al18  1  0.21668833  0.54232895  0.56665239  1
  Al  Al19  1  0.78491026  0.42382021  0.39747147  1
  Al  Al20  1  0.87633674  0.54516544  0.14022338  1
  Al  Al21  1  0.44201561  0.43307836  0.81876899  1
  Al  Al22  1  0.55295510  0.53809320  0.58120687  1
  Al  Al23  1  0.11441870  0.76193159  0.32225966  1
  Al  Al24  1  0.22303353  0.87181657  0.06362873  1
  Al  Al25  1  0.77427270  0.75854424  0.88019666  1
  Al  Al26  1  0.44809406  0.75928629  0.32217141  1
  Al  Al27  1  0.54325418  0.87448418  0.06560875  1
  Al  Al28  1  0.10856593  0.76351659  0.81260858  1
  Al  Al29  1  0.21490353  0.87588185  0.57242364  1
  Al  Al30  1  0.78490962  0.75793446  0.39747145  1
  Al  Al31  1  0.89000524  0.87700586  0.06876771  1
  Al  Al32  1  0.55295473  0.87561880  0.58120694  1
  B  B33  1  0.90072507  0.18973451  0.56114816  1
  B  B34  1  0.90072499  0.87620553  0.56114787  1
  B  B35  1  0.43979254  0.76343706  0.81533125  1
  N  N36  1  0.22459429  0.20371948  0.37814858  1
  N  N37  1  0.11032240  0.09302399  0.13103105  1
  N  N38  1  0.89101686  0.19872482  0.87792957  1
  N  N39  1  0.80275639  0.08195481  0.61334438  1
  N  N40  1  0.55672586  0.20497061  0.37925350  1
  N  N41  1  0.44333387  0.09461055  0.12764151  1
  N  N42  1  0.22013004  0.20441271  0.87851406  1
  N  N43  1  0.08769312  0.10590072  0.62095283  1
  N  N44  1  0.90011505  0.19196529  0.39813343  1
  N  N45  1  0.77854440  0.09406112  0.13820203  1
  N  N46  1  0.55940426  0.20363158  0.87641231  1
  N  N47  1  0.44174803  0.09818746  0.63053079  1
  N  N48  1  0.22459430  0.53835343  0.37814841  1
  N  N49  1  0.11167191  0.42749752  0.12746944  1
  N  N50  1  0.88574915  0.54045860  0.82767343  1
  N  N51  1  0.79156632  0.40300461  0.59101187  1
  N  N52  1  0.55273872  0.54089126  0.38636665  1
  N  N53  1  0.44333411  0.42872247  0.12764153  1
  N  N54  1  0.22013008  0.54212397  0.87851389  1
  N  N55  1  0.11645227  0.42510701  0.62710625  1
  N  N56  1  0.88461944  0.54102305  0.33317298  1
  N  N57  1  0.77389370  0.43091448  0.07854822  1
  N  N58  1  0.53498910  0.56901678  0.87018597  1
  N  N59  1  0.44174811  0.42673110  0.63053074  1
  N  N60  1  0.22859666  0.86903524  0.38388043  1
  N  N61  1  0.11032228  0.76332027  0.13103095  1
  N  N62  1  0.89101628  0.87692477  0.87792907  1
  N  N63  1  0.79156613  0.77209440  0.59101187  1
  N  N64  1  0.55273821  0.87303711  0.38636662  1
  N  N65  1  0.44014375  0.76326141  0.13405873  1
  N  N66  1  0.24165322  0.86250649  0.86767043  1
  N  N67  1  0.08769319  0.77307244  0.62095253  1
  N  N68  1  0.90011436  0.87458548  0.39813329  1
  N  N69  1  0.77389324  0.76185921  0.07854826  1
  N  N70  1  0.53498863  0.86266120  0.87018592  1
  N  N71  1  0.44155278  0.76255689  0.65049125  1
