# generated using pymatgen
data_Al11BN12
_symmetry_space_group_name_H-M   'P 1'
_cell_length_a   9.33212122
_cell_length_b   9.34617190
_cell_length_c   9.97853328
_cell_angle_alpha   90.03121199
_cell_angle_beta   90.58032722
_cell_angle_gamma   59.94633774
_symmetry_Int_Tables_number   1
_chemical_formula_structural   Al11BN12
_chemical_formula_sum   'Al33 B3 N36'
_cell_volume   753.26565222
_cell_formula_units_Z   3
loop_
 _symmetry_equiv_pos_site_id
 _symmetry_equiv_pos_as_xyz
  1  'x, y, z'
loop_
 _atom_site_type_symbol
 _atom_site_label
 _atom_site_symmetry_multiplicity
 _atom_site_fract_x
 _atom_site_fract_y
 _atom_site_fract_z
 _atom_site_occupancy
  Al  Al0  1  0.10247812  0.09673480  0.39834371  1
  Al  Al1  1  0.22528443  0.20183040  0.07251285  1
  Al  Al2  1  0.78042900  0.09357613  0.87894499  1
  Al  Al3  1  0.44645301  0.09196897  0.32658077  1
  Al  Al4  1  0.55261051  0.20713452  0.07201600  1
  Al  Al5  1  0.10904470  0.09408010  0.86955211  1
  Al  Al6  1  0.22070771  0.20525918  0.58835449  1
  Al  Al7  1  0.78865649  0.08869175  0.39934156  1
  Al  Al8  1  0.89052288  0.20275715  0.13741320  1
  Al  Al9  1  0.44380234  0.09000935  0.82170564  1
  Al  Al10  1  0.55980621  0.20348540  0.58150080  1
  Al  Al11  1  0.10743225  0.42866848  0.38948506  1
  Al  Al12  1  0.22394274  0.54225484  0.07144087  1
  Al  Al13  1  0.77555295  0.42985193  0.88052348  1
  Al  Al14  1  0.88881832  0.53916826  0.64192007  1
  Al  Al15  1  0.44753571  0.42709796  0.32573044  1
  Al  Al16  1  0.54853162  0.54617360  0.07012091  1
  Al  Al17  1  0.10342892  0.43218118  0.88389569  1
  Al  Al18  1  0.22036822  0.54296315  0.58358015  1
  Al  Al19  1  0.78465707  0.41937793  0.39546904  1
  Al  Al20  1  0.88559562  0.54040791  0.13994421  1
  Al  Al21  1  0.44307344  0.43309196  0.82197322  1
  Al  Al22  1  0.55644458  0.53652733  0.58333975  1
  Al  Al23  1  0.10949154  0.76469256  0.37061933  1
  Al  Al24  1  0.22882474  0.86545657  0.06215303  1
  Al  Al25  1  0.77483631  0.76121923  0.88187092  1
  Al  Al26  1  0.44392102  0.76158004  0.32801619  1
  Al  Al27  1  0.54777745  0.87172768  0.07023178  1
  Al  Al28  1  0.11239084  0.76114371  0.83418433  1
  Al  Al29  1  0.21843042  0.87397726  0.59956522  1
  Al  Al30  1  0.78505277  0.76208173  0.39627358  1
  Al  Al31  1  0.88860862  0.87370307  0.13730476  1
  Al  Al32  1  0.55665034  0.87362804  0.58328022  1
  B  B33  1  0.89362125  0.20000348  0.64989661  1
  B  B34  1  0.88935931  0.87593828  0.65120700  1
  B  B35  1  0.44563058  0.76071186  0.81652851  1
  N  N36  1  0.22634738  0.19961611  0.38429577  1
  N  N37  1  0.10550212  0.09346994  0.07166738  1
  N  N38  1  0.88383675  0.20798237  0.80963419  1
  N  N39  1  0.80386811  0.08017989  0.59560711  1
  N  N40  1  0.55541484  0.20559678  0.38720707  1
  N  N41  1  0.44665624  0.09194300  0.13369048  1
  N  N42  1  0.22454011  0.20609990  0.86996845  1
  N  N43  1  0.08282933  0.10903056  0.60159163  1
  N  N44  1  0.88872147  0.20343067  0.32770509  1
  N  N45  1  0.78474035  0.09101950  0.07327254  1
  N  N46  1  0.54719187  0.21010229  0.87881257  1
  N  N47  1  0.44609927  0.09393418  0.63480974  1
  N  N48  1  0.22657861  0.53970148  0.38503340  1
  N  N49  1  0.10630900  0.43010537  0.08571060  1
  N  N50  1  0.88392622  0.54157626  0.82818654  1
  N  N51  1  0.79458946  0.39789272  0.59068889  1
  N  N52  1  0.55253925  0.54206924  0.38936957  1
  N  N53  1  0.44667272  0.42768831  0.13342340  1
  N  N54  1  0.22392272  0.53860628  0.87373774  1
  N  N55  1  0.10534657  0.43147346  0.58927082  1
  N  N56  1  0.88446097  0.54096099  0.33328991  1
  N  N57  1  0.78145604  0.42366680  0.07526290  1
  N  N58  1  0.53726830  0.56750899  0.87406366  1
  N  N59  1  0.44496926  0.42735306  0.63477932  1
  N  N60  1  0.22892845  0.86844333  0.39964261  1
  N  N61  1  0.10929563  0.76490634  0.09516513  1
  N  N62  1  0.87781394  0.87752303  0.81161203  1
  N  N63  1  0.79518885  0.77433172  0.59079268  1
  N  N64  1  0.55285479  0.87162963  0.38962275  1
  N  N65  1  0.44278726  0.76185401  0.13821605  1
  N  N66  1  0.24875182  0.85836772  0.86051682  1
  N  N67  1  0.08831059  0.77208033  0.62252708  1
  N  N68  1  0.88645493  0.87500069  0.32898437  1
  N  N69  1  0.78049571  0.76121809  0.07582724  1
  N  N70  1  0.53653383  0.86192604  0.87440430  1
  N  N71  1  0.45090314  0.75805580  0.65420572  1
