# generated using pymatgen
data_Al11BN12
_symmetry_space_group_name_H-M   'P 1'
_cell_length_a   9.32651905
_cell_length_b   9.36962614
_cell_length_c   9.95022569
_cell_angle_alpha   90.16447516
_cell_angle_beta   90.21261888
_cell_angle_gamma   60.05163965
_symmetry_Int_Tables_number   1
_chemical_formula_structural   Al11BN12
_chemical_formula_sum   'Al33 B3 N36'
_cell_volume   753.40390904
_cell_formula_units_Z   3
loop_
 _symmetry_equiv_pos_site_id
 _symmetry_equiv_pos_as_xyz
  1  'x, y, z'
loop_
 _atom_site_type_symbol
 _atom_site_label
 _atom_site_symmetry_multiplicity
 _atom_site_fract_x
 _atom_site_fract_y
 _atom_site_fract_z
 _atom_site_occupancy
  Al  Al0  1  0.10429520  0.09887773  0.39845526  1
  Al  Al1  1  0.21568579  0.20575720  0.13779071  1
  Al  Al2  1  0.78277089  0.09083977  0.87431478  1
  Al  Al3  1  0.45101634  0.08491886  0.32756557  1
  Al  Al4  1  0.56358520  0.20385452  0.13173288  1
  Al  Al5  1  0.10977719  0.09760878  0.87427492  1
  Al  Al6  1  0.21091617  0.21143300  0.63783094  1
  Al  Al7  1  0.78389491  0.09764787  0.39920208  1
  Al  Al8  1  0.88891377  0.20504743  0.13425421  1
  Al  Al9  1  0.44614933  0.08609963  0.82204060  1
  Al  Al10  1  0.56864208  0.20543644  0.63479381  1
  Al  Al11  1  0.11187661  0.42583700  0.38701345  1
  Al  Al12  1  0.21833758  0.54324669  0.13788665  1
  Al  Al13  1  0.77856495  0.42806379  0.87628482  1
  Al  Al14  1  0.89313338  0.53342192  0.64037860  1
  Al  Al15  1  0.44694219  0.42958694  0.34864141  1
  Al  Al16  1  0.54823374  0.54744874  0.06640427  1
  Al  Al17  1  0.11106546  0.42616698  0.89457893  1
  Al  Al18  1  0.21266978  0.53919358  0.64013538  1
  Al  Al19  1  0.78660873  0.42023916  0.39456179  1
  Al  Al20  1  0.88358645  0.54103677  0.13803046  1
  Al  Al21  1  0.44433382  0.43486484  0.83489148  1
  Al  Al22  1  0.55522255  0.54111785  0.58378662  1
  Al  Al23  1  0.10285602  0.76262480  0.39798327  1
  Al  Al24  1  0.23049940  0.86873281  0.06437450  1
  Al  Al25  1  0.77738099  0.75584702  0.88093682  1
  Al  Al26  1  0.44230279  0.76156369  0.32776000  1
  Al  Al27  1  0.54709923  0.87279599  0.06684267  1
  Al  Al28  1  0.11264812  0.75609765  0.87893138  1
  Al  Al29  1  0.21300277  0.87674702  0.60094498  1
  Al  Al30  1  0.78747314  0.76061208  0.39324967  1
  Al  Al31  1  0.88827770  0.87430407  0.13757155  1
  Al  Al32  1  0.55444307  0.87453767  0.58229647  1
  B  B33  1  0.88585290  0.20639967  0.64364100  1
  B  B34  1  0.90845997  0.82975798  0.65612605  1
  B  B35  1  0.44437315  0.76140702  0.81356974  1
  N  N36  1  0.21731126  0.20371918  0.33330007  1
  N  N37  1  0.10770280  0.09764902  0.06965710  1
  N  N38  1  0.88680015  0.20661880  0.80838143  1
  N  N39  1  0.78914350  0.12154626  0.58585823  1
  N  N40  1  0.56414208  0.20232103  0.33537408  1
  N  N41  1  0.44782453  0.08785991  0.12605352  1
  N  N42  1  0.21672389  0.21145338  0.83022826  1
  N  N43  1  0.08120395  0.11295371  0.59396872  1
  N  N44  1  0.89072513  0.20571346  0.32387986  1
  N  N45  1  0.78369306  0.09038233  0.06828954  1
  N  N46  1  0.55968471  0.20411939  0.83410868  1
  N  N47  1  0.44523180  0.09438509  0.62406169  1
  N  N48  1  0.21601749  0.54477939  0.33309232  1
  N  N49  1  0.10929372  0.42819966  0.08424975  1
  N  N50  1  0.89182028  0.53684678  0.82823923  1
  N  N51  1  0.79287425  0.40836615  0.59074229  1
  N  N52  1  0.55472208  0.54440775  0.38830643  1
  N  N53  1  0.44533578  0.43013591  0.11050936  1
  N  N54  1  0.21542918  0.53746395  0.83119222  1
  N  N55  1  0.11010384  0.42703781  0.57594856  1
  N  N56  1  0.88631653  0.54106858  0.33109790  1
  N  N57  1  0.78113172  0.42462398  0.07185398  1
  N  N58  1  0.53900181  0.57010222  0.86926844  1
  N  N59  1  0.43904532  0.43440646  0.61806828  1
  N  N60  1  0.22721012  0.86790383  0.39838134  1
  N  N61  1  0.10735523  0.76135115  0.07277885  1
  N  N62  1  0.88929955  0.86544988  0.80805664  1
  N  N63  1  0.79826612  0.76700151  0.59203551  1
  N  N64  1  0.55576416  0.86822506  0.38957776  1
  N  N65  1  0.44247701  0.76248877  0.13717652  1
  N  N66  1  0.24674476  0.85901243  0.86025701  1
  N  N67  1  0.08054214  0.76749877  0.59573499  1
  N  N68  1  0.88736490  0.87737520  0.32874908  1
  N  N69  1  0.78088181  0.76081982  0.07467011  1
  N  N70  1  0.53842414  0.86030882  0.87125920  1
  N  N71  1  0.44594848  0.76241789  0.65276511  1
