# generated using pymatgen
data_Al11BN12
_symmetry_space_group_name_H-M   'P 1'
_cell_length_a   9.31050397
_cell_length_b   9.35823249
_cell_length_c   10.00369561
_cell_angle_alpha   90.14772585
_cell_angle_beta   90.21865268
_cell_angle_gamma   60.07596887
_symmetry_Int_Tables_number   1
_chemical_formula_structural   Al11BN12
_chemical_formula_sum   'Al33 B3 N36'
_cell_volume   755.41703755
_cell_formula_units_Z   3
loop_
 _symmetry_equiv_pos_site_id
 _symmetry_equiv_pos_as_xyz
  1  'x, y, z'
loop_
 _atom_site_type_symbol
 _atom_site_label
 _atom_site_symmetry_multiplicity
 _atom_site_fract_x
 _atom_site_fract_y
 _atom_site_fract_z
 _atom_site_occupancy
  Al  Al0  1  0.10424996  0.09934755  0.39891221  1
  Al  Al1  1  0.21533726  0.20576279  0.13848313  1
  Al  Al2  1  0.78262595  0.09088629  0.87465131  1
  Al  Al3  1  0.45135788  0.08504818  0.32753395  1
  Al  Al4  1  0.56517869  0.20069797  0.13088578  1
  Al  Al5  1  0.10934548  0.09786711  0.87480670  1
  Al  Al6  1  0.21071949  0.21153770  0.63869875  1
  Al  Al7  1  0.78340597  0.09766003  0.39937812  1
  Al  Al8  1  0.88914342  0.20482463  0.13493874  1
  Al  Al9  1  0.44607925  0.08618149  0.82239471  1
  Al  Al10  1  0.56907314  0.20462830  0.63484933  1
  Al  Al11  1  0.11302258  0.42601281  0.38769496  1
  Al  Al12  1  0.21491600  0.54495006  0.13814141  1
  Al  Al13  1  0.77808501  0.42792835  0.87731446  1
  Al  Al14  1  0.89255437  0.53330704  0.64064843  1
  Al  Al15  1  0.45009402  0.43101279  0.32603027  1
  Al  Al16  1  0.54760477  0.54768251  0.06623196  1
  Al  Al17  1  0.11091181  0.42614964  0.89449393  1
  Al  Al18  1  0.21188856  0.53989119  0.64072522  1
  Al  Al19  1  0.78663975  0.42024943  0.39454495  1
  Al  Al20  1  0.88334347  0.54091279  0.13858046  1
  Al  Al21  1  0.44521032  0.43644603  0.82422084  1
  Al  Al22  1  0.55384996  0.54052308  0.58035295  1
  Al  Al23  1  0.10359737  0.76192649  0.39839433  1
  Al  Al24  1  0.23072266  0.86891539  0.06400573  1
  Al  Al25  1  0.77753171  0.75568752  0.88106814  1
  Al  Al26  1  0.44234519  0.76196798  0.32795311  1
  Al  Al27  1  0.54710950  0.87237233  0.06645804  1
  Al  Al28  1  0.11248664  0.75622103  0.87918978  1
  Al  Al29  1  0.21339725  0.87673720  0.60005199  1
  Al  Al30  1  0.78783261  0.76045035  0.39397073  1
  Al  Al31  1  0.88850089  0.87396193  0.13822914  1
  Al  Al32  1  0.55439177  0.87417700  0.58258602  1
  B  B33  1  0.88580879  0.20633289  0.64322819  1
  B  B34  1  0.90796904  0.83101493  0.65594161  1
  B  B35  1  0.44382026  0.76137665  0.81453330  1
  N  N36  1  0.21726353  0.20400224  0.33292711  1
  N  N37  1  0.10747768  0.09794772  0.06945568  1
  N  N38  1  0.88636462  0.20690630  0.80786959  1
  N  N39  1  0.78970922  0.12006260  0.58578329  1
  N  N40  1  0.56488899  0.20150511  0.33495172  1
  N  N41  1  0.44756897  0.08727806  0.12621448  1
  N  N42  1  0.21624202  0.21157004  0.82995516  1
  N  N43  1  0.08113599  0.11313732  0.59366241  1
  N  N44  1  0.89066593  0.20563661  0.32382760  1
  N  N45  1  0.78459255  0.08974826  0.06795428  1
  N  N46  1  0.55903826  0.20473904  0.83632130  1
  N  N47  1  0.44545841  0.09398796  0.62543417  1
  N  N48  1  0.21572281  0.54534857  0.33248264  1
  N  N49  1  0.10922166  0.42781621  0.08343627  1
  N  N50  1  0.89117456  0.53667500  0.82781666  1
  N  N51  1  0.79239001  0.40816934  0.58964842  1
  N  N52  1  0.55369568  0.54383272  0.38782799  1
  N  N53  1  0.44721780  0.43137774  0.12519783  1
  N  N54  1  0.21518507  0.53769147  0.83210778  1
  N  N55  1  0.11025391  0.42703447  0.57599172  1
  N  N56  1  0.88661375  0.54098224  0.33089374  1
  N  N57  1  0.78098942  0.42429711  0.07200738  1
  N  N58  1  0.53770919  0.57009361  0.87228644  1
  N  N59  1  0.44051182  0.43513767  0.62758790  1
  N  N60  1  0.22749906  0.86821520  0.39907902  1
  N  N61  1  0.10719576  0.76160106  0.07217316  1
  N  N62  1  0.88910154  0.86569127  0.80768342  1
  N  N63  1  0.79832740  0.76701963  0.59198476  1
  N  N64  1  0.55558724  0.86849325  0.39059732  1
  N  N65  1  0.44240806  0.76251772  0.13794169  1
  N  N66  1  0.24676710  0.85926562  0.86136632  1
  N  N67  1  0.08072083  0.76778086  0.59569904  1
  N  N68  1  0.88783436  0.87707871  0.32870093  1
  N  N69  1  0.78126614  0.76045937  0.07422512  1
  N  N70  1  0.53819290  0.86019164  0.87190651  1
  N  N71  1  0.44629077  0.76124200  0.65364041  1
