# generated using pymatgen
data_Al11BN12
_symmetry_space_group_name_H-M   'P 1'
_cell_length_a   9.29839453
_cell_length_b   9.27963673
_cell_length_c   9.96759785
_cell_angle_alpha   90.07861104
_cell_angle_beta   90.32856142
_cell_angle_gamma   59.92951365
_symmetry_Int_Tables_number   1
_chemical_formula_structural   Al11BN12
_chemical_formula_sum   'Al33 B3 N36'
_cell_volume   744.29205938
_cell_formula_units_Z   3
loop_
 _symmetry_equiv_pos_site_id
 _symmetry_equiv_pos_as_xyz
  1  'x, y, z'
loop_
 _atom_site_type_symbol
 _atom_site_label
 _atom_site_symmetry_multiplicity
 _atom_site_fract_x
 _atom_site_fract_y
 _atom_site_fract_z
 _atom_site_occupancy
  Al  Al0  1  0.11226665  0.09257049  0.31596687  1
  Al  Al1  1  0.21828938  0.20660795  0.06176035  1
  Al  Al2  1  0.78268739  0.08955906  0.80142556  1
  Al  Al3  1  0.44773230  0.09152436  0.31174094  1
  Al  Al4  1  0.55827895  0.20346941  0.06211078  1
  Al  Al5  1  0.10858261  0.09381665  0.80756481  1
  Al  Al6  1  0.21649007  0.20713431  0.55960279  1
  Al  Al7  1  0.78150482  0.09469472  0.32213746  1
  Al  Al8  1  0.88649095  0.20614713  0.06326624  1
  Al  Al9  1  0.44168597  0.09089000  0.81174070  1
  Al  Al10  1  0.56184490  0.20261607  0.56161263  1
  Al  Al11  1  0.12071180  0.42430865  0.31386087  1
  Al  Al12  1  0.21992120  0.54041401  0.06120829  1
  Al  Al13  1  0.77169061  0.42310110  0.80745116  1
  Al  Al14  1  0.88780043  0.54440587  0.62326335  1
  Al  Al15  1  0.44742719  0.42825024  0.31045233  1
  Al  Al16  1  0.55426041  0.54250247  0.05812347  1
  Al  Al17  1  0.11633529  0.42432808  0.81109162  1
  Al  Al18  1  0.21819295  0.54293055  0.55939946  1
  Al  Al19  1  0.77727337  0.42377313  0.33320694  1
  Al  Al20  1  0.88032426  0.54616485  0.13457024  1
  Al  Al21  1  0.44173290  0.43219371  0.81227120  1
  Al  Al22  1  0.55531642  0.53628934  0.56917828  1
  Al  Al23  1  0.11461483  0.76282068  0.31496603  1
  Al  Al24  1  0.22395598  0.87027210  0.05685607  1
  Al  Al25  1  0.77450391  0.75539803  0.87268294  1
  Al  Al26  1  0.44701515  0.76071180  0.31435097  1
  Al  Al27  1  0.54296565  0.87346524  0.05871636  1
  Al  Al28  1  0.10864434  0.76256275  0.80553624  1
  Al  Al29  1  0.21444251  0.87678386  0.56613834  1
  Al  Al30  1  0.78452031  0.76185212  0.38993130  1
  Al  Al31  1  0.89011056  0.87645105  0.06210510  1
  Al  Al32  1  0.55284021  0.87602207  0.57411656  1
  B  B33  1  0.89598673  0.19646398  0.55603528  1
  B  B34  1  0.89994347  0.87907082  0.55436893  1
  B  B35  1  0.44163056  0.76278031  0.80745190  1
  N  N36  1  0.22504468  0.20335862  0.37034138  1
  N  N37  1  0.10959240  0.09273748  0.12288048  1
  N  N38  1  0.88694333  0.20334129  0.87309667  1
  N  N39  1  0.80219026  0.08218577  0.60700589  1
  N  N40  1  0.55643957  0.20569301  0.37141425  1
  N  N41  1  0.44346730  0.09402171  0.11961105  1
  N  N42  1  0.21971699  0.20414350  0.87092718  1
  N  N43  1  0.08644609  0.10720496  0.61482782  1
  N  N44  1  0.89487033  0.20151417  0.39399007  1
  N  N45  1  0.77904406  0.09348697  0.13018353  1
  N  N46  1  0.55900777  0.20227199  0.86846199  1
  N  N47  1  0.44102851  0.09862252  0.62275794  1
  N  N48  1  0.22614556  0.53942895  0.37019259  1
  N  N49  1  0.11299806  0.42710616  0.12065311  1
  N  N50  1  0.88517942  0.53884721  0.81903631  1
  N  N51  1  0.78760928  0.39887908  0.61074894  1
  N  N52  1  0.55307633  0.54147517  0.37913790  1
  N  N53  1  0.44464543  0.42844738  0.11805760  1
  N  N54  1  0.21977385  0.54127701  0.87045156  1
  N  N55  1  0.11776447  0.42535638  0.61772037  1
  N  N56  1  0.88942264  0.54399320  0.33393898  1
  N  N57  1  0.77177278  0.42376389  0.12800842  1
  N  N58  1  0.54315080  0.56254305  0.86311037  1
  N  N59  1  0.44188755  0.42764716  0.62274825  1
  N  N60  1  0.22764921  0.87085799  0.37641065  1
  N  N61  1  0.11046525  0.76276883  0.12336089  1
  N  N62  1  0.89104159  0.87495719  0.87090412  1
  N  N63  1  0.79063742  0.77680181  0.58433901  1
  N  N64  1  0.55290685  0.87314798  0.37817294  1
  N  N65  1  0.44156363  0.76042827  0.12530538  1
  N  N66  1  0.24268887  0.86054904  0.86023441  1
  N  N67  1  0.08767829  0.77378827  0.61344724  1
  N  N68  1  0.90035930  0.87735346  0.39046071  1
  N  N69  1  0.77363322  0.76083924  0.07208062  1
  N  N70  1  0.53512685  0.86162160  0.86240263  1
  N  N71  1  0.44278004  0.76131010  0.64260033  1
