# generated using pymatgen
data_Al11BN12
_symmetry_space_group_name_H-M   'P 1'
_cell_length_a   9.30758085
_cell_length_b   9.35492450
_cell_length_c   9.93490310
_cell_angle_alpha   90.32372339
_cell_angle_beta   90.08035341
_cell_angle_gamma   60.09311162
_symmetry_Int_Tables_number   1
_chemical_formula_structural   Al11BN12
_chemical_formula_sum   'Al33 B3 N36'
_cell_volume   749.84340505
_cell_formula_units_Z   3
loop_
 _symmetry_equiv_pos_site_id
 _symmetry_equiv_pos_as_xyz
  1  'x, y, z'
loop_
 _atom_site_type_symbol
 _atom_site_label
 _atom_site_symmetry_multiplicity
 _atom_site_fract_x
 _atom_site_fract_y
 _atom_site_fract_z
 _atom_site_occupancy
  Al  Al0  1  0.10425225  0.09942329  0.39632176  1
  Al  Al1  1  0.22218318  0.20263744  0.13703361  1
  Al  Al2  1  0.78091102  0.09149253  0.87174541  1
  Al  Al3  1  0.44470619  0.09700814  0.39050941  1
  Al  Al4  1  0.55916282  0.20338087  0.13528147  1
  Al  Al5  1  0.10960659  0.09758942  0.87191612  1
  Al  Al6  1  0.21616602  0.20974190  0.63834903  1
  Al  Al7  1  0.78151896  0.09931212  0.39701712  1
  Al  Al8  1  0.88956018  0.20403887  0.13293904  1
  Al  Al9  1  0.44038841  0.09605823  0.88038796  1
  Al  Al10  1  0.56297797  0.20948040  0.63819085  1
  Al  Al11  1  0.11242213  0.42581020  0.38483252  1
  Al  Al12  1  0.22165323  0.54130847  0.13800766  1
  Al  Al13  1  0.77638225  0.42900583  0.87525486  1
  Al  Al14  1  0.89512630  0.53187481  0.63913440  1
  Al  Al15  1  0.44306133  0.42727223  0.38961309  1
  Al  Al16  1  0.55258545  0.54627916  0.07732900  1
  Al  Al17  1  0.11072265  0.42619827  0.89271196  1
  Al  Al18  1  0.21755831  0.53596108  0.64019486  1
  Al  Al19  1  0.78440920  0.42150912  0.39310657  1
  Al  Al20  1  0.88675283  0.53965321  0.13774106  1
  Al  Al21  1  0.44137513  0.43025794  0.88284638  1
  Al  Al22  1  0.55636003  0.54038148  0.59410562  1
  Al  Al23  1  0.10346058  0.76146082  0.39592684  1
  Al  Al24  1  0.22988949  0.86949563  0.06260973  1
  Al  Al25  1  0.77727293  0.75534653  0.87888207  1
  Al  Al26  1  0.44310599  0.76177995  0.32896539  1
  Al  Al27  1  0.55057239  0.86817763  0.06840660  1
  Al  Al28  1  0.11419396  0.75483884  0.87723005  1
  Al  Al29  1  0.21112197  0.87822111  0.59810257  1
  Al  Al30  1  0.78702633  0.76049394  0.39256645  1
  Al  Al31  1  0.88847595  0.87472223  0.13646208  1
  Al  Al32  1  0.55696057  0.87330447  0.58903010  1
  B  B33  1  0.88426518  0.20789071  0.64205468  1
  B  B34  1  0.91070771  0.82647439  0.65619908  1
  B  B35  1  0.44403066  0.76126944  0.81215464  1
  N  N36  1  0.22295370  0.20090076  0.32954787  1
  N  N37  1  0.10833359  0.09851299  0.06834723  1
  N  N38  1  0.88618959  0.20689502  0.80737880  1
  N  N39  1  0.78430870  0.12618178  0.58429965  1
  N  N40  1  0.55806156  0.20457367  0.32874547  1
  N  N41  1  0.44316103  0.09732687  0.07636125  1
  N  N42  1  0.22015340  0.20965879  0.82688899  1
  N  N43  1  0.08117502  0.11458959  0.59274141  1
  N  N44  1  0.89097789  0.20559477  0.32258016  1
  N  N45  1  0.78100449  0.09148014  0.06716697  1
  N  N46  1  0.55548683  0.20585764  0.82801175  1
  N  N47  1  0.44159607  0.10392497  0.58533580  1
  N  N48  1  0.22031120  0.54235657  0.32979966  1
  N  N49  1  0.11141454  0.42686546  0.08304893  1
  N  N50  1  0.89277384  0.53558494  0.82740450  1
  N  N51  1  0.79204891  0.40942502  0.59005353  1
  N  N52  1  0.55650421  0.54243101  0.37888623  1
  N  N53  1  0.44328483  0.42588168  0.07808751  1
  N  N54  1  0.22049683  0.53431368  0.82871925  1
  N  N55  1  0.11147403  0.42613388  0.57466937  1
  N  N56  1  0.88797448  0.54012919  0.33055900  1
  N  N57  1  0.78235327  0.42439333  0.07186872  1
  N  N58  1  0.53984906  0.56709283  0.86192813  1
  N  N59  1  0.43523064  0.43171566  0.58372694  1
  N  N60  1  0.22635488  0.86845952  0.39711836  1
  N  N61  1  0.10848802  0.75989918  0.07192415  1
  N  N62  1  0.89060659  0.86462841  0.80764093  1
  N  N63  1  0.79922090  0.76608779  0.59282416  1
  N  N64  1  0.55785002  0.86598784  0.38915504  1
  N  N65  1  0.44082008  0.76445502  0.13726862  1
  N  N66  1  0.24708919  0.85879388  0.86011780  1
  N  N67  1  0.08183103  0.76555636  0.59504121  1
  N  N68  1  0.88737343  0.87752065  0.32805572  1
  N  N69  1  0.78215554  0.75951147  0.07413854  1
  N  N70  1  0.54022676  0.85829591  0.86667716  1
  N  N71  1  0.44255063  0.76504623  0.65145550  1
