# generated using pymatgen
data_Al11BN12
_symmetry_space_group_name_H-M   'P 1'
_cell_length_a   9.25020704
_cell_length_b   9.30191780
_cell_length_c   9.91237084
_cell_angle_alpha   90.24723160
_cell_angle_beta   89.82184344
_cell_angle_gamma   60.07229641
_symmetry_Int_Tables_number   1
_chemical_formula_structural   Al11BN12
_chemical_formula_sum   'Al33 B3 N36'
_cell_volume   739.15581932
_cell_formula_units_Z   3
loop_
 _symmetry_equiv_pos_site_id
 _symmetry_equiv_pos_as_xyz
  1  'x, y, z'
loop_
 _atom_site_type_symbol
 _atom_site_label
 _atom_site_symmetry_multiplicity
 _atom_site_fract_x
 _atom_site_fract_y
 _atom_site_fract_z
 _atom_site_occupancy
  Al  Al0  1  0.10414685  0.09793512  0.39979297  1
  Al  Al1  1  0.22169265  0.20349580  0.14514950  1
  Al  Al2  1  0.78085879  0.09120123  0.87868195  1
  Al  Al3  1  0.44577337  0.09470000  0.39564546  1
  Al  Al4  1  0.55908060  0.20399585  0.14305493  1
  Al  Al5  1  0.11380950  0.09151708  0.88655192  1
  Al  Al6  1  0.21811477  0.20642129  0.64527934  1
  Al  Al7  1  0.78120934  0.09867165  0.40424203  1
  Al  Al8  1  0.88871708  0.20458524  0.14046418  1
  Al  Al9  1  0.44266704  0.09046455  0.89571783  1
  Al  Al10  1  0.56198778  0.20817473  0.64446824  1
  Al  Al11  1  0.11074534  0.42746058  0.39418201  1
  Al  Al12  1  0.22156125  0.54079928  0.14551077  1
  Al  Al13  1  0.77379012  0.43064210  0.88926405  1
  Al  Al14  1  0.89259549  0.53339486  0.64677326  1
  Al  Al15  1  0.44426734  0.42911646  0.39528250  1
  Al  Al16  1  0.55576483  0.54074055  0.14284658  1
  Al  Al17  1  0.11114246  0.42642150  0.89826054  1
  Al  Al18  1  0.21888503  0.53788475  0.64709932  1
  Al  Al19  1  0.77899309  0.42393197  0.39983422  1
  Al  Al20  1  0.88652326  0.53960444  0.14608338  1
  Al  Al21  1  0.44362602  0.43236311  0.89591480  1
  Al  Al22  1  0.55503091  0.54160283  0.64596825  1
  Al  Al23  1  0.10316278  0.76477593  0.39990807  1
  Al  Al24  1  0.22324685  0.87209505  0.13957836  1
  Al  Al25  1  0.77275695  0.75758490  0.89292311  1
  Al  Al26  1  0.44456478  0.76153807  0.39260795  1
  Al  Al27  1  0.55567665  0.87076318  0.14393405  1
  Al  Al28  1  0.11765504  0.75807891  0.89008125  1
  Al  Al29  1  0.21427893  0.87635159  0.64303435  1
  Al  Al30  1  0.78055296  0.76536151  0.39983483  1
  Al  Al31  1  0.88816435  0.87486644  0.14371849  1
  Al  Al32  1  0.55610640  0.87323845  0.64763598  1
  B  B33  1  0.88569631  0.20396481  0.64873532  1
  B  B34  1  0.90722611  0.83525792  0.66029351  1
  B  B35  1  0.44333836  0.76114866  0.88255071  1
  N  N36  1  0.22159854  0.20355968  0.33784777  1
  N  N37  1  0.11068663  0.09374601  0.07886583  1
  N  N38  1  0.88845426  0.20654409  0.81469680  1
  N  N39  1  0.78778689  0.11787537  0.59374448  1
  N  N40  1  0.55801681  0.20563852  0.33697478  1
  N  N41  1  0.44560630  0.09321730  0.08670121  1
  N  N42  1  0.22229595  0.20642699  0.83534291  1
  N  N43  1  0.08575188  0.10702963  0.59458794  1
  N  N44  1  0.88839002  0.20738930  0.33038369  1
  N  N45  1  0.78091997  0.09166156  0.07390780  1
  N  N46  1  0.55354631  0.20601679  0.83553685  1
  N  N47  1  0.44659309  0.09458116  0.58789823  1
  N  N48  1  0.21969421  0.54268375  0.33793084  1
  N  N49  1  0.11120215  0.42689142  0.08941677  1
  N  N50  1  0.89045095  0.53702382  0.83612085  1
  N  N51  1  0.78614711  0.41126177  0.59430657  1
  N  N52  1  0.55733009  0.53857181  0.33610506  1
  N  N53  1  0.44527848  0.42721552  0.08665788  1
  N  N54  1  0.22240417  0.53614439  0.83677484  1
  N  N55  1  0.11217540  0.42573815  0.58465214  1
  N  N56  1  0.88559700  0.54199998  0.34009044  1
  N  N57  1  0.77869709  0.42588633  0.08100477  1
  N  N58  1  0.54067268  0.56668263  0.83974734  1
  N  N59  1  0.44018637  0.43375818  0.58726398  1
  N  N60  1  0.21838478  0.87367719  0.34136845  1
  N  N61  1  0.11007794  0.76145425  0.08118991  1
  N  N62  1  0.89165762  0.86355330  0.81497123  1
  N  N63  1  0.79310769  0.77071539  0.59755731  1
  N  N64  1  0.55854464  0.87177437  0.33782984  1
  N  N65  1  0.44531011  0.76064573  0.07869323  1
  N  N66  1  0.24814931  0.85844215  0.83657836  1
  N  N67  1  0.08433795  0.76905661  0.59738084  1
  N  N68  1  0.88559991  0.87843848  0.33520047  1
  N  N69  1  0.77934481  0.76122817  0.08351916  1
  N  N70  1  0.54146739  0.85868043  0.84025891  1
  N  N71  1  0.44387136  0.76328042  0.58229533  1
