# generated using pymatgen
data_Al11BN12
_symmetry_space_group_name_H-M   'P 1'
_cell_length_a   9.26206722
_cell_length_b   9.26897997
_cell_length_c   10.12323740
_cell_angle_alpha   90.00775041
_cell_angle_beta   90.48682645
_cell_angle_gamma   59.95670900
_symmetry_Int_Tables_number   1
_chemical_formula_structural   Al11BN12
_chemical_formula_sum   'Al33 B3 N36'
_cell_volume   752.28034653
_cell_formula_units_Z   3
loop_
 _symmetry_equiv_pos_site_id
 _symmetry_equiv_pos_as_xyz
  1  'x, y, z'
loop_
 _atom_site_type_symbol
 _atom_site_label
 _atom_site_symmetry_multiplicity
 _atom_site_fract_x
 _atom_site_fract_y
 _atom_site_fract_z
 _atom_site_occupancy
  Al  Al0  1  0.12072075  0.08819288  0.31995769  1
  Al  Al1  1  0.22087013  0.20644981  0.07168004  1
  Al  Al2  1  0.77667545  0.09500809  0.86754408  1
  Al  Al3  1  0.45197997  0.09031351  0.32441760  1
  Al  Al4  1  0.55362441  0.20650715  0.06738694  1
  Al  Al5  1  0.11634573  0.09069896  0.81781542  1
  Al  Al6  1  0.21441038  0.20763307  0.56947930  1
  Al  Al7  1  0.79425427  0.08620719  0.40199027  1
  Al  Al8  1  0.88210652  0.20723612  0.13808031  1
  Al  Al9  1  0.43852471  0.09130554  0.82040131  1
  Al  Al10  1  0.55562318  0.20550074  0.58019150  1
  Al  Al11  1  0.11858130  0.42405003  0.32183067  1
  Al  Al12  1  0.22087401  0.53934242  0.07168182  1
  Al  Al13  1  0.77623687  0.43132682  0.88208310  1
  Al  Al14  1  0.88442576  0.54111978  0.64089002  1
  Al  Al15  1  0.45198217  0.42436741  0.32442013  1
  Al  Al16  1  0.54636480  0.54685365  0.06744170  1
  Al  Al17  1  0.11665046  0.42502159  0.82093361  1
  Al  Al18  1  0.21440759  0.54460658  0.56948038  1
  Al  Al19  1  0.78921910  0.41653206  0.39963386  1
  Al  Al20  1  0.87857929  0.54404159  0.14087911  1
  Al  Al21  1  0.43852383  0.43683956  0.82040025  1
  Al  Al22  1  0.55249194  0.53882759  0.58335280  1
  Al  Al23  1  0.12072155  0.75776326  0.31996023  1
  Al  Al24  1  0.22621623  0.87022299  0.06585335  1
  Al  Al25  1  0.77623263  0.75913440  0.88208373  1
  Al  Al26  1  0.45033667  0.75816256  0.32641529  1
  Al  Al27  1  0.54635958  0.87342284  0.06744104  1
  Al  Al28  1  0.11633703  0.75964886  0.81781238  1
  Al  Al29  1  0.20990401  0.87837029  0.57609732  1
  Al  Al30  1  0.78921868  0.76092327  0.39963361  1
  Al  Al31  1  0.88210825  0.87731346  0.13808115  1
  Al  Al32  1  0.55249627  0.87531422  0.58334654  1
  B  B33  1  0.89016710  0.20345302  0.65178203  1
  B  B34  1  0.89015548  0.87308498  0.65177424  1
  B  B35  1  0.44188092  0.76238755  0.81874367  1
  N  N36  1  0.22521228  0.20344115  0.38220163  1
  N  N37  1  0.11856282  0.08883796  0.12892415  1
  N  N38  1  0.87794883  0.21366838  0.81060711  1
  N  N39  1  0.80259765  0.08202309  0.59885581  1
  N  N40  1  0.55771281  0.20445803  0.38926509  1
  N  N41  1  0.44820869  0.09241220  0.13326352  1
  N  N42  1  0.21802081  0.20652020  0.88403966  1
  N  N43  1  0.09189256  0.10472645  0.62901444  1
  N  N44  1  0.88584074  0.20562081  0.32719115  1
  N  N45  1  0.78704369  0.08982071  0.06673392  1
  N  N46  1  0.54249195  0.21207295  0.87671458  1
  N  N47  1  0.43892838  0.09688685  0.63487332  1
  N  N48  1  0.22521516  0.53798976  0.38220264  1
  N  N49  1  0.11457728  0.42607377  0.13250890  1
  N  N50  1  0.88324833  0.54169342  0.82721240  1
  N  N51  1  0.79529743  0.39716317  0.59046161  1
  N  N52  1  0.55368401  0.54104568  0.39211191  1
  N  N53  1  0.44821308  0.42607229  0.13326497  1
  N  N54  1  0.21802083  0.54212244  0.88404111  1
  N  N55  1  0.11656269  0.42507049  0.63036926  1
  N  N56  1  0.88230662  0.54215573  0.33481308  1
  N  N57  1  0.78155287  0.42442620  0.07209178  1
  N  N58  1  0.53445030  0.56953187  0.87400297  1
  N  N59  1  0.43893036  0.43087113  0.63487069  1
  N  N60  1  0.22587506  0.87038625  0.38805759  1
  N  N61  1  0.11856640  0.75931961  0.12892744  1
  N  N62  1  0.87794780  0.87502349  0.81060485  1
  N  N63  1  0.79529646  0.77421801  0.59045200  1
  N  N64  1  0.55368453  0.87190214  0.39210813  1
  N  N65  1  0.44634123  0.76017671  0.13858478  1
  N  N66  1  0.24161689  0.86252026  0.87375038  1
  N  N67  1  0.09189208  0.77008078  0.62901258  1
  N  N68  1  0.88584229  0.87515050  0.32718980  1
  N  N69  1  0.78154728  0.76071322  0.07209193  1
  N  N70  1  0.53444549  0.86266119  0.87401071  1
  N  N71  1  0.44141829  0.76263344  0.65455751  1
