# generated using pymatgen
data_Al11BN12
_symmetry_space_group_name_H-M   'P 1'
_cell_length_a   9.25919448
_cell_length_b   9.25703450
_cell_length_c   9.89670049
_cell_angle_alpha   90.00003833
_cell_angle_beta   90.07519058
_cell_angle_gamma   60.00767867
_symmetry_Int_Tables_number   1
_chemical_formula_structural   Al11BN12
_chemical_formula_sum   'Al33 B3 N36'
_cell_volume   734.68174274
_cell_formula_units_Z   3
loop_
 _symmetry_equiv_pos_site_id
 _symmetry_equiv_pos_as_xyz
  1  'x, y, z'
loop_
 _atom_site_type_symbol
 _atom_site_label
 _atom_site_symmetry_multiplicity
 _atom_site_fract_x
 _atom_site_fract_y
 _atom_site_fract_z
 _atom_site_occupancy
  Al  Al0  1  0.11062159  0.09316745  0.30355590  1
  Al  Al1  1  0.22137351  0.20454457  0.04817743  1
  Al  Al2  1  0.78283376  0.09191667  0.78888686  1
  Al  Al3  1  0.44524910  0.09306153  0.29786476  1
  Al  Al4  1  0.55953805  0.20356436  0.04871218  1
  Al  Al5  1  0.10955361  0.09405824  0.79388965  1
  Al  Al6  1  0.21645246  0.20753463  0.54704617  1
  Al  Al7  1  0.78065377  0.09300655  0.31234358  1
  Al  Al8  1  0.88828045  0.20415748  0.05032591  1
  Al  Al9  1  0.44262805  0.09090625  0.79802631  1
  Al  Al10  1  0.56083816  0.20291430  0.54854172  1
  Al  Al11  1  0.11082824  0.42791897  0.29706609  1
  Al  Al12  1  0.22137368  0.54074811  0.04817748  1
  Al  Al13  1  0.77669761  0.42675767  0.79391727  1
  Al  Al14  1  0.89032981  0.53816805  0.54837870  1
  Al  Al15  1  0.44524914  0.42835602  0.29786485  1
  Al  Al16  1  0.55474120  0.54319985  0.04392152  1
  Al  Al17  1  0.11021672  0.42822489  0.79820039  1
  Al  Al18  1  0.21645225  0.54267981  0.54704605  1
  Al  Al19  1  0.77796853  0.42562899  0.30524324  1
  Al  Al20  1  0.88686507  0.53990049  0.04862376  1
  Al  Al21  1  0.44262795  0.43313291  0.79802619  1
  Al  Al22  1  0.55784175  0.53542322  0.55359474  1
  Al  Al23  1  0.11062168  0.76287746  0.30355588  1
  Al  Al24  1  0.22597907  0.87034343  0.04366329  1
  Al  Al25  1  0.77669745  0.76321118  0.79391735  1
  Al  Al26  1  0.44497099  0.76084804  0.29977329  1
  Al  Al27  1  0.55474139  0.86872541  0.04392153  1
  Al  Al28  1  0.10955340  0.76305494  0.79388961  1
  Al  Al29  1  0.21417734  0.87624490  0.55379645  1
  Al  Al30  1  0.77796876  0.76306889  0.30524317  1
  Al  Al31  1  0.88828035  0.87422901  0.05032585  1
  Al  Al32  1  0.55784206  0.87340168  0.55359477  1
  B  B33  1  0.89506208  0.19848322  0.54242380  1
  B  B34  1  0.89506226  0.87312130  0.54242374  1
  B  B35  1  0.44581877  0.76042398  0.79275724  1
  N  N36  1  0.22244036  0.20565372  0.35615727  1
  N  N37  1  0.11087037  0.09238297  0.10975712  1
  N  N38  1  0.88782443  0.20455408  0.85980155  1
  N  N39  1  0.79991409  0.08337639  0.59370540  1
  N  N40  1  0.55435515  0.20615565  0.35787575  1
  N  N41  1  0.44598191  0.09224943  0.10441565  1
  N  N42  1  0.22012941  0.20502073  0.85632297  1
  N  N43  1  0.08565547  0.10744099  0.60048112  1
  N  N44  1  0.89130720  0.20462674  0.37897659  1
  N  N45  1  0.77992187  0.09337260  0.11795929  1
  N  N46  1  0.55906024  0.20380348  0.85431680  1
  N  N47  1  0.44132892  0.09673244  0.60759116  1
  N  N48  1  0.22244026  0.53857230  0.35615715  1
  N  N49  1  0.11062021  0.42802315  0.10569726  1
  N  N50  1  0.88618714  0.54023958  0.85481093  1
  N  N51  1  0.78984877  0.40156223  0.60098207  1
  N  N52  1  0.55461536  0.54017521  0.36195146  1
  N  N53  1  0.44598188  0.42843546  0.10441580  1
  N  N54  1  0.22012936  0.54151643  0.85632296  1
  N  N55  1  0.11055320  0.42805682  0.60778382  1
  N  N56  1  0.88929154  0.53868743  0.35808638  1
  N  N57  1  0.77687152  0.42674466  0.11047424  1
  N  N58  1  0.54501187  0.56301053  0.84824171  1
  N  N59  1  0.44132876  0.42860566  0.60759107  1
  N  N60  1  0.22508642  0.87079005  0.36301674  1
  N  N61  1  0.11087031  0.76341311  0.10975709  1
  N  N62  1  0.88782414  0.87428841  0.85980143  1
  N  N63  1  0.78984894  0.77525532  0.60098209  1
  N  N64  1  0.55461557  0.87187603  0.36195144  1
  N  N65  1  0.44427278  0.76119697  0.10976346  1
  N  N66  1  0.24485219  0.86090720  0.84600584  1
  N  N67  1  0.08565555  0.77357041  0.60048104  1
  N  N68  1  0.89130727  0.87073268  0.37897653  1
  N  N69  1  0.77687176  0.76305035  0.11047408  1
  N  N70  1  0.54501180  0.85864429  0.84824171  1
  N  N71  1  0.44472881  0.76096903  0.62712577  1
