# generated using pymatgen
data_Al11BN12
_symmetry_space_group_name_H-M   'P 1'
_cell_length_a   9.26694561
_cell_length_b   9.32495042
_cell_length_c   9.97434169
_cell_angle_alpha   90.24110936
_cell_angle_beta   89.66790573
_cell_angle_gamma   60.05810066
_symmetry_Int_Tables_number   1
_chemical_formula_structural   Al11BN12
_chemical_formula_sum   'Al33 B3 N36'
_cell_volume   746.84435842
_cell_formula_units_Z   3
loop_
 _symmetry_equiv_pos_site_id
 _symmetry_equiv_pos_as_xyz
  1  'x, y, z'
loop_
 _atom_site_type_symbol
 _atom_site_label
 _atom_site_symmetry_multiplicity
 _atom_site_fract_x
 _atom_site_fract_y
 _atom_site_fract_z
 _atom_site_occupancy
  Al  Al0  1  0.10093532  0.10349381  0.40162597  1
  Al  Al1  1  0.22144118  0.20288048  0.14488160  1
  Al  Al2  1  0.78034902  0.09150905  0.87915979  1
  Al  Al3  1  0.44560169  0.09596108  0.39800202  1
  Al  Al4  1  0.55877337  0.20415602  0.14312212  1
  Al  Al5  1  0.11053676  0.09734949  0.87938837  1
  Al  Al6  1  0.21801370  0.20797450  0.64572823  1
  Al  Al7  1  0.78102964  0.09917926  0.40388480  1
  Al  Al8  1  0.89036398  0.20321113  0.14001402  1
  Al  Al9  1  0.44306905  0.08991442  0.89544038  1
  Al  Al10  1  0.56254945  0.20833741  0.64514844  1
  Al  Al11  1  0.11063905  0.42725434  0.39376510  1
  Al  Al12  1  0.22144656  0.54183945  0.14511838  1
  Al  Al13  1  0.77285929  0.43169851  0.88962629  1
  Al  Al14  1  0.89276173  0.53301516  0.64743246  1
  Al  Al15  1  0.44409075  0.42761903  0.39745323  1
  Al  Al16  1  0.55923234  0.53357107  0.14909542  1
  Al  Al17  1  0.11140775  0.42607703  0.89901310  1
  Al  Al18  1  0.21905265  0.53648632  0.64731663  1
  Al  Al19  1  0.77993933  0.42336380  0.40181307  1
  Al  Al20  1  0.88662594  0.53959194  0.14652992  1
  Al  Al21  1  0.44411671  0.43254563  0.89547640  1
  Al  Al22  1  0.55701822  0.53720111  0.64350197  1
  Al  Al23  1  0.09993783  0.76135941  0.40132659  1
  Al  Al24  1  0.23614766  0.86643437  0.07072758  1
  Al  Al25  1  0.77164808  0.75716458  0.89382076  1
  Al  Al26  1  0.43788721  0.76415757  0.34537867  1
  Al  Al27  1  0.55933438  0.87473896  0.15063160  1
  Al  Al28  1  0.11449253  0.75469574  0.88403675  1
  Al  Al29  1  0.21126320  0.87805367  0.59432405  1
  Al  Al30  1  0.78134942  0.76479182  0.40196436  1
  Al  Al31  1  0.89015606  0.87480681  0.14361898  1
  Al  Al32  1  0.55802890  0.87590941  0.64606485  1
  B  B33  1  0.88487117  0.20656748  0.64859727  1
  B  B34  1  0.90760403  0.83067476  0.66209945  1
  B  B35  1  0.44318380  0.76114485  0.82637003  1
  N  N36  1  0.22199931  0.20290895  0.33689782  1
  N  N37  1  0.10926793  0.09750285  0.07411634  1
  N  N38  1  0.88555751  0.20835411  0.81461406  1
  N  N39  1  0.78654903  0.12151663  0.59215441  1
  N  N40  1  0.55763260  0.20554742  0.33613362  1
  N  N41  1  0.44570323  0.09279292  0.08607186  1
  N  N42  1  0.22361491  0.20747661  0.83428035  1
  N  N43  1  0.08099092  0.11521658  0.59865998  1
  N  N44  1  0.88894810  0.20731785  0.32920156  1
  N  N45  1  0.78106384  0.09157695  0.07401604  1
  N  N46  1  0.55384159  0.20584926  0.83576731  1
  N  N47  1  0.44579851  0.09689820  0.58844675  1
  N  N48  1  0.22012920  0.54210209  0.33670805  1
  N  N49  1  0.11161211  0.42685355  0.08936495  1
  N  N50  1  0.89094679  0.53676676  0.83650087  1
  N  N51  1  0.78722069  0.41169288  0.59452996  1
  N  N52  1  0.56069611  0.53144728  0.34270494  1
  N  N53  1  0.44541111  0.42757396  0.08581181  1
  N  N54  1  0.22364151  0.53358233  0.83561555  1
  N  N55  1  0.11190808  0.42606330  0.58354432  1
  N  N56  1  0.88564875  0.54194877  0.33981502  1
  N  N57  1  0.77829645  0.42629775  0.08106167  1
  N  N58  1  0.54243820  0.56409763  0.83793580  1
  N  N59  1  0.43915899  0.43269954  0.58751898  1
  N  N60  1  0.21669474  0.87355488  0.39665364  1
  N  N61  1  0.10941200  0.76005384  0.07711483  1
  N  N62  1  0.88927888  0.86391608  0.81504847  1
  N  N63  1  0.79389557  0.76949306  0.59817133  1
  N  N64  1  0.56152834  0.87478352  0.34524446  1
  N  N65  1  0.44048134  0.76347447  0.14516201  1
  N  N66  1  0.25427932  0.85535600  0.86652304  1
  N  N67  1  0.08111509  0.76579492  0.60081842  1
  N  N68  1  0.88572180  0.87807487  0.33447559  1
  N  N69  1  0.77918068  0.76141736  0.08386362  1
  N  N70  1  0.54333788  0.85957515  0.83900389  1
  N  N71  1  0.44212811  0.76426304  0.61853615  1
