# generated using pymatgen
data_Al11BN12
_symmetry_space_group_name_H-M   'P 1'
_cell_length_a   9.30074532
_cell_length_b   9.29630009
_cell_length_c   9.88445036
_cell_angle_alpha   90.19581519
_cell_angle_beta   90.22339939
_cell_angle_gamma   59.88519306
_symmetry_Int_Tables_number   1
_chemical_formula_structural   Al11BN12
_chemical_formula_sum   'Al33 B3 N36'
_cell_volume   739.27077223
_cell_formula_units_Z   3
loop_
 _symmetry_equiv_pos_site_id
 _symmetry_equiv_pos_as_xyz
  1  'x, y, z'
loop_
 _atom_site_type_symbol
 _atom_site_label
 _atom_site_symmetry_multiplicity
 _atom_site_fract_x
 _atom_site_fract_y
 _atom_site_fract_z
 _atom_site_occupancy
  Al  Al0  1  0.11180015  0.09217137  0.31743195  1
  Al  Al1  1  0.21975248  0.20577827  0.06303318  1
  Al  Al2  1  0.78252464  0.09201787  0.80371377  1
  Al  Al3  1  0.44760256  0.09060393  0.31093448  1
  Al  Al4  1  0.55904559  0.20338653  0.06289455  1
  Al  Al5  1  0.10873187  0.09506185  0.80857832  1
  Al  Al6  1  0.21827005  0.20528651  0.56051602  1
  Al  Al7  1  0.78111979  0.09327362  0.32368810  1
  Al  Al8  1  0.88793008  0.20471625  0.06493200  1
  Al  Al9  1  0.44077280  0.09263880  0.81368197  1
  Al  Al10  1  0.56097352  0.20195740  0.56301331  1
  Al  Al11  1  0.11974234  0.42336389  0.31849627  1
  Al  Al12  1  0.22021217  0.54115650  0.06242144  1
  Al  Al13  1  0.77331982  0.42439778  0.80773889  1
  Al  Al14  1  0.89016098  0.53538015  0.60042801  1
  Al  Al15  1  0.44646541  0.42770131  0.31128743  1
  Al  Al16  1  0.55435213  0.54344431  0.05875226  1
  Al  Al17  1  0.11263106  0.42717769  0.81024145  1
  Al  Al18  1  0.21787127  0.54396941  0.56080273  1
  Al  Al19  1  0.77643387  0.42191721  0.32778901  1
  Al  Al20  1  0.88390213  0.54410331  0.12610671  1
  Al  Al21  1  0.44169297  0.43309333  0.81300062  1
  Al  Al22  1  0.55627942  0.53422929  0.56821177  1
  Al  Al23  1  0.11267218  0.76310876  0.31609948  1
  Al  Al24  1  0.22568550  0.87070945  0.05804628  1
  Al  Al25  1  0.77321195  0.76702131  0.80736692  1
  Al  Al26  1  0.44601344  0.76054490  0.31422684  1
  Al  Al27  1  0.55456176  0.86846162  0.05771369  1
  Al  Al28  1  0.10910459  0.76346579  0.80863676  1
  Al  Al29  1  0.21400579  0.87674516  0.56786458  1
  Al  Al30  1  0.77898913  0.76591073  0.35039731  1
  Al  Al31  1  0.88691698  0.87375089  0.06383422  1
  Al  Al32  1  0.55242099  0.87537405  0.57192047  1
  B  B33  1  0.89401009  0.19826260  0.55625923  1
  B  B34  1  0.89741633  0.88042956  0.55683676  1
  B  B35  1  0.44390687  0.76086795  0.80732264  1
  N  N36  1  0.22604898  0.20135471  0.37021975  1
  N  N37  1  0.11038148  0.09302069  0.12369666  1
  N  N38  1  0.88727009  0.20432552  0.87453788  1
  N  N39  1  0.80143451  0.08200420  0.60821134  1
  N  N40  1  0.55544842  0.20505509  0.37146714  1
  N  N41  1  0.44496175  0.09277702  0.11762305  1
  N  N42  1  0.21856565  0.20638276  0.87124116  1
  N  N43  1  0.08617273  0.10765827  0.61483445  1
  N  N44  1  0.89321336  0.20127041  0.39301498  1
  N  N45  1  0.77985375  0.09380277  0.13034109  1
  N  N46  1  0.55868532  0.20389646  0.86834280  1
  N  N47  1  0.44086663  0.09775008  0.62344214  1
  N  N48  1  0.22509151  0.54006090  0.37039672  1
  N  N49  1  0.11375922  0.42710648  0.12355182  1
  N  N50  1  0.88397525  0.54031375  0.82311859  1
  N  N51  1  0.78748094  0.39427087  0.61186584  1
  N  N52  1  0.55303772  0.54071177  0.37719847  1
  N  N53  1  0.44539810  0.42870669  0.11794585  1
  N  N54  1  0.21920782  0.54181948  0.87049840  1
  N  N55  1  0.11902414  0.42425306  0.61652423  1
  N  N56  1  0.89180621  0.53603667  0.35606213  1
  N  N57  1  0.77362741  0.42467733  0.12898513  1
  N  N58  1  0.54357728  0.56285084  0.86329033  1
  N  N59  1  0.44168750  0.42764419  0.62234844  1
  N  N60  1  0.22638570  0.87041858  0.37674332  1
  N  N61  1  0.11022840  0.76416437  0.12269029  1
  N  N62  1  0.88712406  0.87457044  0.87238693  1
  N  N63  1  0.78641857  0.77993199  0.60705505  1
  N  N64  1  0.55140847  0.87300474  0.38028893  1
  N  N65  1  0.44408242  0.76159096  0.12407384  1
  N  N66  1  0.24392953  0.86157011  0.86060201  1
  N  N67  1  0.08640740  0.77487901  0.61537531  1
  N  N68  1  0.89638395  0.87475830  0.39478394  1
  N  N69  1  0.77236455  0.77027102  0.12473922  1
  N  N70  1  0.54229788  0.86013160  0.86130629  1
  N  N71  1  0.44365365  0.75959687  0.64226040  1
