# generated using pymatgen
data_Al11BN12
_symmetry_space_group_name_H-M   'P 1'
_cell_length_a   9.31248812
_cell_length_b   9.33892057
_cell_length_c   10.00543236
_cell_angle_alpha   90.11445839
_cell_angle_beta   90.21769479
_cell_angle_gamma   60.09234245
_symmetry_Int_Tables_number   1
_chemical_formula_structural   Al11BN12
_chemical_formula_sum   'Al33 B3 N36'
_cell_volume   754.27398400
_cell_formula_units_Z   3
loop_
 _symmetry_equiv_pos_site_id
 _symmetry_equiv_pos_as_xyz
  1  'x, y, z'
loop_
 _atom_site_type_symbol
 _atom_site_label
 _atom_site_symmetry_multiplicity
 _atom_site_fract_x
 _atom_site_fract_y
 _atom_site_fract_z
 _atom_site_occupancy
  Al  Al0  1  0.10431893  0.09937663  0.39884573  1
  Al  Al1  1  0.21530950  0.20593132  0.13847042  1
  Al  Al2  1  0.78212792  0.09135138  0.87620651  1
  Al  Al3  1  0.45075701  0.08532074  0.32775132  1
  Al  Al4  1  0.56525855  0.20069841  0.13180686  1
  Al  Al5  1  0.10962695  0.09754692  0.87541004  1
  Al  Al6  1  0.20977083  0.21226911  0.63901944  1
  Al  Al7  1  0.78407407  0.09552742  0.39943083  1
  Al  Al8  1  0.88931411  0.20468138  0.13560234  1
  Al  Al9  1  0.44542557  0.08626438  0.82237390  1
  Al  Al10  1  0.56925635  0.20280663  0.63513482  1
  Al  Al11  1  0.11247603  0.42652610  0.38777152  1
  Al  Al12  1  0.21507112  0.54499113  0.13824682  1
  Al  Al13  1  0.77825309  0.42793581  0.87704250  1
  Al  Al14  1  0.89140423  0.53489886  0.64016213  1
  Al  Al15  1  0.44988338  0.43112175  0.32678152  1
  Al  Al16  1  0.54795063  0.54713247  0.06594500  1
  Al  Al17  1  0.11039010  0.42694734  0.89425217  1
  Al  Al18  1  0.21079341  0.54129692  0.64031875  1
  Al  Al19  1  0.78652374  0.41998187  0.39468348  1
  Al  Al20  1  0.88321108  0.54120776  0.13838104  1
  Al  Al21  1  0.44487922  0.43633433  0.82362262  1
  Al  Al22  1  0.55398460  0.53989327  0.58050607  1
  Al  Al23  1  0.10392594  0.76217010  0.39841465  1
  Al  Al24  1  0.23129383  0.86832984  0.06396171  1
  Al  Al25  1  0.77784194  0.75683377  0.87990348  1
  Al  Al26  1  0.44268821  0.76186511  0.32733970  1
  Al  Al27  1  0.54754799  0.87230499  0.06615774  1
  Al  Al28  1  0.11183835  0.75710243  0.87842727  1
  Al  Al29  1  0.21480580  0.87598388  0.59919358  1
  Al  Al30  1  0.78742258  0.76084458  0.39416984  1
  Al  Al31  1  0.88891765  0.87355900  0.13785604  1
  Al  Al32  1  0.55439107  0.87435180  0.58204184  1
  B  B33  1  0.88828557  0.20294558  0.64453853  1
  B  B34  1  0.90363521  0.84331156  0.65335777  1
  B  B35  1  0.44411237  0.76126740  0.81457423  1
  N  N36  1  0.21685118  0.20443553  0.33289355  1
  N  N37  1  0.10743630  0.09779240  0.06994639  1
  N  N38  1  0.88689593  0.20607079  0.80813119  1
  N  N39  1  0.79426077  0.10841286  0.58834072  1
  N  N40  1  0.56514713  0.20122420  0.33636530  1
  N  N41  1  0.44747112  0.08749304  0.12662635  1
  N  N42  1  0.21576963  0.21193700  0.83014425  1
  N  N43  1  0.08127215  0.11246765  0.59387387  1
  N  N44  1  0.89035313  0.20496531  0.32474007  1
  N  N45  1  0.78415477  0.09032113  0.06891422  1
  N  N46  1  0.55899909  0.20447187  0.83624502  1
  N  N47  1  0.44403643  0.09424365  0.62544938  1
  N  N48  1  0.21579572  0.54534807  0.33259007  1
  N  N49  1  0.10897005  0.42822218  0.08324970  1
  N  N50  1  0.89082692  0.53717724  0.82726189  1
  N  N51  1  0.79257565  0.40537275  0.58982210  1
  N  N52  1  0.55391237  0.54377272  0.38812857  1
  N  N53  1  0.44725046  0.43136240  0.12586906  1
  N  N54  1  0.21509672  0.53809365  0.83152070  1
  N  N55  1  0.10914896  0.42791887  0.57588011  1
  N  N56  1  0.88622757  0.54098819  0.33091003  1
  N  N57  1  0.78124510  0.42407234  0.07186052  1
  N  N58  1  0.53804214  0.56941330  0.87199847  1
  N  N59  1  0.44073746  0.43383523  0.62681954  1
  N  N60  1  0.22817577  0.86832153  0.39821797  1
  N  N61  1  0.10725338  0.76159372  0.07176982  1
  N  N62  1  0.88872323  0.86808223  0.80803769  1
  N  N63  1  0.79699575  0.76989867  0.59148955  1
  N  N64  1  0.55532924  0.86858185  0.39009770  1
  N  N65  1  0.44298933  0.76209323  0.13755266  1
  N  N66  1  0.24750703  0.85908131  0.86164186  1
  N  N67  1  0.08104341  0.76949196  0.59524526  1
  N  N68  1  0.88851032  0.87615960  0.32805887  1
  N  N69  1  0.78138496  0.76069467  0.07350658  1
  N  N70  1  0.53835130  0.86017517  0.87179945  1
  N  N71  1  0.44694041  0.76068798  0.65357333  1
