# generated using pymatgen
data_Al11BN12
_symmetry_space_group_name_H-M   'P 1'
_cell_length_a   9.27082274
_cell_length_b   9.28807531
_cell_length_c   10.08153261
_cell_angle_alpha   89.73356864
_cell_angle_beta   90.37817936
_cell_angle_gamma   60.09107521
_symmetry_Int_Tables_number   1
_chemical_formula_structural   Al11BN12
_chemical_formula_sum   'Al33 B3 N36'
_cell_volume   752.43908162
_cell_formula_units_Z   3
loop_
 _symmetry_equiv_pos_site_id
 _symmetry_equiv_pos_as_xyz
  1  'x, y, z'
loop_
 _atom_site_type_symbol
 _atom_site_label
 _atom_site_symmetry_multiplicity
 _atom_site_fract_x
 _atom_site_fract_y
 _atom_site_fract_z
 _atom_site_occupancy
  Al  Al0  1  0.11725336  0.09124355  0.31697004  1
  Al  Al1  1  0.22039856  0.20674051  0.07006203  1
  Al  Al2  1  0.78119942  0.09588837  0.81940201  1
  Al  Al3  1  0.44700829  0.09338754  0.32328451  1
  Al  Al4  1  0.55592768  0.20360826  0.07135760  1
  Al  Al5  1  0.10856945  0.09367410  0.82650179  1
  Al  Al6  1  0.21590909  0.20792076  0.57138210  1
  Al  Al7  1  0.77970970  0.09269282  0.32620925  1
  Al  Al8  1  0.88803187  0.20346969  0.10514043  1
  Al  Al9  1  0.44274267  0.09088891  0.82152470  1
  Al  Al10  1  0.56339644  0.20685434  0.57428033  1
  Al  Al11  1  0.11931788  0.42388514  0.32249941  1
  Al  Al12  1  0.21848544  0.54018102  0.07263205  1
  Al  Al13  1  0.77828524  0.42909945  0.89330119  1
  Al  Al14  1  0.88715514  0.53770178  0.64129969  1
  Al  Al15  1  0.44955926  0.42757028  0.32291063  1
  Al  Al16  1  0.54293034  0.54912349  0.06966778  1
  Al  Al17  1  0.11797580  0.42405217  0.82193521  1
  Al  Al18  1  0.21963423  0.53959823  0.56885872  1
  Al  Al19  1  0.78788152  0.41705264  0.39326047  1
  Al  Al20  1  0.87648747  0.54549294  0.14590550  1
  Al  Al21  1  0.44170556  0.43392753  0.82283937  1
  Al  Al22  1  0.55276466  0.53866420  0.58305182  1
  Al  Al23  1  0.11533439  0.76316931  0.32432900  1
  Al  Al24  1  0.22513629  0.86902593  0.06476873  1
  Al  Al25  1  0.77383780  0.75507428  0.88446235  1
  Al  Al26  1  0.44694932  0.76042116  0.32623833  1
  Al  Al27  1  0.54288547  0.87448499  0.06973235  1
  Al  Al28  1  0.10747002  0.76208415  0.81582561  1
  Al  Al29  1  0.21015076  0.87980493  0.57655607  1
  Al  Al30  1  0.78252830  0.75905955  0.39655077  1
  Al  Al31  1  0.88996058  0.87510863  0.06833719  1
  Al  Al32  1  0.55329665  0.87683681  0.58333992  1
  B  B33  1  0.88881554  0.20435510  0.61273703  1
  B  B34  1  0.91330871  0.84560914  0.55839704  1
  B  B35  1  0.44099373  0.76160538  0.81886191  1
  N  N36  1  0.22412643  0.20404783  0.38375644  1
  N  N37  1  0.12226096  0.08558356  0.12715320  1
  N  N38  1  0.89247947  0.19727678  0.89151200  1
  N  N39  1  0.79333014  0.11292446  0.62835847  1
  N  N40  1  0.55781680  0.20509579  0.38538346  1
  N  N41  1  0.44334923  0.09389721  0.13250893  1
  N  N42  1  0.22181953  0.20496380  0.88127607  1
  N  N43  1  0.08154457  0.11024903  0.63123030  1
  N  N44  1  0.89058823  0.20918271  0.32852909  1
  N  N45  1  0.77301217  0.08568557  0.13664863  1
  N  N46  1  0.55565879  0.20527613  0.88046342  1
  N  N47  1  0.44383813  0.09794712  0.63387304  1
  N  N48  1  0.22509246  0.53932933  0.38131427  1
  N  N49  1  0.11225510  0.42594969  0.13214007  1
  N  N50  1  0.88410012  0.53818991  0.82818366  1
  N  N51  1  0.79721141  0.39617919  0.58986561  1
  N  N52  1  0.55305792  0.54254658  0.39175674  1
  N  N53  1  0.44412676  0.42758845  0.13204249  1
  N  N54  1  0.21911660  0.54188807  0.88286839  1
  N  N55  1  0.11782490  0.42463906  0.63062849  1
  N  N56  1  0.88475216  0.54322591  0.33813108  1
  N  N57  1  0.77248362  0.43492866  0.08368674  1
  N  N58  1  0.53638899  0.56763770  0.87421656  1
  N  N59  1  0.43990654  0.43038359  0.63508375  1
  N  N60  1  0.22594873  0.87309980  0.38870936  1
  N  N61  1  0.11014524  0.76273554  0.13402215  1
  N  N62  1  0.88956226  0.87474973  0.87833848  1
  N  N63  1  0.79649366  0.76824773  0.59079346  1
  N  N64  1  0.55161583  0.87463432  0.39002109  1
  N  N65  1  0.44094738  0.76163651  0.13861914  1
  N  N66  1  0.24273676  0.85887351  0.86938813  1
  N  N67  1  0.08776029  0.76951860  0.62338314  1
  N  N68  1  0.90085536  0.87484258  0.40406966  1
  N  N69  1  0.77449575  0.75934212  0.08050835  1
  N  N70  1  0.53442024  0.86213366  0.87378383  1
  N  N71  1  0.44248185  0.76288685  0.65331822  1
