# generated using pymatgen
data_Al11BN12
_symmetry_space_group_name_H-M   'P 1'
_cell_length_a   9.26988179
_cell_length_b   9.28108203
_cell_length_c   10.11153839
_cell_angle_alpha   90.00054825
_cell_angle_beta   90.65859289
_cell_angle_gamma   59.96198074
_symmetry_Int_Tables_number   1
_chemical_formula_structural   Al11BN12
_chemical_formula_sum   'Al33 B3 N36'
_cell_volume   753.03629959
_cell_formula_units_Z   3
loop_
 _symmetry_equiv_pos_site_id
 _symmetry_equiv_pos_as_xyz
  1  'x, y, z'
loop_
 _atom_site_type_symbol
 _atom_site_label
 _atom_site_symmetry_multiplicity
 _atom_site_fract_x
 _atom_site_fract_y
 _atom_site_fract_z
 _atom_site_occupancy
  Al  Al0  1  0.12018070  0.08679595  0.32106639  1
  Al  Al1  1  0.22470891  0.19975884  0.07789185  1
  Al  Al2  1  0.77824065  0.09416553  0.87953758  1
  Al  Al3  1  0.45373241  0.08913833  0.32682118  1
  Al  Al4  1  0.55206903  0.20725254  0.07073847  1
  Al  Al5  1  0.11517663  0.09052680  0.81867813  1
  Al  Al6  1  0.21529502  0.20383094  0.57062517  1
  Al  Al7  1  0.79545284  0.08555985  0.40542134  1
  Al  Al8  1  0.88189646  0.20805599  0.13996357  1
  Al  Al9  1  0.43739004  0.09279837  0.82214184  1
  Al  Al10  1  0.55578285  0.20539641  0.58295451  1
  Al  Al11  1  0.11165173  0.42745920  0.36327114  1
  Al  Al12  1  0.22470929  0.54210542  0.07789196  1
  Al  Al13  1  0.77442139  0.43056305  0.88083404  1
  Al  Al14  1  0.89197355  0.53729926  0.64275387  1
  Al  Al15  1  0.45373172  0.42370092  0.32682130  1
  Al  Al16  1  0.54829888  0.54656422  0.06858833  1
  Al  Al17  1  0.10531982  0.43062440  0.88013856  1
  Al  Al18  1  0.21529523  0.54744707  0.57062553  1
  Al  Al19  1  0.78835429  0.41651267  0.40189768  1
  Al  Al20  1  0.88234712  0.54211336  0.14164770  1
  Al  Al21  1  0.43738976  0.43638339  0.82214180  1
  Al  Al22  1  0.55309646  0.53855184  0.58588177  1
  Al  Al23  1  0.12017992  0.75959358  0.32106673  1
  Al  Al24  1  0.22684785  0.86986206  0.06646848  1
  Al  Al25  1  0.77442233  0.76158625  0.88083428  1
  Al  Al26  1  0.45004124  0.75826468  0.32816854  1
  Al  Al27  1  0.54829892  0.87171038  0.06858828  1
  Al  Al28  1  0.11517722  0.76086638  0.81867821  1
  Al  Al29  1  0.21045363  0.87805970  0.57794674  1
  Al  Al30  1  0.78835425  0.76170446  0.40189775  1
  Al  Al31  1  0.88189600  0.87662179  0.13996372  1
  Al  Al32  1  0.55309573  0.87492624  0.58588161  1
  B  B33  1  0.88858443  0.20093492  0.65330488  1
  B  B34  1  0.88858459  0.87704952  0.65330510  1
  B  B35  1  0.44099928  0.76278744  0.81960393  1
  N  N36  1  0.22839933  0.19740938  0.38008604  1
  N  N37  1  0.11772384  0.08700786  0.13086867  1
  N  N38  1  0.87668521  0.21147915  0.81274880  1
  N  N39  1  0.80457507  0.08099833  0.59870227  1
  N  N40  1  0.55849223  0.20404225  0.39210355  1
  N  N41  1  0.45110354  0.08982998  0.13621807  1
  N  N42  1  0.21933865  0.20169883  0.88685204  1
  N  N43  1  0.09124406  0.10392425  0.63061713  1
  N  N44  1  0.88514170  0.20589300  0.32885392  1
  N  N45  1  0.78689189  0.08983843  0.06982529  1
  N  N46  1  0.54211015  0.21223327  0.88045449  1
  N  N47  1  0.43861192  0.09714408  0.63684836  1
  N  N48  1  0.22839882  0.54076678  0.38008616  1
  N  N49  1  0.11058400  0.42799273  0.10635666  1
  N  N50  1  0.88478506  0.54089477  0.82814868  1
  N  N51  1  0.79445825  0.39657490  0.59360038  1
  N  N52  1  0.55398398  0.54150838  0.39432264  1
  N  N53  1  0.45110317  0.42563731  0.13621836  1
  N  N54  1  0.21933826  0.54553675  0.88685156  1
  N  N55  1  0.10804662  0.42926111  0.59099231  1
  N  N56  1  0.88088865  0.54284291  0.33305827  1
  N  N57  1  0.78261939  0.42379443  0.07187713  1
  N  N58  1  0.53403704  0.56961876  0.87485602  1
  N  N59  1  0.43861155  0.43081519  0.63684856  1
  N  N60  1  0.22599970  0.87028754  0.39001894  1
  N  N61  1  0.11772346  0.76183744  0.13086906  1
  N  N62  1  0.87668524  0.87841031  0.81274896  1
  N  N63  1  0.79445878  0.77553644  0.59360104  1
  N  N64  1  0.55398366  0.87108382  0.39432237  1
  N  N65  1  0.44698817  0.75979105  0.13974844  1
  N  N66  1  0.24140877  0.86258272  0.87471476  1
  N  N67  1  0.09124361  0.77140198  0.63061712  1
  N  N68  1  0.88514097  0.87554038  0.32885416  1
  N  N69  1  0.78261979  0.76015468  0.07187728  1
  N  N70  1  0.53403712  0.86291996  0.87485539  1
  N  N71  1  0.44118302  0.76269396  0.65603760  1
