# generated using pymatgen
data_Al11BN12
_symmetry_space_group_name_H-M   'P 1'
_cell_length_a   9.26324627
_cell_length_b   9.31671241
_cell_length_c   9.93808071
_cell_angle_alpha   90.24459675
_cell_angle_beta   89.72429356
_cell_angle_gamma   60.06865879
_symmetry_Int_Tables_number   1
_chemical_formula_structural   Al11BN12
_chemical_formula_sum   'Al33 B3 N36'
_cell_volume   743.26077028
_cell_formula_units_Z   3
loop_
 _symmetry_equiv_pos_site_id
 _symmetry_equiv_pos_as_xyz
  1  'x, y, z'
loop_
 _atom_site_type_symbol
 _atom_site_label
 _atom_site_symmetry_multiplicity
 _atom_site_fract_x
 _atom_site_fract_y
 _atom_site_fract_z
 _atom_site_occupancy
  Al  Al0  1  0.10228207  0.10096076  0.40141067  1
  Al  Al1  1  0.22202923  0.20332255  0.14531241  1
  Al  Al2  1  0.78022658  0.09159220  0.87905752  1
  Al  Al3  1  0.44571963  0.09512973  0.39666567  1
  Al  Al4  1  0.55888697  0.20408498  0.14328822  1
  Al  Al5  1  0.11218289  0.09430719  0.88089931  1
  Al  Al6  1  0.21808797  0.20766492  0.64566581  1
  Al  Al7  1  0.78143326  0.09873128  0.40416428  1
  Al  Al8  1  0.88872712  0.20446224  0.14039734  1
  Al  Al9  1  0.44220714  0.09063532  0.89604128  1
  Al  Al10  1  0.56232820  0.20826204  0.64467913  1
  Al  Al11  1  0.11064608  0.42734185  0.39395191  1
  Al  Al12  1  0.22198947  0.54072417  0.14563321  1
  Al  Al13  1  0.77327226  0.43151523  0.89012593  1
  Al  Al14  1  0.89268716  0.53310273  0.64705089  1
  Al  Al15  1  0.44422654  0.42861168  0.39626654  1
  Al  Al16  1  0.55695061  0.53862731  0.14764553  1
  Al  Al17  1  0.11092514  0.42644000  0.89892122  1
  Al  Al18  1  0.21901261  0.53680732  0.64731053  1
  Al  Al19  1  0.77952727  0.42326220  0.40084474  1
  Al  Al20  1  0.88607814  0.53984946  0.14646843  1
  Al  Al21  1  0.44323464  0.43260527  0.89621563  1
  Al  Al22  1  0.55620853  0.54041232  0.64434472  1
  Al  Al23  1  0.10120520  0.76292743  0.40110068  1
  Al  Al24  1  0.22724707  0.87050556  0.10460655  1
  Al  Al25  1  0.77198007  0.75713267  0.89392538  1
  Al  Al26  1  0.44621064  0.76050697  0.39039413  1
  Al  Al27  1  0.55696717  0.87181608  0.14881204  1
  Al  Al28  1  0.11604434  0.75651049  0.88517862  1
  Al  Al29  1  0.21270232  0.87716180  0.61596583  1
  Al  Al30  1  0.78092062  0.76531707  0.40081031  1
  Al  Al31  1  0.88829525  0.87510713  0.14383431  1
  Al  Al32  1  0.55721174  0.87343463  0.64626420  1
  B  B33  1  0.88485777  0.20618952  0.64886255  1
  B  B34  1  0.90718872  0.83241074  0.66154100  1
  B  B35  1  0.44265673  0.76135697  0.86174665  1
  N  N36  1  0.22169740  0.20345143  0.33743989  1
  N  N37  1  0.10942527  0.09657636  0.07539929  1
  N  N38  1  0.88622549  0.20802767  0.81505658  1
  N  N39  1  0.78718335  0.11988467  0.59312856  1
  N  N40  1  0.55788339  0.20561041  0.33690108  1
  N  N41  1  0.44593954  0.09275766  0.08659840  1
  N  N42  1  0.22283907  0.20739449  0.83505005  1
  N  N43  1  0.08245385  0.11320856  0.59743793  1
  N  N44  1  0.88864794  0.20742956  0.32977267  1
  N  N45  1  0.78103759  0.09160574  0.07405522  1
  N  N46  1  0.55341836  0.20605417  0.83575857  1
  N  N47  1  0.44626172  0.09529290  0.58859748  1
  N  N48  1  0.21984593  0.54212459  0.33737752  1
  N  N49  1  0.11119267  0.42699832  0.08961825  1
  N  N50  1  0.89043100  0.53703826  0.83642113  1
  N  N51  1  0.78680815  0.41100734  0.59504136  1
  N  N52  1  0.55920205  0.53510803  0.33957149  1
  N  N53  1  0.44564336  0.42736927  0.08651494  1
  N  N54  1  0.22288978  0.53461624  0.83639515  1
  N  N55  1  0.11202918  0.42596584  0.58420873  1
  N  N56  1  0.88550850  0.54198538  0.34034459  1
  N  N57  1  0.77850406  0.42582119  0.08127213  1
  N  N58  1  0.53969912  0.56838615  0.83885365  1
  N  N59  1  0.43976830  0.43373010  0.58789454  1
  N  N60  1  0.21617532  0.87420052  0.37661187  1
  N  N61  1  0.10919475  0.76039922  0.07814214  1
  N  N62  1  0.88971791  0.86400739  0.81532262  1
  N  N63  1  0.79332156  0.77016535  0.59836200  1
  N  N64  1  0.56024552  0.87320416  0.34137299  1
  N  N65  1  0.44937566  0.75878297  0.10411018  1
  N  N66  1  0.25019675  0.85733455  0.84336832  1
  N  N67  1  0.08191590  0.76640105  0.59955355  1
  N  N68  1  0.88550218  0.87815915  0.33477295  1
  N  N69  1  0.77933365  0.76157710  0.08382763  1
  N  N70  1  0.54041772  0.85794237  0.83940631  1
  N  N71  1  0.45046662  0.76018782  0.58383854  1
