# generated using pymatgen
data_Al11BN12
_symmetry_space_group_name_H-M   'P 1'
_cell_length_a   9.29427935
_cell_length_b   9.30672557
_cell_length_c   10.07333201
_cell_angle_alpha   90.03103681
_cell_angle_beta   90.65030696
_cell_angle_gamma   59.96706431
_symmetry_Int_Tables_number   1
_chemical_formula_structural   Al11BN12
_chemical_formula_sum   'Al33 B3 N36'
_cell_volume   754.28687876
_cell_formula_units_Z   3
loop_
 _symmetry_equiv_pos_site_id
 _symmetry_equiv_pos_as_xyz
  1  'x, y, z'
loop_
 _atom_site_type_symbol
 _atom_site_label
 _atom_site_symmetry_multiplicity
 _atom_site_fract_x
 _atom_site_fract_y
 _atom_site_fract_z
 _atom_site_occupancy
  Al  Al0  1  0.10901993  0.09256141  0.36959502  1
  Al  Al1  1  0.22516561  0.19960131  0.07413479  1
  Al  Al2  1  0.77905367  0.09455472  0.87943894  1
  Al  Al3  1  0.45036629  0.09028222  0.32643449  1
  Al  Al4  1  0.55202682  0.20729118  0.07078741  1
  Al  Al5  1  0.11262665  0.09135451  0.84773894  1
  Al  Al6  1  0.21879206  0.20455157  0.58122169  1
  Al  Al7  1  0.79197295  0.08529070  0.40343744  1
  Al  Al8  1  0.88814895  0.20417209  0.13777559  1
  Al  Al9  1  0.44099468  0.09193862  0.82152957  1
  Al  Al10  1  0.55741932  0.20531587  0.58260471  1
  Al  Al11  1  0.10722797  0.42987847  0.38614587  1
  Al  Al12  1  0.22521863  0.54263747  0.07707437  1
  Al  Al13  1  0.77594644  0.42996518  0.88077112  1
  Al  Al14  1  0.89187259  0.53782259  0.64305285  1
  Al  Al15  1  0.45122055  0.42440662  0.32628776  1
  Al  Al16  1  0.54931416  0.54568918  0.06893599  1
  Al  Al17  1  0.10291012  0.43417306  0.89137476  1
  Al  Al18  1  0.21739476  0.54952171  0.57204295  1
  Al  Al19  1  0.78537198  0.41894498  0.39914642  1
  Al  Al20  1  0.88474502  0.54034334  0.14137727  1
  Al  Al21  1  0.43807766  0.43637332  0.82247429  1
  Al  Al22  1  0.55474068  0.53765182  0.58538655  1
  Al  Al23  1  0.11904356  0.75945664  0.32145474  1
  Al  Al24  1  0.22799669  0.86631969  0.06486409  1
  Al  Al25  1  0.77445629  0.76122626  0.88085675  1
  Al  Al26  1  0.44802374  0.75950940  0.32769438  1
  Al  Al27  1  0.54781759  0.87149311  0.06868927  1
  Al  Al28  1  0.11488456  0.76002666  0.81873789  1
  Al  Al29  1  0.21384192  0.87403271  0.58504398  1
  Al  Al30  1  0.78714743  0.76204401  0.40003567  1
  Al  Al31  1  0.88146913  0.87672174  0.13905739  1
  Al  Al32  1  0.55458615  0.87414745  0.58511269  1
  B  B33  1  0.89294312  0.19920061  0.65147742  1
  B  B34  1  0.88811438  0.87731429  0.65283629  1
  B  B35  1  0.44253187  0.76103022  0.81854475  1
  N  N36  1  0.22797314  0.19905134  0.38288045  1
  N  N37  1  0.10892733  0.09067190  0.09144548  1
  N  N38  1  0.88057324  0.20962682  0.81075838  1
  N  N39  1  0.80432604  0.08002268  0.59752232  1
  N  N40  1  0.55684102  0.20461647  0.39063361  1
  N  N41  1  0.44900678  0.09067987  0.13524608  1
  N  N42  1  0.22333376  0.20631223  0.87725986  1
  N  N43  1  0.08750365  0.10550971  0.61624079  1
  N  N44  1  0.88528242  0.20499224  0.32821931  1
  N  N45  1  0.78542139  0.09029236  0.07103366  1
  N  N46  1  0.54432039  0.21242183  0.87956225  1
  N  N47  1  0.44295638  0.09566547  0.63615515  1
  N  N48  1  0.22715402  0.54109448  0.38010795  1
  N  N49  1  0.10702946  0.42994833  0.08973697  1
  N  N50  1  0.88612398  0.54061765  0.82778857  1
  N  N51  1  0.79495132  0.39749072  0.59202508  1
  N  N52  1  0.55271188  0.54185236  0.39267018  1
  N  N53  1  0.45003445  0.42593721  0.13547469  1
  N  N54  1  0.22054754  0.54617016  0.88490945  1
  N  N55  1  0.10581018  0.43265505  0.58328716  1
  N  N56  1  0.88282975  0.54167645  0.33280721  1
  N  N57  1  0.78226361  0.42353416  0.07347070  1
  N  N58  1  0.53666154  0.56789606  0.87410921  1
  N  N59  1  0.43967747  0.43057930  0.63618881  1
  N  N60  1  0.22695738  0.86639677  0.39324912  1
  N  N61  1  0.11722213  0.76140164  0.13090316  1
  N  N62  1  0.87656882  0.87866531  0.81308456  1
  N  N63  1  0.79482078  0.77498322  0.59285715  1
  N  N64  1  0.55321639  0.87135852  0.39292507  1
  N  N65  1  0.44587211  0.75989996  0.13923518  1
  N  N66  1  0.24627492  0.85668809  0.87054053  1
  N  N67  1  0.09056796  0.77116151  0.63089603  1
  N  N68  1  0.88459274  0.87540884  0.32848135  1
  N  N69  1  0.78194162  0.75978772  0.07284517  1
  N  N70  1  0.53482364  0.86258197  0.87443577  1
  N  N71  1  0.44427346  0.76100719  0.65530608  1
