# generated using pymatgen
data_Al11BN12
_symmetry_space_group_name_H-M   'P 1'
_cell_length_a   9.29272517
_cell_length_b   9.29051585
_cell_length_c   9.87718928
_cell_angle_alpha   90.16250225
_cell_angle_beta   90.19737873
_cell_angle_gamma   59.90365572
_symmetry_Int_Tables_number   1
_chemical_formula_structural   Al11BN12
_chemical_formula_sum   'Al33 B3 N36'
_cell_volume   737.77095078
_cell_formula_units_Z   3
loop_
 _symmetry_equiv_pos_site_id
 _symmetry_equiv_pos_as_xyz
  1  'x, y, z'
loop_
 _atom_site_type_symbol
 _atom_site_label
 _atom_site_symmetry_multiplicity
 _atom_site_fract_x
 _atom_site_fract_y
 _atom_site_fract_z
 _atom_site_occupancy
  Al  Al0  1  0.11165393  0.09219842  0.31773481  1
  Al  Al1  1  0.22016568  0.20539724  0.06295443  1
  Al  Al2  1  0.78247995  0.09184083  0.80394114  1
  Al  Al3  1  0.44695880  0.09129243  0.31146243  1
  Al  Al4  1  0.55904255  0.20363545  0.06289354  1
  Al  Al5  1  0.10873041  0.09505870  0.80871052  1
  Al  Al6  1  0.21824598  0.20523787  0.56102979  1
  Al  Al7  1  0.78107222  0.09315454  0.32466969  1
  Al  Al8  1  0.88802257  0.20444867  0.06492988  1
  Al  Al9  1  0.44124146  0.09209953  0.81372026  1
  Al  Al10  1  0.56097306  0.20206708  0.56327599  1
  Al  Al11  1  0.11750157  0.42455389  0.31879741  1
  Al  Al12  1  0.22052574  0.54117803  0.06253548  1
  Al  Al13  1  0.77438693  0.42521253  0.80724858  1
  Al  Al14  1  0.89025089  0.53656730  0.58564957  1
  Al  Al15  1  0.44630253  0.42777838  0.31164896  1
  Al  Al16  1  0.55416610  0.54346543  0.05861658  1
  Al  Al17  1  0.11122787  0.42783274  0.81015569  1
  Al  Al18  1  0.21775886  0.54389187  0.56121180  1
  Al  Al19  1  0.77694559  0.42273269  0.32776280  1
  Al  Al20  1  0.88483089  0.54231299  0.11078790  1
  Al  Al21  1  0.44171398  0.43311238  0.81305218  1
  Al  Al22  1  0.55638009  0.53450458  0.56851519  1
  Al  Al23  1  0.11212866  0.76317872  0.31695182  1
  Al  Al24  1  0.22583646  0.87066073  0.05802945  1
  Al  Al25  1  0.77430629  0.76597260  0.80593137  1
  Al  Al26  1  0.44569546  0.76057345  0.31459050  1
  Al  Al27  1  0.55468169  0.86861075  0.05841779  1
  Al  Al28  1  0.10880896  0.76333537  0.80894542  1
  Al  Al29  1  0.21401497  0.87656569  0.56836551  1
  Al  Al30  1  0.77796333  0.76635198  0.33651317  1
  Al  Al31  1  0.88726482  0.87408774  0.06477412  1
  Al  Al32  1  0.55460904  0.87480303  0.57057522  1
  B  B33  1  0.89413952  0.19787896  0.55658879  1
  B  B34  1  0.89568862  0.87820635  0.55691644  1
  B  B35  1  0.44468558  0.76051202  0.80754663  1
  N  N36  1  0.22541189  0.20195130  0.37042647  1
  N  N37  1  0.11047748  0.09294896  0.12382207  1
  N  N38  1  0.88710814  0.20448185  0.87455849  1
  N  N39  1  0.80099694  0.08230756  0.60832044  1
  N  N40  1  0.55519444  0.20530204  0.37165985  1
  N  N41  1  0.44532140  0.09269411  0.11789022  1
  N  N42  1  0.21882550  0.20629960  0.87119509  1
  N  N43  1  0.08609012  0.10750406  0.61497948  1
  N  N44  1  0.89302815  0.20147515  0.39317035  1
  N  N45  1  0.77969372  0.09388424  0.13085406  1
  N  N46  1  0.55861598  0.20397642  0.86848589  1
  N  N47  1  0.44116937  0.09724990  0.62326501  1
  N  N48  1  0.22478100  0.53987740  0.37055001  1
  N  N49  1  0.11344928  0.42718322  0.12425945  1
  N  N50  1  0.88420154  0.54070425  0.83530938  1
  N  N51  1  0.78791626  0.39553824  0.61233256  1
  N  N52  1  0.55309832  0.54066576  0.37724024  1
  N  N53  1  0.44549541  0.42869883  0.11813197  1
  N  N54  1  0.21925430  0.54161279  0.87069044  1
  N  N55  1  0.11755661  0.42485167  0.61744661  1
  N  N56  1  0.89115013  0.53671367  0.36616933  1
  N  N57  1  0.77402237  0.42495584  0.12953391  1
  N  N58  1  0.54375654  0.56281004  0.86320658  1
  N  N59  1  0.44162199  0.42775003  0.62239175  1
  N  N60  1  0.22609453  0.87047356  0.37704560  1
  N  N61  1  0.11038858  0.76402519  0.12313690  1
  N  N62  1  0.88667494  0.87436410  0.87384302  1
  N  N63  1  0.78738275  0.78049625  0.61029065  1
  N  N64  1  0.55218925  0.87277273  0.37919586  1
  N  N65  1  0.44436592  0.76144713  0.12422771  1
  N  N66  1  0.24403638  0.86147768  0.86063778  1
  N  N67  1  0.08616234  0.77455134  0.61548526  1
  N  N68  1  0.89468666  0.87356175  0.39420353  1
  N  N69  1  0.77321116  0.76958923  0.13117240  1
  N  N70  1  0.54349406  0.85967364  0.86243964  1
  N  N71  1  0.44443857  0.75993691  0.64226448  1
