# generated using pymatgen
data_Al11BN12
_symmetry_space_group_name_H-M   'P 1'
_cell_length_a   9.25637393
_cell_length_b   9.30920767
_cell_length_c   9.92496640
_cell_angle_alpha   90.24499627
_cell_angle_beta   89.77271629
_cell_angle_gamma   60.07090370
_symmetry_Int_Tables_number   1
_chemical_formula_structural   Al11BN12
_chemical_formula_sum   'Al33 B3 N36'
_cell_volume   741.15391117
_cell_formula_units_Z   3
loop_
 _symmetry_equiv_pos_site_id
 _symmetry_equiv_pos_as_xyz
  1  'x, y, z'
loop_
 _atom_site_type_symbol
 _atom_site_label
 _atom_site_symmetry_multiplicity
 _atom_site_fract_x
 _atom_site_fract_y
 _atom_site_fract_z
 _atom_site_occupancy
  Al  Al0  1  0.10334654  0.09911333  0.40079143  1
  Al  Al1  1  0.22189438  0.20333411  0.14517154  1
  Al  Al2  1  0.78051670  0.09141629  0.87893801  1
  Al  Al3  1  0.44570960  0.09498233  0.39617268  1
  Al  Al4  1  0.55899827  0.20403460  0.14319789  1
  Al  Al5  1  0.11320323  0.09255022  0.88374078  1
  Al  Al6  1  0.21814441  0.20713314  0.64545544  1
  Al  Al7  1  0.78135776  0.09871000  0.40412276  1
  Al  Al8  1  0.88880100  0.20451471  0.14035853  1
  Al  Al9  1  0.44233310  0.09056629  0.89595589  1
  Al  Al10  1  0.56217674  0.20824257  0.64458637  1
  Al  Al11  1  0.11069610  0.42738555  0.39398032  1
  Al  Al12  1  0.22181024  0.54079432  0.14551922  1
  Al  Al13  1  0.77346855  0.43119653  0.88979419  1
  Al  Al14  1  0.89268683  0.53319510  0.64695632  1
  Al  Al15  1  0.44420544  0.42881685  0.39578744  1
  Al  Al16  1  0.55634952  0.53981544  0.14565712  1
  Al  Al17  1  0.11098902  0.42646610  0.89866100  1
  Al  Al18  1  0.21897460  0.53722021  0.64720218  1
  Al  Al19  1  0.77937544  0.42347420  0.40034290  1
  Al  Al20  1  0.88623604  0.53975882  0.14631692  1
  Al  Al21  1  0.44333743  0.43256523  0.89613599  1
  Al  Al22  1  0.55574481  0.54076270  0.64468813  1
  Al  Al23  1  0.10229452  0.76405775  0.40068473  1
  Al  Al24  1  0.22434737  0.87173256  0.13000035  1
  Al  Al25  1  0.77227636  0.75729462  0.89354158  1
  Al  Al26  1  0.44529121  0.76106959  0.39149701  1
  Al  Al27  1  0.55631737  0.87117615  0.14678055  1
  Al  Al28  1  0.11715760  0.75749904  0.88765957  1
  Al  Al29  1  0.21378865  0.87662578  0.63442317  1
  Al  Al30  1  0.78084025  0.76531722  0.40032246  1
  Al  Al31  1  0.88828677  0.87493160  0.14372904  1
  Al  Al32  1  0.55676898  0.87346386  0.64649520  1
  B  B33  1  0.88505849  0.20526660  0.64877101  1
  B  B34  1  0.90722707  0.83361418  0.66098127  1
  B  B35  1  0.44278079  0.76136461  0.86889129  1
  N  N36  1  0.22160967  0.20352661  0.33766781  1
  N  N37  1  0.11031755  0.09466937  0.07679646  1
  N  N38  1  0.88727037  0.20736938  0.81484273  1
  N  N39  1  0.78737543  0.11916384  0.59336750  1
  N  N40  1  0.55794667  0.20562063  0.33696285  1
  N  N41  1  0.44588616  0.09292161  0.08665090  1
  N  N42  1  0.22251780  0.20694256  0.83517190  1
  N  N43  1  0.08436416  0.10975769  0.59582328  1
  N  N44  1  0.88858758  0.20742294  0.33006362  1
  N  N45  1  0.78099096  0.09162626  0.07399498  1
  N  N46  1  0.55346195  0.20604223  0.83566490  1
  N  N47  1  0.44639720  0.09506791  0.58828804  1
  N  N48  1  0.21972077  0.54241819  0.33767844  1
  N  N49  1  0.11118008  0.42695086  0.08953836  1
  N  N50  1  0.89039066  0.53705883  0.83628437  1
  N  N51  1  0.78663594  0.41105234  0.59472181  1
  N  N52  1  0.55842913  0.53659664  0.33826562  1
  N  N53  1  0.44557176  0.42725494  0.08658673  1
  N  N54  1  0.22260154  0.53543132  0.83656996  1
  N  N55  1  0.11204935  0.42587568  0.58441339  1
  N  N56  1  0.88553289  0.54199324  0.34026262  1
  N  N57  1  0.77859013  0.42582469  0.08113534  1
  N  N58  1  0.53997390  0.56783605  0.83879853  1
  N  N59  1  0.43990829  0.43370365  0.58760918  1
  N  N60  1  0.21702344  0.87411706  0.35356930  1
  N  N61  1  0.10984084  0.76110540  0.07933483  1
  N  N62  1  0.89065600  0.86373025  0.81510962  1
  N  N63  1  0.79332264  0.77032483  0.59800485  1
  N  N64  1  0.55956037  0.87255528  0.34002594  1
  N  N65  1  0.44751820  0.75963386  0.09265805  1
  N  N66  1  0.24899769  0.85795473  0.83536747  1
  N  N67  1  0.08327297  0.76781520  0.59828849  1
  N  N68  1  0.88557373  0.87824877  0.33501174  1
  N  N69  1  0.77933852  0.76144511  0.08368404  1
  N  N70  1  0.54072630  0.85821898  0.83933039  1
  N  N71  1  0.44681946  0.76189891  0.58258843  1
