# generated using pymatgen
data_Al11BN12
_symmetry_space_group_name_H-M   'P 1'
_cell_length_a   9.31032696
_cell_length_b   9.30596440
_cell_length_c   10.01534385
_cell_angle_alpha   90.04677001
_cell_angle_beta   90.40239052
_cell_angle_gamma   60.01467227
_symmetry_Int_Tables_number   1
_chemical_formula_structural   Al11BN12
_chemical_formula_sum   'Al33 B3 N36'
_cell_volume   751.57823547
_cell_formula_units_Z   3
loop_
 _symmetry_equiv_pos_site_id
 _symmetry_equiv_pos_as_xyz
  1  'x, y, z'
loop_
 _atom_site_type_symbol
 _atom_site_label
 _atom_site_symmetry_multiplicity
 _atom_site_fract_x
 _atom_site_fract_y
 _atom_site_fract_z
 _atom_site_occupancy
  Al  Al0  1  0.10594324  0.10020595  0.39942262  1
  Al  Al1  1  0.21690017  0.20515778  0.14091925  1
  Al  Al2  1  0.78204434  0.09241879  0.87514240  1
  Al  Al3  1  0.45480440  0.08847098  0.32639508  1
  Al  Al4  1  0.55409081  0.20562448  0.06897478  1
  Al  Al5  1  0.10968204  0.09753083  0.87794568  1
  Al  Al6  1  0.20853320  0.21184920  0.64197491  1
  Al  Al7  1  0.79130106  0.08829432  0.39902858  1
  Al  Al8  1  0.88938422  0.20369362  0.13718750  1
  Al  Al9  1  0.44634855  0.08803822  0.82136759  1
  Al  Al10  1  0.55808153  0.20394727  0.57944796  1
  Al  Al11  1  0.11252195  0.42641028  0.38953264  1
  Al  Al12  1  0.22106959  0.54106941  0.11115435  1
  Al  Al13  1  0.77628333  0.42952826  0.87837037  1
  Al  Al14  1  0.88847382  0.53862711  0.64013164  1
  Al  Al15  1  0.44923717  0.42684106  0.32610372  1
  Al  Al16  1  0.54935601  0.54618538  0.06816219  1
  Al  Al17  1  0.10717657  0.42649212  0.89106749  1
  Al  Al18  1  0.21196485  0.54266314  0.62825806  1
  Al  Al19  1  0.78536152  0.41967996  0.39508754  1
  Al  Al20  1  0.88420336  0.54133935  0.13944453  1
  Al  Al21  1  0.44496261  0.43246248  0.82140672  1
  Al  Al22  1  0.55449018  0.53756353  0.58151977  1
  Al  Al23  1  0.10622991  0.76241211  0.39906220  1
  Al  Al24  1  0.23245612  0.86795078  0.06368917  1
  Al  Al25  1  0.77730848  0.75963886  0.87885388  1
  Al  Al26  1  0.44291711  0.76195933  0.32812432  1
  Al  Al27  1  0.54903486  0.87237894  0.06820774  1
  Al  Al28  1  0.10937540  0.76144667  0.87226439  1
  Al  Al29  1  0.21758361  0.87548191  0.59890348  1
  Al  Al30  1  0.78677967  0.76089403  0.39543233  1
  Al  Al31  1  0.88966636  0.87360171  0.13743421  1
  Al  Al32  1  0.55495515  0.87426130  0.58186651  1
  B  B33  1  0.89271011  0.19976466  0.64780666  1
  B  B34  1  0.89257919  0.87436191  0.64846322  1
  B  B35  1  0.44400256  0.76155080  0.81621889  1
  N  N36  1  0.21857939  0.20433762  0.33350893  1
  N  N37  1  0.10855435  0.09788149  0.07187901  1
  N  N38  1  0.88630563  0.20673862  0.80850948  1
  N  N39  1  0.80316026  0.08174692  0.59526572  1
  N  N40  1  0.55744259  0.20550159  0.38707881  1
  N  N41  1  0.45225908  0.08971523  0.13222732  1
  N  N42  1  0.21551733  0.21059422  0.83119114  1
  N  N43  1  0.08135950  0.11177861  0.59484091  1
  N  N44  1  0.89014502  0.20361923  0.32658671  1
  N  N45  1  0.78752903  0.08967461  0.06990363  1
  N  N46  1  0.54785893  0.20920831  0.87761820  1
  N  N47  1  0.44421596  0.09456434  0.63130115  1
  N  N48  1  0.22137476  0.54190181  0.35127821  1
  N  N49  1  0.10875603  0.42625595  0.08148118  1
  N  N50  1  0.88742758  0.53901700  0.82670358  1
  N  N51  1  0.79299867  0.39887165  0.59017764  1
  N  N52  1  0.55309348  0.54239079  0.38894859  1
  N  N53  1  0.45132497  0.42532162  0.13111238  1
  N  N54  1  0.21688162  0.53747696  0.84050226  1
  N  N55  1  0.10656550  0.42693867  0.57871693  1
  N  N56  1  0.88595275  0.54011965  0.33161150  1
  N  N57  1  0.78214370  0.42374987  0.07306201  1
  N  N58  1  0.53672655  0.56791855  0.87402801  1
  N  N59  1  0.44539384  0.42683544  0.63271066  1
  N  N60  1  0.22922153  0.86993197  0.39820211  1
  N  N61  1  0.10692795  0.76409999  0.06958300  1
  N  N62  1  0.88464587  0.87421407  0.80830269  1
  N  N63  1  0.79426038  0.77361686  0.59014205  1
  N  N64  1  0.55394600  0.87067278  0.38952349  1
  N  N65  1  0.44401952  0.76169234  0.13844835  1
  N  N66  1  0.24815853  0.86015035  0.86187163  1
  N  N67  1  0.08212057  0.77449368  0.59810529  1
  N  N68  1  0.89007966  0.87371148  0.32685181  1
  N  N69  1  0.78265898  0.76049804  0.07313395  1
  N  N70  1  0.53739310  0.86165677  0.87399255  1
  N  N71  1  0.44906437  0.75880650  0.65471318  1
