# generated using pymatgen
data_Al11BN12
_symmetry_space_group_name_H-M   'P 1'
_cell_length_a   9.25908204
_cell_length_b   9.25657897
_cell_length_c   9.89722545
_cell_angle_alpha   89.99997041
_cell_angle_beta   89.91030150
_cell_angle_gamma   60.00901984
_symmetry_Int_Tables_number   1
_chemical_formula_structural   Al11BN12
_chemical_formula_sum   'Al33 B3 N36'
_cell_volume   734.68520566
_cell_formula_units_Z   3
loop_
 _symmetry_equiv_pos_site_id
 _symmetry_equiv_pos_as_xyz
  1  'x, y, z'
loop_
 _atom_site_type_symbol
 _atom_site_label
 _atom_site_symmetry_multiplicity
 _atom_site_fract_x
 _atom_site_fract_y
 _atom_site_fract_z
 _atom_site_occupancy
  Al  Al0  1  0.10554319  0.09563192  0.40879420  1
  Al  Al1  1  0.22090605  0.20490389  0.15545236  1
  Al  Al2  1  0.78030963  0.09317929  0.89237600  1
  Al  Al3  1  0.44474552  0.09285028  0.40452382  1
  Al  Al4  1  0.55852301  0.20407239  0.15421154  1
  Al  Al5  1  0.11487835  0.09116991  0.89994720  1
  Al  Al6  1  0.21624531  0.20759298  0.65535283  1
  Al  Al7  1  0.78271314  0.09197733  0.41355090  1
  Al  Al8  1  0.88812408  0.20465455  0.15281582  1
  Al  Al9  1  0.44267446  0.09142350  0.90516857  1
  Al  Al10  1  0.56137153  0.20264788  0.65457646  1
  Al  Al11  1  0.10976036  0.42845333  0.40450256  1
  Al  Al12  1  0.22090598  0.54085742  0.15545219  1
  Al  Al13  1  0.77558668  0.43025844  0.89815828  1
  Al  Al14  1  0.89007106  0.53829778  0.65418060  1
  Al  Al15  1  0.44474526  0.42907211  0.40452391  1
  Al  Al16  1  0.55575020  0.54052059  0.14771586  1
  Al  Al17  1  0.11056927  0.42804923  0.90637388  1
  Al  Al18  1  0.21624500  0.54282980  0.65535303  1
  Al  Al19  1  0.77760274  0.42329412  0.40894161  1
  Al  Al20  1  0.88648677  0.54009007  0.15502283  1
  Al  Al21  1  0.44267432  0.43257034  0.90516832  1
  Al  Al22  1  0.55545270  0.53927225  0.65945280  1
  Al  Al23  1  0.10554316  0.76549166  0.40879429  1
  Al  Al24  1  0.22306575  0.87180049  0.14816863  1
  Al  Al25  1  0.77558657  0.76082291  0.89815831  1
  Al  Al26  1  0.44447356  0.76109722  0.40289385  1
  Al  Al27  1  0.55575036  0.87039599  0.14771583  1
  Al  Al28  1  0.11487820  0.76062023  0.89994715  1
  Al  Al29  1  0.21821894  0.87422464  0.65934512  1
  Al  Al30  1  0.77760308  0.76577002  0.40894175  1
  Al  Al31  1  0.88812382  0.87388929  0.15281592  1
  Al  Al32  1  0.55545269  0.87194189  0.65945294  1
  B  B33  1  0.89454720  0.19714696  0.66177338  1
  B  B34  1  0.89454723  0.87497332  0.66177348  1
  B  B35  1  0.44456703  0.76105045  0.90759452  1
  N  N36  1  0.22043053  0.20419644  0.34799274  1
  N  N37  1  0.10933673  0.09537671  0.09144972  1
  N  N38  1  0.89121767  0.20445138  0.82472983  1
  N  N39  1  0.80020288  0.08323232  0.60943039  1
  N  N40  1  0.55912606  0.20377106  0.34887872  1
  N  N41  1  0.44379167  0.09540683  0.09639294  1
  N  N42  1  0.22179577  0.20679555  0.84550822  1
  N  N43  1  0.08673433  0.10467170  0.60476505  1
  N  N44  1  0.88738065  0.20466387  0.34336536  1
  N  N45  1  0.77944043  0.09361365  0.08618279  1
  N  N46  1  0.55403117  0.20631850  0.84510326  1
  N  N47  1  0.44294338  0.09380552  0.59706004  1
  N  N48  1  0.22043048  0.54204030  0.34799260  1
  N  N49  1  0.11016207  0.42825250  0.09823264  1
  N  N50  1  0.89017858  0.53824474  0.84375199  1
  N  N51  1  0.78677529  0.40304017  0.60433290  1
  N  N52  1  0.55641118  0.53964950  0.34171005  1
  N  N53  1  0.44379137  0.42746884  0.09639272  1
  N  N54  1  0.22179551  0.53807705  0.84550840  1
  N  N55  1  0.11040914  0.42812925  0.59445683  1
  N  N56  1  0.88478040  0.54094331  0.34955488  1
  N  N57  1  0.77946091  0.42563424  0.09045265  1
  N  N58  1  0.54277066  0.56381206  0.85253657  1
  N  N59  1  0.44294308  0.42991827  0.59706019  1
  N  N60  1  0.22137461  0.87264624  0.34410379  1
  N  N61  1  0.10933636  0.76195383  0.09144967  1
  N  N62  1  0.89121756  0.87099917  0.82472988  1
  N  N63  1  0.78677535  0.77685128  0.60433299  1
  N  N64  1  0.55641149  0.87060707  0.34171015  1
  N  N65  1  0.44410237  0.76128227  0.07461080  1
  N  N66  1  0.24796397  0.85935218  0.85154507  1
  N  N67  1  0.08673422  0.77526174  0.60476512  1
  N  N68  1  0.88738054  0.87462328  0.34336537  1
  N  N69  1  0.77946107  0.76157191  0.09045271  1
  N  N70  1  0.54277042  0.86008540  0.85253676  1
  N  N71  1  0.44391412  0.76137644  0.59282190  1
