# generated using pymatgen
data_Al11BN12
_symmetry_space_group_name_H-M   'P 1'
_cell_length_a   9.32987386
_cell_length_b   9.34249391
_cell_length_c   9.98482726
_cell_angle_alpha   90.03415522
_cell_angle_beta   90.58844962
_cell_angle_gamma   59.94873632
_symmetry_Int_Tables_number   1
_chemical_formula_structural   Al11BN12
_chemical_formula_sum   'Al33 B3 N36'
_cell_volume   753.27978212
_cell_formula_units_Z   3
loop_
 _symmetry_equiv_pos_site_id
 _symmetry_equiv_pos_as_xyz
  1  'x, y, z'
loop_
 _atom_site_type_symbol
 _atom_site_label
 _atom_site_symmetry_multiplicity
 _atom_site_fract_x
 _atom_site_fract_y
 _atom_site_fract_z
 _atom_site_occupancy
  Al  Al0  1  0.10241920  0.09673597  0.39829172  1
  Al  Al1  1  0.22529141  0.20176164  0.07253083  1
  Al  Al2  1  0.78029552  0.09376817  0.87896726  1
  Al  Al3  1  0.44654875  0.09191854  0.32663652  1
  Al  Al4  1  0.55254992  0.20718458  0.07194668  1
  Al  Al5  1  0.10905797  0.09390785  0.86978835  1
  Al  Al6  1  0.22069058  0.20533787  0.58835097  1
  Al  Al7  1  0.78890937  0.08836019  0.39971640  1
  Al  Al8  1  0.89054128  0.20277883  0.13749049  1
  Al  Al9  1  0.44374539  0.09003529  0.82167718  1
  Al  Al10  1  0.55963190  0.20365702  0.58158206  1
  Al  Al11  1  0.10739249  0.42863996  0.38948202  1
  Al  Al12  1  0.22390324  0.54250016  0.07193286  1
  Al  Al13  1  0.77561852  0.42980797  0.88052962  1
  Al  Al14  1  0.88898722  0.53911221  0.64199960  1
  Al  Al15  1  0.44784313  0.42677868  0.32573096  1
  Al  Al16  1  0.54859478  0.54612879  0.07010606  1
  Al  Al17  1  0.10341877  0.43245390  0.88423867  1
  Al  Al18  1  0.21984554  0.54423136  0.58194630  1
  Al  Al19  1  0.78464319  0.41937815  0.39556619  1
  Al  Al20  1  0.88560619  0.54033961  0.14003792  1
  Al  Al21  1  0.44259002  0.43344268  0.82210184  1
  Al  Al22  1  0.55630783  0.53658486  0.58345011  1
  Al  Al23  1  0.11178802  0.76369188  0.35816940  1
  Al  Al24  1  0.22872692  0.86505573  0.06236385  1
  Al  Al25  1  0.77473297  0.76120086  0.88188221  1
  Al  Al26  1  0.44418077  0.76157280  0.32801668  1
  Al  Al27  1  0.54770473  0.87171926  0.07014596  1
  Al  Al28  1  0.11303400  0.76070663  0.82834567  1
  Al  Al29  1  0.21803817  0.87351379  0.59783671  1
  Al  Al30  1  0.78527083  0.76209875  0.39667028  1
  Al  Al31  1  0.88733715  0.87426862  0.13754541  1
  Al  Al32  1  0.55656179  0.87364022  0.58340980  1
  B  B33  1  0.89369063  0.19986048  0.64991045  1
  B  B34  1  0.88913710  0.87614682  0.65150770  1
  B  B35  1  0.44544315  0.76062631  0.81676942  1
  N  N36  1  0.22640476  0.19953500  0.38432557  1
  N  N37  1  0.10547242  0.09333475  0.07169084  1
  N  N38  1  0.88392094  0.20794669  0.80959175  1
  N  N39  1  0.80394442  0.08006323  0.59581943  1
  N  N40  1  0.55548592  0.20555192  0.38743649  1
  N  N41  1  0.44672983  0.09189660  0.13377238  1
  N  N42  1  0.22446818  0.20621937  0.87001788  1
  N  N43  1  0.08291668  0.10883748  0.60142004  1
  N  N44  1  0.88864961  0.20339492  0.32769947  1
  N  N45  1  0.78484013  0.09099790  0.07307859  1
  N  N46  1  0.54694347  0.21036493  0.87888351  1
  N  N47  1  0.44607968  0.09397025  0.63491795  1
  N  N48  1  0.22657214  0.53980298  0.38489542  1
  N  N49  1  0.10630755  0.43009457  0.08580214  1
  N  N50  1  0.88402045  0.54153619  0.82816808  1
  N  N51  1  0.79457322  0.39789651  0.59069129  1
  N  N52  1  0.55250238  0.54207399  0.38950759  1
  N  N53  1  0.44690990  0.42751234  0.13353624  1
  N  N54  1  0.22333315  0.54003139  0.87537524  1
  N  N55  1  0.10547613  0.43172496  0.58911968  1
  N  N56  1  0.88441314  0.54100120  0.33327719  1
  N  N57  1  0.78150809  0.42362674  0.07519899  1
  N  N58  1  0.53730981  0.56747537  0.87408367  1
  N  N59  1  0.44437983  0.42772075  0.63492130  1
  N  N60  1  0.22861540  0.86810324  0.39934858  1
  N  N61  1  0.11130177  0.76393595  0.10506793  1
  N  N62  1  0.87728224  0.87779807  0.81230864  1
  N  N63  1  0.79526073  0.77439194  0.59102473  1
  N  N64  1  0.55288956  0.87159584  0.38986954  1
  N  N65  1  0.44299914  0.76178315  0.13829360  1
  N  N66  1  0.24834838  0.85793421  0.86183192  1
  N  N67  1  0.08916735  0.77164829  0.62622669  1
  N  N68  1  0.88552166  0.87541251  0.32912367  1
  N  N69  1  0.78057080  0.76108681  0.07562337  1
  N  N70  1  0.53635505  0.86192830  0.87444759  1
  N  N71  1  0.45032558  0.75832591  0.65434492  1
