# generated using pymatgen
data_Al11BN12
_symmetry_space_group_name_H-M   'P 1'
_cell_length_a   9.26635374
_cell_length_b   9.27292942
_cell_length_c   10.10973658
_cell_angle_alpha   89.99726045
_cell_angle_beta   90.65355285
_cell_angle_gamma   59.96713426
_symmetry_Int_Tables_number   1
_chemical_formula_structural   Al11BN12
_chemical_formula_sum   'Al33 B3 N36'
_cell_volume   751.99425168
_cell_formula_units_Z   3
loop_
 _symmetry_equiv_pos_site_id
 _symmetry_equiv_pos_as_xyz
  1  'x, y, z'
loop_
 _atom_site_type_symbol
 _atom_site_label
 _atom_site_symmetry_multiplicity
 _atom_site_fract_x
 _atom_site_fract_y
 _atom_site_fract_z
 _atom_site_occupancy
  Al  Al0  1  0.12025418  0.08728010  0.32164732  1
  Al  Al1  1  0.22279334  0.20324067  0.07693384  1
  Al  Al2  1  0.77822283  0.09417755  0.87956694  1
  Al  Al3  1  0.45332665  0.08940588  0.32730009  1
  Al  Al4  1  0.55197057  0.20729522  0.07101569  1
  Al  Al5  1  0.11517187  0.09063868  0.81904973  1
  Al  Al6  1  0.21405902  0.20671362  0.57079438  1
  Al  Al7  1  0.79546260  0.08555524  0.40546821  1
  Al  Al8  1  0.88215370  0.20778387  0.14017535  1
  Al  Al9  1  0.43766587  0.09238839  0.82242346  1
  Al  Al10  1  0.55577377  0.20539364  0.58316041  1
  Al  Al11  1  0.11647470  0.42505447  0.33183365  1
  Al  Al12  1  0.22279391  0.54053290  0.07693373  1
  Al  Al13  1  0.77464972  0.43056131  0.88141490  1
  Al  Al14  1  0.88784049  0.53936498  0.64233459  1
  Al  Al15  1  0.45332817  0.42384312  0.32729981  1
  Al  Al16  1  0.54782399  0.54655168  0.06878522  1
  Al  Al17  1  0.11179333  0.42739687  0.84176487  1
  Al  Al18  1  0.21405664  0.54579362  0.57079468  1
  Al  Al19  1  0.78875328  0.41651007  0.40189356  1
  Al  Al20  1  0.88023142  0.54316686  0.14131189  1
  Al  Al21  1  0.43766813  0.43652060  0.82242388  1
  Al  Al22  1  0.55279075  0.53858730  0.58575126  1
  Al  Al23  1  0.12025483  0.75904964  0.32164642  1
  Al  Al24  1  0.22685123  0.86985957  0.06685919  1
  Al  Al25  1  0.77464614  0.76137075  0.88141268  1
  Al  Al26  1  0.45014724  0.75821534  0.32815811  1
  Al  Al27  1  0.54782302  0.87218854  0.06878442  1
  Al  Al28  1  0.11516903  0.76077638  0.81904985  1
  Al  Al29  1  0.21050414  0.87803155  0.57811365  1
  Al  Al30  1  0.78875131  0.76131467  0.40189385  1
  Al  Al31  1  0.88215396  0.87662546  0.14017437  1
  Al  Al32  1  0.55279183  0.87518749  0.58575204  1
  B  B33  1  0.88887233  0.20065053  0.65338296  1
  B  B34  1  0.88887032  0.87706793  0.65338167  1
  B  B35  1  0.44114891  0.76270780  0.81974455  1
  N  N36  1  0.22654773  0.20074428  0.38235344  1
  N  N37  1  0.11809581  0.08750771  0.13096793  1
  N  N38  1  0.87671987  0.21151819  0.81283200  1
  N  N39  1  0.80469590  0.08094072  0.59878423  1
  N  N40  1  0.55855349  0.20399912  0.39222518  1
  N  N41  1  0.45031710  0.09033268  0.13634976  1
  N  N42  1  0.21818056  0.20414534  0.88801771  1
  N  N43  1  0.09138754  0.10408217  0.63070289  1
  N  N44  1  0.88522384  0.20578742  0.32889798  1
  N  N45  1  0.78691492  0.08983705  0.06981646  1
  N  N46  1  0.54209315  0.21222903  0.88057790  1
  N  N47  1  0.43863191  0.09701251  0.63697832  1
  N  N48  1  0.22654907  0.53926599  0.38235320  1
  N  N49  1  0.11455751  0.42601478  0.12994099  1
  N  N50  1  0.88206879  0.54224656  0.82906574  1
  N  N51  1  0.79457162  0.39646461  0.59326266  1
  N  N52  1  0.55380866  0.54145748  0.39434048  1
  N  N53  1  0.45031826  0.42592764  0.13634881  1
  N  N54  1  0.21818166  0.54423705  0.88801828  1
  N  N55  1  0.11373688  0.42642362  0.62058997  1
  N  N56  1  0.88087182  0.54284587  0.33516975  1
  N  N57  1  0.78254954  0.42366148  0.07214940  1
  N  N58  1  0.53378434  0.56963126  0.87517080  1
  N  N59  1  0.43863204  0.43093844  0.63697772  1
  N  N60  1  0.22609517  0.87023109  0.39005948  1
  N  N61  1  0.11809639  0.76098228  0.13096665  1
  N  N62  1  0.87671978  0.87832447  0.81283021  1
  N  N63  1  0.79456925  0.77555083  0.59325950  1
  N  N64  1  0.55380899  0.87128512  0.39434206  1
  N  N65  1  0.44707069  0.75975396  0.13988425  1
  N  N66  1  0.24138951  0.86258638  0.87492706  1
  N  N67  1  0.09138798  0.77111129  0.63070305  1
  N  N68  1  0.88522506  0.87554870  0.32889647  1
  N  N69  1  0.78254799  0.76037954  0.07214715  1
  N  N70  1  0.53378461  0.86313969  0.87517332  1
  N  N71  1  0.44136424  0.76260829  0.65619038  1
