# generated using pymatgen
data_Al11BN12
_symmetry_space_group_name_H-M   'P 1'
_cell_length_a   9.29880707
_cell_length_b   9.33359633
_cell_length_c   10.15823521
_cell_angle_alpha   90.12104579
_cell_angle_beta   90.44154048
_cell_angle_gamma   59.55411554
_symmetry_Int_Tables_number   1
_chemical_formula_structural   Al11BN12
_chemical_formula_sum   'Al33 B3 N36'
_cell_volume   760.05046403
_cell_formula_units_Z   3
loop_
 _symmetry_equiv_pos_site_id
 _symmetry_equiv_pos_as_xyz
  1  'x, y, z'
loop_
 _atom_site_type_symbol
 _atom_site_label
 _atom_site_symmetry_multiplicity
 _atom_site_fract_x
 _atom_site_fract_y
 _atom_site_fract_z
 _atom_site_occupancy
  Al  Al0  1  0.12056435  0.08830165  0.32080954  1
  Al  Al1  1  0.22076948  0.20726198  0.07166006  1
  Al  Al2  1  0.77476252  0.09045672  0.80667547  1
  Al  Al3  1  0.44873514  0.08975781  0.32139640  1
  Al  Al4  1  0.55646665  0.20470975  0.06760971  1
  Al  Al5  1  0.12186358  0.08821149  0.82254099  1
  Al  Al6  1  0.21816857  0.21001531  0.56805793  1
  Al  Al7  1  0.77421134  0.09384673  0.32552745  1
  Al  Al8  1  0.88395058  0.21235302  0.13948977  1
  Al  Al9  1  0.44329993  0.09030231  0.82093928  1
  Al  Al10  1  0.56056111  0.19481077  0.57121803  1
  Al  Al11  1  0.11865663  0.42537013  0.32170377  1
  Al  Al12  1  0.22160063  0.53900559  0.07061471  1
  Al  Al13  1  0.77535055  0.43659125  0.88454321  1
  Al  Al14  1  0.88847006  0.54539823  0.64375694  1
  Al  Al15  1  0.44948931  0.42716837  0.32362621  1
  Al  Al16  1  0.54440419  0.54701511  0.06730003  1
  Al  Al17  1  0.11960953  0.42480439  0.82227368  1
  Al  Al18  1  0.21760131  0.54349648  0.57068151  1
  Al  Al19  1  0.79155439  0.41588713  0.40168239  1
  Al  Al20  1  0.87734229  0.54292542  0.14375814  1
  Al  Al21  1  0.44335322  0.43266324  0.82039636  1
  Al  Al22  1  0.55182895  0.53879719  0.58535996  1
  Al  Al23  1  0.11865531  0.75848806  0.32020227  1
  Al  Al24  1  0.22570814  0.86913798  0.06569148  1
  Al  Al25  1  0.77918368  0.75951503  0.89006902  1
  Al  Al26  1  0.44968235  0.75726253  0.32790814  1
  Al  Al27  1  0.54339124  0.87306580  0.06835535  1
  Al  Al28  1  0.11096477  0.76117253  0.82157364  1
  Al  Al29  1  0.20270803  0.88297106  0.57711463  1
  Al  Al30  1  0.78755860  0.75940277  0.39695059  1
  Al  Al31  1  0.88577858  0.86880076  0.12737372  1
  Al  Al32  1  0.54981768  0.87515332  0.58307332  1
  B  B33  1  0.91053190  0.23727576  0.66274038  1
  B  B34  1  0.88293212  0.87007587  0.62483124  1
  B  B35  1  0.44110620  0.76285946  0.81915706  1
  N  N36  1  0.22409476  0.20444043  0.38149051  1
  N  N37  1  0.11863634  0.08891688  0.12719300  1
  N  N38  1  0.88121819  0.22118940  0.80912841  1
  N  N39  1  0.78235700  0.05359435  0.62213719  1
  N  N40  1  0.55379968  0.20524596  0.38375900  1
  N  N41  1  0.44596353  0.09273642  0.13151609  1
  N  N42  1  0.22113119  0.20642310  0.88447767  1
  N  N43  1  0.09247559  0.11340528  0.63117456  1
  N  N44  1  0.88921792  0.20890125  0.33015383  1
  N  N45  1  0.77159254  0.09837278  0.12801275  1
  N  N46  1  0.55494224  0.20645206  0.87859443  1
  N  N47  1  0.43730555  0.09611221  0.63459991  1
  N  N48  1  0.22493269  0.53871543  0.38362640  1
  N  N49  1  0.11418020  0.42723909  0.13252668  1
  N  N50  1  0.88521592  0.54311711  0.82883712  1
  N  N51  1  0.80098465  0.40292087  0.59336139  1
  N  N52  1  0.55521145  0.53934179  0.39498812  1
  N  N53  1  0.44677376  0.42742679  0.13259105  1
  N  N54  1  0.22282586  0.53926675  0.88273614  1
  N  N55  1  0.11963761  0.42566495  0.63161424  1
  N  N56  1  0.88261635  0.53995871  0.33597762  1
  N  N57  1  0.78060188  0.42554755  0.07176652  1
  N  N58  1  0.53496856  0.56963535  0.87332116  1
  N  N59  1  0.44604006  0.42326108  0.63388574  1
  N  N60  1  0.22395744  0.87122214  0.38977807  1
  N  N61  1  0.12123393  0.75787800  0.12934578  1
  N  N62  1  0.88836526  0.87342714  0.85958475  1
  N  N63  1  0.79528995  0.76824052  0.58938962  1
  N  N64  1  0.55152994  0.87244999  0.39225478  1
  N  N65  1  0.44464235  0.75965736  0.13984244  1
  N  N66  1  0.24304815  0.86086530  0.87279265  1
  N  N67  1  0.08360405  0.77332740  0.62937000  1
  N  N68  1  0.88831899  0.86498532  0.32609581  1
  N  N69  1  0.77578167  0.75683813  0.07862721  1
  N  N70  1  0.53519374  0.86214773  0.87422772  1
  N  N71  1  0.43827981  0.76341843  0.65452386  1
