# generated using pymatgen
data_Al11BN12
_symmetry_space_group_name_H-M   'P 1'
_cell_length_a   9.25919046
_cell_length_b   9.25702964
_cell_length_c   9.89672448
_cell_angle_alpha   90.00016898
_cell_angle_beta   90.07532630
_cell_angle_gamma   60.00755458
_symmetry_Int_Tables_number   1
_chemical_formula_structural   Al11BN12
_chemical_formula_sum   'Al33 B3 N36'
_cell_volume   734.68189874
_cell_formula_units_Z   3
loop_
 _symmetry_equiv_pos_site_id
 _symmetry_equiv_pos_as_xyz
  1  'x, y, z'
loop_
 _atom_site_type_symbol
 _atom_site_label
 _atom_site_symmetry_multiplicity
 _atom_site_fract_x
 _atom_site_fract_y
 _atom_site_fract_z
 _atom_site_occupancy
  Al  Al0  1  0.11056178  0.09319713  0.31310204  1
  Al  Al1  1  0.22131343  0.20457451  0.05772264  1
  Al  Al2  1  0.78277325  0.09194670  0.79843296  1
  Al  Al3  1  0.44518900  0.09309100  0.30741077  1
  Al  Al4  1  0.55947785  0.20359430  0.05825811  1
  Al  Al5  1  0.10949379  0.09408838  0.80343401  1
  Al  Al6  1  0.21639274  0.20756442  0.55659256  1
  Al  Al7  1  0.78059427  0.09303633  0.32188899  1
  Al  Al8  1  0.88822051  0.20418757  0.05986960  1
  Al  Al9  1  0.44256818  0.09093657  0.80757126  1
  Al  Al10  1  0.56077863  0.20294377  0.55808578  1
  Al  Al11  1  0.11076873  0.42794868  0.30661254  1
  Al  Al12  1  0.22131362  0.54077796  0.05772272  1
  Al  Al13  1  0.77663802  0.42678790  0.80346166  1
  Al  Al14  1  0.89027002  0.53819793  0.55792272  1
  Al  Al15  1  0.44518901  0.42838648  0.30741086  1
  Al  Al16  1  0.55468165  0.54322906  0.05346554  1
  Al  Al17  1  0.11015651  0.42825497  0.80774528  1
  Al  Al18  1  0.21639245  0.54270953  0.55659248  1
  Al  Al19  1  0.77790812  0.42565890  0.31478991  1
  Al  Al20  1  0.88680504  0.53993042  0.05816978  1
  Al  Al21  1  0.44256816  0.43316223  0.80757112  1
  Al  Al22  1  0.55778150  0.53545340  0.56314147  1
  Al  Al23  1  0.11056187  0.76290749  0.31310212  1
  Al  Al24  1  0.22591854  0.87037355  0.05320674  1
  Al  Al25  1  0.77663774  0.76324042  0.80346172  1
  Al  Al26  1  0.44491091  0.76087802  0.30931625  1
  Al  Al27  1  0.55468184  0.86875546  0.05346560  1
  Al  Al28  1  0.10949357  0.76308453  0.80343400  1
  Al  Al29  1  0.21411794  0.87627445  0.56334309  1
  Al  Al30  1  0.77790839  0.76309939  0.31479007  1
  Al  Al31  1  0.88822046  0.87425856  0.05986965  1
  Al  Al32  1  0.55778178  0.87343129  0.56314154  1
  B  B33  1  0.89500227  0.19851331  0.55196970  1
  B  B34  1  0.89500227  0.87315209  0.55196973  1
  B  B35  1  0.44575882  0.76045385  0.80230262  1
  N  N36  1  0.22238038  0.20568350  0.36570463  1
  N  N37  1  0.11081051  0.09241289  0.11930311  1
  N  N38  1  0.88776450  0.20458413  0.86934637  1
  N  N39  1  0.79985410  0.08340605  0.60325245  1
  N  N40  1  0.55429530  0.20618541  0.36742130  1
  N  N41  1  0.44592193  0.09227925  0.11396229  1
  N  N42  1  0.22006947  0.20505063  0.86586890  1
  N  N43  1  0.08559579  0.10747098  0.61002730  1
  N  N44  1  0.89124721  0.20465644  0.38852379  1
  N  N45  1  0.77986246  0.09340247  0.12750487  1
  N  N46  1  0.55900014  0.20383335  0.86386376  1
  N  N47  1  0.44126943  0.09676260  0.61713754  1
  N  N48  1  0.22238027  0.53860223  0.36570455  1
  N  N49  1  0.11056061  0.42805306  0.11524428  1
  N  N50  1  0.88612718  0.54026943  0.86435751  1
  N  N51  1  0.78978921  0.40159233  0.61052787  1
  N  N52  1  0.55455487  0.54020577  0.37149861  1
  N  N53  1  0.44592194  0.42846581  0.11396241  1
  N  N54  1  0.22006951  0.54154620  0.86586889  1
  N  N55  1  0.11049303  0.42808700  0.61733005  1
  N  N56  1  0.88923163  0.53871725  0.36763218  1
  N  N57  1  0.77681155  0.42677453  0.12002093  1
  N  N58  1  0.54495220  0.56303996  0.85778702  1
  N  N59  1  0.44126937  0.42863497  0.61713739  1
  N  N60  1  0.22502692  0.87081969  0.37256366  1
  N  N61  1  0.11081052  0.76344321  0.11930318  1
  N  N62  1  0.88776425  0.87431786  0.86934639  1
  N  N63  1  0.78978910  0.77528473  0.61052802  1
  N  N64  1  0.55455507  0.87190566  0.37149862  1
  N  N65  1  0.44421292  0.76122703  0.11930731  1
  N  N66  1  0.24479192  0.86093722  0.85555080  1
  N  N67  1  0.08559583  0.77360039  0.61002729  1
  N  N68  1  0.89124728  0.87076291  0.38852378  1
  N  N69  1  0.77681179  0.76308074  0.12002095  1
  N  N70  1  0.54495200  0.85867430  0.85778708  1
  N  N71  1  0.44466888  0.76099894  0.63667310  1
