# generated using pymatgen
data_Al11BN12
_symmetry_space_group_name_H-M   'P 1'
_cell_length_a   9.28264619
_cell_length_b   9.26946405
_cell_length_c   10.03504885
_cell_angle_alpha   89.99989502
_cell_angle_beta   90.41163498
_cell_angle_gamma   60.04708098
_symmetry_Int_Tables_number   1
_chemical_formula_structural   Al11BN12
_chemical_formula_sum   'Al33 B3 N36'
_cell_volume   748.11343259
_cell_formula_units_Z   3
loop_
 _symmetry_equiv_pos_site_id
 _symmetry_equiv_pos_as_xyz
  1  'x, y, z'
loop_
 _atom_site_type_symbol
 _atom_site_label
 _atom_site_symmetry_multiplicity
 _atom_site_fract_x
 _atom_site_fract_y
 _atom_site_fract_z
 _atom_site_occupancy
  Al  Al0  1  0.11443097  0.09031081  0.32041173  1
  Al  Al1  1  0.21837167  0.20726208  0.06660238  1
  Al  Al2  1  0.78305407  0.09180640  0.80506596  1
  Al  Al3  1  0.44755686  0.09128604  0.31726341  1
  Al  Al4  1  0.55780403  0.20443178  0.06747627  1
  Al  Al5  1  0.10857711  0.09457839  0.81076245  1
  Al  Al6  1  0.21670043  0.20764303  0.56481263  1
  Al  Al7  1  0.78138868  0.09263872  0.32699664  1
  Al  Al8  1  0.89001613  0.19965136  0.06692493  1
  Al  Al9  1  0.44202651  0.09156811  0.81692690  1
  Al  Al10  1  0.56234983  0.20215864  0.56638588  1
  Al  Al11  1  0.11902427  0.42382138  0.31660802  1
  Al  Al12  1  0.21837197  0.54103332  0.06660230  1
  Al  Al13  1  0.77428496  0.43384250  0.87835072  1
  Al  Al14  1  0.88495187  0.54085667  0.63737484  1
  Al  Al15  1  0.44755705  0.42782403  0.31726333  1
  Al  Al16  1  0.54326631  0.54892241  0.06376254  1
  Al  Al17  1  0.11803742  0.42431454  0.81699433  1
  Al  Al18  1  0.21670048  0.54232346  0.56481253  1
  Al  Al19  1  0.78492101  0.42381382  0.39562337  1
  Al  Al20  1  0.87634932  0.54515916  0.13838108  1
  Al  Al21  1  0.44202657  0.43307288  0.81692679  1
  Al  Al22  1  0.55296658  0.53808786  0.57935839  1
  Al  Al23  1  0.11443056  0.76192563  0.32041176  1
  Al  Al24  1  0.22304464  0.87181108  0.06177883  1
  Al  Al25  1  0.77428418  0.75853859  0.87835061  1
  Al  Al26  1  0.44810486  0.75928096  0.32032083  1
  Al  Al27  1  0.54326576  0.87447894  0.06376250  1
  Al  Al28  1  0.10857658  0.76351106  0.81076220  1
  Al  Al29  1  0.21491494  0.87587616  0.57057452  1
  Al  Al30  1  0.78492033  0.75793029  0.39562333  1
  Al  Al31  1  0.89001621  0.87699994  0.06692439  1
  Al  Al32  1  0.55296624  0.87561283  0.57935857  1
  B  B33  1  0.90073619  0.18972981  0.55930131  1
  B  B34  1  0.90073607  0.87619908  0.55930103  1
  B  B35  1  0.43980384  0.76343145  0.81348424  1
  N  N36  1  0.22460527  0.20371306  0.37630733  1
  N  N37  1  0.11033413  0.09301759  0.12918413  1
  N  N38  1  0.89102826  0.19871906  0.87608523  1
  N  N39  1  0.80276815  0.08194901  0.61149839  1
  N  N40  1  0.55673749  0.20496482  0.37741185  1
  N  N41  1  0.44334595  0.09460403  0.12579984  1
  N  N42  1  0.22014081  0.20440703  0.87667236  1
  N  N43  1  0.08770421  0.10589463  0.61910645  1
  N  N44  1  0.90012686  0.19195926  0.39628557  1
  N  N45  1  0.77855571  0.09405546  0.13635695  1
  N  N46  1  0.55941546  0.20362609  0.87456969  1
  N  N47  1  0.44176067  0.09818020  0.62868766  1
  N  N48  1  0.22460527  0.53834896  0.37630719  1
  N  N49  1  0.11168459  0.42749122  0.12562996  1
  N  N50  1  0.88575877  0.54045381  0.82582549  1
  N  N51  1  0.79157815  0.40299808  0.58916385  1
  N  N52  1  0.55274972  0.54088692  0.38451902  1
  N  N53  1  0.44334614  0.42871691  0.12579983  1
  N  N54  1  0.22014079  0.54211891  0.87667223  1
  N  N55  1  0.11646571  0.42510025  0.62526488  1
  N  N56  1  0.88463107  0.54101737  0.33133008  1
  N  N57  1  0.77390549  0.43090924  0.07670392  1
  N  N58  1  0.53500054  0.56901124  0.86834017  1
  N  N59  1  0.44176069  0.42672594  0.62868755  1
  N  N60  1  0.22860857  0.86902931  0.38203137  1
  N  N61  1  0.11033401  0.76331508  0.12918402  1
  N  N62  1  0.89102766  0.87691924  0.87608471  1
  N  N63  1  0.79157804  0.77208924  0.58916383  1
  N  N64  1  0.55274917  0.87303057  0.38451917  1
  N  N65  1  0.44015442  0.76325611  0.13220892  1
  N  N66  1  0.24166455  0.86250083  0.86582191  1
  N  N67  1  0.08770418  0.77306749  0.61910619  1
  N  N68  1  0.90012618  0.87457987  0.39628542  1
  N  N69  1  0.77390504  0.76185262  0.07670390  1
  N  N70  1  0.53500009  0.86265545  0.86834001  1
  N  N71  1  0.44156475  0.76255092  0.64864336  1
