# generated using pymatgen
data_Al11BN12
_symmetry_space_group_name_H-M   'P 1'
_cell_length_a   9.26622010
_cell_length_b   9.32261330
_cell_length_c   9.97289570
_cell_angle_alpha   90.24206692
_cell_angle_beta   89.65912611
_cell_angle_gamma   60.06123386
_symmetry_Int_Tables_number   1
_chemical_formula_structural   Al11BN12
_chemical_formula_sum   'Al33 B3 N36'
_cell_volume   746.51266681
_cell_formula_units_Z   3
loop_
 _symmetry_equiv_pos_site_id
 _symmetry_equiv_pos_as_xyz
  1  'x, y, z'
loop_
 _atom_site_type_symbol
 _atom_site_label
 _atom_site_symmetry_multiplicity
 _atom_site_fract_x
 _atom_site_fract_y
 _atom_site_fract_z
 _atom_site_occupancy
  Al  Al0  1  0.10057374  0.10369449  0.40105906  1
  Al  Al1  1  0.22157394  0.20285395  0.14497268  1
  Al  Al2  1  0.78037727  0.09150885  0.87932018  1
  Al  Al3  1  0.44571665  0.09592323  0.39810400  1
  Al  Al4  1  0.55867974  0.20419524  0.14318033  1
  Al  Al5  1  0.11070091  0.09739799  0.87974785  1
  Al  Al6  1  0.21807255  0.20787028  0.64557963  1
  Al  Al7  1  0.78106035  0.09910105  0.40378460  1
  Al  Al8  1  0.88991177  0.20359084  0.14007406  1
  Al  Al9  1  0.44269181  0.09031143  0.89539342  1
  Al  Al10  1  0.56271057  0.20823628  0.64503462  1
  Al  Al11  1  0.11059783  0.42727573  0.39375015  1
  Al  Al12  1  0.22156970  0.54172883  0.14524702  1
  Al  Al13  1  0.77334302  0.43155550  0.88955302  1
  Al  Al14  1  0.89277310  0.53303644  0.64724970  1
  Al  Al15  1  0.44420818  0.42756996  0.39758298  1
  Al  Al16  1  0.55870667  0.53435459  0.15016176  1
  Al  Al17  1  0.11138162  0.42610256  0.89907453  1
  Al  Al18  1  0.21905675  0.53659527  0.64717217  1
  Al  Al19  1  0.77977425  0.42329407  0.40194051  1
  Al  Al20  1  0.88631311  0.53974872  0.14652256  1
  Al  Al21  1  0.44372478  0.43245906  0.89549657  1
  Al  Al22  1  0.55592818  0.54000787  0.64192967  1
  Al  Al23  1  0.09952184  0.76155086  0.40074474  1
  Al  Al24  1  0.23522089  0.86685348  0.07430029  1
  Al  Al25  1  0.77207599  0.75687535  0.89367323  1
  Al  Al26  1  0.43971745  0.76336108  0.35451778  1
  Al  Al27  1  0.55881883  0.87447873  0.15163273  1
  Al  Al28  1  0.11459206  0.75451135  0.88440339  1
  Al  Al29  1  0.21284499  0.87732070  0.59212697  1
  Al  Al30  1  0.78114482  0.76501720  0.40204721  1
  Al  Al31  1  0.88967485  0.87487533  0.14366702  1
  Al  Al32  1  0.55692524  0.87424801  0.64440391  1
  B  B33  1  0.88496177  0.20650855  0.64844472  1
  B  B34  1  0.90764167  0.83110346  0.66188664  1
  B  B35  1  0.44428718  0.76043124  0.84012223  1
  N  N36  1  0.22202589  0.20303854  0.33689483  1
  N  N37  1  0.10901056  0.09768506  0.07410743  1
  N  N38  1  0.88571889  0.20819354  0.81470102  1
  N  N39  1  0.78684859  0.12103331  0.59221275  1
  N  N40  1  0.55751812  0.20562705  0.33620440  1
  N  N41  1  0.44577819  0.09258756  0.08572775  1
  N  N42  1  0.22354780  0.20750105  0.83426899  1
  N  N43  1  0.08148375  0.11480711  0.59862610  1
  N  N44  1  0.88858122  0.20766953  0.32912711  1
  N  N45  1  0.78098993  0.09162449  0.07401572  1
  N  N46  1  0.55393316  0.20580060  0.83573771  1
  N  N47  1  0.44597211  0.09664104  0.58891725  1
  N  N48  1  0.22016665  0.54194603  0.33674931  1
  N  N49  1  0.11149232  0.42691244  0.08935831  1
  N  N50  1  0.89105095  0.53671659  0.83637836  1
  N  N51  1  0.78726472  0.41128066  0.59505975  1
  N  N52  1  0.56123785  0.53030910  0.34229550  1
  N  N53  1  0.44547211  0.42771162  0.08553657  1
  N  N54  1  0.22357903  0.53363424  0.83560253  1
  N  N55  1  0.11196769  0.42603540  0.58357122  1
  N  N56  1  0.88553962  0.54198723  0.33990495  1
  N  N57  1  0.77785949  0.42654634  0.08073303  1
  N  N58  1  0.54108053  0.56692397  0.83809944  1
  N  N59  1  0.43940847  0.43280113  0.58804441  1
  N  N60  1  0.21383067  0.87500004  0.39363370  1
  N  N61  1  0.10912005  0.76008951  0.07711101  1
  N  N62  1  0.88939984  0.86400809  0.81513524  1
  N  N63  1  0.79385711  0.76964713  0.59856801  1
  N  N64  1  0.56211278  0.87551591  0.34460303  1
  N  N65  1  0.44069129  0.76334980  0.14540275  1
  N  N66  1  0.25571663  0.85460264  0.86678817  1
  N  N67  1  0.08150724  0.76579653  0.60077772  1
  N  N68  1  0.88533941  0.87806237  0.33434311  1
  N  N69  1  0.77875419  0.76159198  0.08347742  1
  N  N70  1  0.54188667  0.85801035  0.83891943  1
  N  N71  1  0.44626939  0.76233527  0.59905012  1
