# generated using pymatgen
data_Al11BN12
_symmetry_space_group_name_H-M   'P 1'
_cell_length_a   9.33684903
_cell_length_b   9.35363473
_cell_length_c   9.95660765
_cell_angle_alpha   90.02781088
_cell_angle_beta   90.49231236
_cell_angle_gamma   59.95628864
_symmetry_Int_Tables_number   1
_chemical_formula_structural   Al11BN12
_chemical_formula_sum   'Al33 B3 N36'
_cell_volume   752.68117678
_cell_formula_units_Z   3
loop_
 _symmetry_equiv_pos_site_id
 _symmetry_equiv_pos_as_xyz
  1  'x, y, z'
loop_
 _atom_site_type_symbol
 _atom_site_label
 _atom_site_symmetry_multiplicity
 _atom_site_fract_x
 _atom_site_fract_y
 _atom_site_fract_z
 _atom_site_occupancy
  Al  Al0  1  0.10433279  0.09637514  0.40057436  1
  Al  Al1  1  0.22510609  0.20222233  0.07416162  1
  Al  Al2  1  0.78047374  0.09292293  0.87734017  1
  Al  Al3  1  0.44591277  0.09245513  0.32689480  1
  Al  Al4  1  0.55362065  0.20681164  0.07224544  1
  Al  Al5  1  0.10813440  0.09448680  0.86701851  1
  Al  Al6  1  0.21904948  0.20581639  0.59787320  1
  Al  Al7  1  0.78915576  0.08910062  0.39784896  1
  Al  Al8  1  0.89078173  0.20300972  0.13744754  1
  Al  Al9  1  0.44531069  0.08902477  0.82184060  1
  Al  Al10  1  0.56014220  0.20328515  0.58029992  1
  Al  Al11  1  0.10882408  0.42781898  0.39146212  1
  Al  Al12  1  0.22537314  0.53917771  0.07102034  1
  Al  Al13  1  0.77484767  0.43011212  0.88033645  1
  Al  Al14  1  0.88697836  0.54003526  0.64120606  1
  Al  Al15  1  0.44571908  0.42845717  0.32657165  1
  Al  Al16  1  0.54858098  0.54626260  0.07053850  1
  Al  Al17  1  0.10302015  0.43150734  0.88118012  1
  Al  Al18  1  0.22063818  0.54111758  0.58826928  1
  Al  Al19  1  0.78529981  0.41911912  0.39473410  1
  Al  Al20  1  0.88586347  0.54024593  0.13994909  1
  Al  Al21  1  0.44396625  0.43270497  0.82128215  1
  Al  Al22  1  0.55655556  0.53643311  0.58222547  1
  Al  Al23  1  0.10360089  0.76768938  0.39876749  1
  Al  Al24  1  0.23068754  0.86791489  0.06271062  1
  Al  Al25  1  0.77512492  0.76117230  0.88063594  1
  Al  Al26  1  0.44253351  0.76215801  0.32895358  1
  Al  Al27  1  0.54892184  0.87138190  0.07063462  1
  Al  Al28  1  0.10864090  0.76316817  0.86648236  1
  Al  Al29  1  0.21837487  0.87386639  0.60530853  1
  Al  Al30  1  0.78557341  0.76206033  0.39462522  1
  Al  Al31  1  0.89056289  0.87313424  0.13734133  1
  Al  Al32  1  0.55652772  0.87373085  0.58187716  1
  B  B33  1  0.89185020  0.19998689  0.64968890  1
  B  B34  1  0.89260255  0.87309413  0.64959936  1
  B  B35  1  0.44618756  0.76008997  0.81581993  1
  N  N36  1  0.22604221  0.20017216  0.38271097  1
  N  N37  1  0.10547329  0.09443368  0.06984198  1
  N  N38  1  0.88226550  0.20878083  0.80981140  1
  N  N39  1  0.80312779  0.08215072  0.59520695  1
  N  N40  1  0.55605355  0.20551101  0.38569748  1
  N  N41  1  0.44679617  0.09205050  0.13261489  1
  N  N42  1  0.22335162  0.20623445  0.86329288  1
  N  N43  1  0.08221667  0.10887357  0.60373532  1
  N  N44  1  0.89060839  0.20295316  0.32777519  1
  N  N45  1  0.78568247  0.09056727  0.07295704  1
  N  N46  1  0.54765965  0.20964270  0.87882342  1
  N  N47  1  0.44714825  0.09338151  0.63441973  1
  N  N48  1  0.22580368  0.54049686  0.38493231  1
  N  N49  1  0.10597677  0.42998143  0.08323541  1
  N  N50  1  0.88289207  0.54177631  0.82792067  1
  N  N51  1  0.79416261  0.39812780  0.59035264  1
  N  N52  1  0.55316638  0.54187054  0.38823758  1
  N  N53  1  0.44608335  0.42821718  0.13314019  1
  N  N54  1  0.22455819  0.53605223  0.86918790  1
  N  N55  1  0.10451653  0.43125331  0.59103872  1
  N  N56  1  0.88579785  0.54038482  0.33333699  1
  N  N57  1  0.78123405  0.42391530  0.07558828  1
  N  N58  1  0.53671894  0.56780219  0.87440744  1
  N  N59  1  0.44611549  0.42660032  0.63412948  1
  N  N60  1  0.22940359  0.86889660  0.40018086  1
  N  N61  1  0.10539870  0.76713699  0.07121948  1
  N  N62  1  0.88259130  0.87492961  0.80974907  1
  N  N63  1  0.79441496  0.77434899  0.59020461  1
  N  N64  1  0.55358971  0.87146765  0.38804645  1
  N  N65  1  0.44244420  0.76211582  0.13826465  1
  N  N66  1  0.24837281  0.85891126  0.85704005  1
  N  N67  1  0.08269101  0.77467470  0.60351347  1
  N  N68  1  0.88980714  0.87382030  0.32761699  1
  N  N69  1  0.78153975  0.76112165  0.07571160  1
  N  N70  1  0.53693420  0.86167874  0.87474842  1
  N  N71  1  0.45236236  0.75721826  0.65399388  1
