# generated using pymatgen
data_Al11BN12
_symmetry_space_group_name_H-M   'P 1'
_cell_length_a   9.29820128
_cell_length_b   9.28384550
_cell_length_c   9.96754414
_cell_angle_alpha   90.00947940
_cell_angle_beta   90.29958360
_cell_angle_gamma   59.97715628
_symmetry_Int_Tables_number   1
_chemical_formula_structural   Al11BN12
_chemical_formula_sum   'Al33 B3 N36'
_cell_volume   744.96857775
_cell_formula_units_Z   3
loop_
 _symmetry_equiv_pos_site_id
 _symmetry_equiv_pos_as_xyz
  1  'x, y, z'
loop_
 _atom_site_type_symbol
 _atom_site_label
 _atom_site_symmetry_multiplicity
 _atom_site_fract_x
 _atom_site_fract_y
 _atom_site_fract_z
 _atom_site_occupancy
  Al  Al0  1  0.11318659  0.09181588  0.31473298  1
  Al  Al1  1  0.21781057  0.20709510  0.06169396  1
  Al  Al2  1  0.78280513  0.08908349  0.80110770  1
  Al  Al3  1  0.44769373  0.09173632  0.31144984  1
  Al  Al4  1  0.55831332  0.20391583  0.06200676  1
  Al  Al5  1  0.10899786  0.09322895  0.80721225  1
  Al  Al6  1  0.21653390  0.20715718  0.55945505  1
  Al  Al7  1  0.78152564  0.09459042  0.32076309  1
  Al  Al8  1  0.88621481  0.20685691  0.06167890  1
  Al  Al9  1  0.44190011  0.09068081  0.81184470  1
  Al  Al10  1  0.56189303  0.20280314  0.56120876  1
  Al  Al11  1  0.12101236  0.42417331  0.31312788  1
  Al  Al12  1  0.21934458  0.54053844  0.06147134  1
  Al  Al13  1  0.77137217  0.42480438  0.81183266  1
  Al  Al14  1  0.88799221  0.54624867  0.62479751  1
  Al  Al15  1  0.44831060  0.42828979  0.30994070  1
  Al  Al16  1  0.55372360  0.54309446  0.05688963  1
  Al  Al17  1  0.11665522  0.42405771  0.81131329  1
  Al  Al18  1  0.21797187  0.54265453  0.55902011  1
  Al  Al19  1  0.78064898  0.42448716  0.36021031  1
  Al  Al20  1  0.87811338  0.54436850  0.13510692  1
  Al  Al21  1  0.44101222  0.43205456  0.81230170  1
  Al  Al22  1  0.55153296  0.53913259  0.57181371  1
  Al  Al23  1  0.11499318  0.76255296  0.31458544  1
  Al  Al24  1  0.22383592  0.87041481  0.05672284  1
  Al  Al25  1  0.77449545  0.75536343  0.87419843  1
  Al  Al26  1  0.44769723  0.76006555  0.31385556  1
  Al  Al27  1  0.54311113  0.87348629  0.05916386  1
  Al  Al28  1  0.10848417  0.76250574  0.80555436  1
  Al  Al29  1  0.21455635  0.87645457  0.56548322  1
  Al  Al30  1  0.78449365  0.76215240  0.38893355  1
  Al  Al31  1  0.89008797  0.87642574  0.06234056  1
  Al  Al32  1  0.55285990  0.87648725  0.57369069  1
  B  B33  1  0.89929609  0.18941351  0.55590121  1
  B  B34  1  0.90013858  0.87796281  0.55372307  1
  B  B35  1  0.44066197  0.76329646  0.80724143  1
  N  N36  1  0.22493272  0.20336851  0.37021857  1
  N  N37  1  0.10948292  0.09262652  0.12223612  1
  N  N38  1  0.88759720  0.20217376  0.87045271  1
  N  N39  1  0.80295836  0.08211174  0.60664035  1
  N  N40  1  0.55682363  0.20569977  0.37113942  1
  N  N41  1  0.44327337  0.09432272  0.11943426  1
  N  N42  1  0.21975461  0.20397473  0.87065564  1
  N  N43  1  0.08687778  0.10621561  0.61463259  1
  N  N44  1  0.89764063  0.19685034  0.39481481  1
  N  N45  1  0.77919072  0.09357130  0.12947705  1
  N  N46  1  0.55911863  0.20231963  0.86819514  1
  N  N47  1  0.44121740  0.09868665  0.62262369  1
  N  N48  1  0.22649594  0.53914444  0.36992147  1
  N  N49  1  0.11219357  0.42742866  0.12083797  1
  N  N50  1  0.88537064  0.53969501  0.81858409  1
  N  N51  1  0.78684312  0.40321710  0.60490141  1
  N  N52  1  0.55204762  0.54213430  0.38084007  1
  N  N53  1  0.44418663  0.42879781  0.11777817  1
  N  N54  1  0.21940893  0.54135486  0.87057765  1
  N  N55  1  0.11773973  0.42511415  0.61784057  1
  N  N56  1  0.88944258  0.54339462  0.33443087  1
  N  N57  1  0.77190860  0.42520326  0.11485571  1
  N  N58  1  0.54082569  0.56401537  0.86090590  1
  N  N59  1  0.44133783  0.42720668  0.62295372  1
  N  N60  1  0.22820547  0.87044552  0.37594936  1
  N  N61  1  0.11046789  0.76280925  0.12317659  1
  N  N62  1  0.89092428  0.87477596  0.87088551  1
  N  N63  1  0.79079741  0.77741134  0.58354419  1
  N  N64  1  0.55298382  0.87318085  0.37785018  1
  N  N65  1  0.44117802  0.76060202  0.12507974  1
  N  N66  1  0.24240826  0.86065242  0.86010156  1
  N  N67  1  0.08775252  0.77339398  0.61315055  1
  N  N68  1  0.90055911  0.87717715  0.38980195  1
  N  N69  1  0.77387058  0.76077758  0.07333260  1
  N  N70  1  0.53524066  0.86155082  0.86258273  1
  N  N71  1  0.44142976  0.76326330  0.64250717  1
