# generated using pymatgen
data_Al11BN12
_symmetry_space_group_name_H-M   'P 1'
_cell_length_a   9.28264606
_cell_length_b   9.26946539
_cell_length_c   10.03505042
_cell_angle_alpha   89.99983728
_cell_angle_beta   90.41157201
_cell_angle_gamma   60.04712931
_symmetry_Int_Tables_number   1
_chemical_formula_structural   Al11BN12
_chemical_formula_sum   'Al33 B3 N36'
_cell_volume   748.11401539
_cell_formula_units_Z   3
loop_
 _symmetry_equiv_pos_site_id
 _symmetry_equiv_pos_as_xyz
  1  'x, y, z'
loop_
 _atom_site_type_symbol
 _atom_site_label
 _atom_site_symmetry_multiplicity
 _atom_site_fract_x
 _atom_site_fract_y
 _atom_site_fract_z
 _atom_site_occupancy
  Al  Al0  1  0.11444189  0.09030521  0.31854330  1
  Al  Al1  1  0.21838408  0.20725565  0.06473996  1
  Al  Al2  1  0.78306577  0.09180036  0.80319789  1
  Al  Al3  1  0.44756777  0.09128086  0.31540066  1
  Al  Al4  1  0.55781602  0.20442570  0.06561513  1
  Al  Al5  1  0.10858907  0.09457191  0.80889779  1
  Al  Al6  1  0.21671229  0.20763658  0.56294682  1
  Al  Al7  1  0.78139948  0.09263323  0.32513539  1
  Al  Al8  1  0.89002604  0.19964624  0.06506005  1
  Al  Al9  1  0.44203699  0.09156337  0.81506446  1
  Al  Al10  1  0.56236016  0.20215343  0.56452478  1
  Al  Al11  1  0.11903337  0.42381678  0.31474375  1
  Al  Al12  1  0.21838443  0.54102705  0.06473989  1
  Al  Al13  1  0.77429653  0.43383511  0.87647828  1
  Al  Al14  1  0.88496544  0.54084986  0.63550422  1
  Al  Al15  1  0.44756808  0.42781819  0.31540063  1
  Al  Al16  1  0.54327816  0.54891623  0.06189175  1
  Al  Al17  1  0.11804792  0.42430917  0.81513103  1
  Al  Al18  1  0.21671246  0.54231789  0.56294665  1
  Al  Al19  1  0.78493103  0.42380847  0.39375181  1
  Al  Al20  1  0.87636184  0.54515268  0.13650837  1
  Al  Al21  1  0.44203704  0.43306673  0.81506435  1
  Al  Al22  1  0.55297780  0.53808236  0.57749056  1
  Al  Al23  1  0.11444154  0.76192015  0.31854328  1
  Al  Al24  1  0.22305567  0.87180540  0.05991209  1
  Al  Al25  1  0.77429573  0.75853400  0.87647848  1
  Al  Al26  1  0.44811602  0.75927525  0.31844909  1
  Al  Al27  1  0.54327749  0.87447312  0.06189188  1
  Al  Al28  1  0.10858852  0.76350526  0.80889750  1
  Al  Al29  1  0.21492553  0.87587081  0.56870440  1
  Al  Al30  1  0.78493034  0.75792533  0.39375133  1
  Al  Al31  1  0.89002607  0.87699491  0.06505960  1
  Al  Al32  1  0.55297747  0.87560703  0.57749045  1
  B  B33  1  0.90074773  0.18972618  0.55743427  1
  B  B34  1  0.90074761  0.87619048  0.55743384  1
  B  B35  1  0.43981429  0.76342611  0.81161556  1
  N  N36  1  0.22461547  0.20370773  0.37444104  1
  N  N37  1  0.11034483  0.09301174  0.12731712  1
  N  N38  1  0.89103980  0.19871205  0.87421874  1
  N  N39  1  0.80277891  0.08194353  0.60963097  1
  N  N40  1  0.55674795  0.20495957  0.37554975  1
  N  N41  1  0.44335833  0.09459664  0.12393573  1
  N  N42  1  0.22015139  0.20440163  0.87480908  1
  N  N43  1  0.08771572  0.10588877  0.61724017  1
  N  N44  1  0.90013892  0.19195381  0.39441814  1
  N  N45  1  0.77856725  0.09404947  0.13449473  1
  N  N46  1  0.55942755  0.20361984  0.87270640  1
  N  N47  1  0.44177193  0.09817355  0.62682385  1
  N  N48  1  0.22461551  0.53834404  0.37444082  1
  N  N49  1  0.11169700  0.42748476  0.12376491  1
  N  N50  1  0.88576910  0.54044864  0.82395509  1
  N  N51  1  0.79159002  0.40299224  0.58729389  1
  N  N52  1  0.55275995  0.54088268  0.38265142  1
  N  N53  1  0.44335861  0.42871154  0.12393575  1
  N  N54  1  0.22015143  0.54211347  0.87480896  1
  N  N55  1  0.11647911  0.42509345  0.62339941  1
  N  N56  1  0.88464037  0.54101258  0.32945915  1
  N  N57  1  0.77391686  0.43090362  0.07483345  1
  N  N58  1  0.53501191  0.56900538  0.86647086  1
  N  N59  1  0.44177193  0.42672095  0.62682381  1
  N  N60  1  0.22862008  0.86902353  0.38016144  1
  N  N61  1  0.11034468  0.76330971  0.12731699  1
  N  N62  1  0.89103922  0.87691440  0.87421826  1
  N  N63  1  0.79158994  0.77208298  0.58729353  1
  N  N64  1  0.55275939  0.87302450  0.38265123  1
  N  N65  1  0.44016639  0.76324984  0.13033832  1
  N  N66  1  0.24167647  0.86249473  0.86395547  1
  N  N67  1  0.08771572  0.77306144  0.61723983  1
  N  N68  1  0.90013831  0.87457306  0.39441785  1
  N  N69  1  0.77391628  0.76184656  0.07483369  1
  N  N70  1  0.53501147  0.86264957  0.86647086  1
  N  N71  1  0.44157532  0.76254557  0.64677472  1
