# generated using pymatgen
data_Al11BN12
_symmetry_space_group_name_H-M   'P 1'
_cell_length_a   9.29848343
_cell_length_b   9.33386363
_cell_length_c   10.15690798
_cell_angle_alpha   90.11066700
_cell_angle_beta   90.43452418
_cell_angle_gamma   59.54947676
_symmetry_Int_Tables_number   1
_chemical_formula_structural   Al11BN12
_chemical_formula_sum   'Al33 B3 N36'
_cell_volume   759.91079090
_cell_formula_units_Z   3
loop_
 _symmetry_equiv_pos_site_id
 _symmetry_equiv_pos_as_xyz
  1  'x, y, z'
loop_
 _atom_site_type_symbol
 _atom_site_label
 _atom_site_symmetry_multiplicity
 _atom_site_fract_x
 _atom_site_fract_y
 _atom_site_fract_z
 _atom_site_occupancy
  Al  Al0  1  0.12047642  0.08810630  0.32086516  1
  Al  Al1  1  0.22071175  0.20729553  0.07169199  1
  Al  Al2  1  0.77635095  0.08847578  0.80853943  1
  Al  Al3  1  0.44880008  0.08980616  0.32134494  1
  Al  Al4  1  0.55620611  0.20493005  0.06741878  1
  Al  Al5  1  0.12191424  0.08822411  0.82265827  1
  Al  Al6  1  0.21822730  0.20994754  0.56789722  1
  Al  Al7  1  0.77412942  0.09319447  0.32349732  1
  Al  Al8  1  0.88393243  0.21257065  0.13947466  1
  Al  Al9  1  0.44332627  0.09029109  0.82095050  1
  Al  Al10  1  0.56060004  0.19455068  0.57160968  1
  Al  Al11  1  0.11876100  0.42531096  0.32168976  1
  Al  Al12  1  0.22182414  0.53886665  0.07060201  1
  Al  Al13  1  0.77534781  0.43703010  0.88445563  1
  Al  Al14  1  0.88869309  0.54563310  0.64333332  1
  Al  Al15  1  0.44956306  0.42699324  0.32377308  1
  Al  Al16  1  0.54445460  0.54696234  0.06733093  1
  Al  Al17  1  0.11964919  0.42488714  0.82225013  1
  Al  Al18  1  0.21758669  0.54328698  0.57068218  1
  Al  Al19  1  0.79161105  0.41547794  0.40165420  1
  Al  Al20  1  0.87734828  0.54260131  0.14410607  1
  Al  Al21  1  0.44350248  0.43268870  0.82037252  1
  Al  Al22  1  0.55181450  0.53885288  0.58530232  1
  Al  Al23  1  0.11779322  0.75871716  0.31931641  1
  Al  Al24  1  0.22591377  0.86899291  0.06557613  1
  Al  Al25  1  0.77950815  0.75988065  0.89149980  1
  Al  Al26  1  0.44923149  0.75718045  0.32790003  1
  Al  Al27  1  0.54315163  0.87301251  0.06877023  1
  Al  Al28  1  0.10945815  0.76217188  0.82305549  1
  Al  Al29  1  0.20236841  0.88319038  0.57730613  1
  Al  Al30  1  0.78710801  0.75930075  0.39472273  1
  Al  Al31  1  0.88671586  0.86963493  0.11985122  1
  Al  Al32  1  0.54974197  0.87522490  0.58253145  1
  B  B33  1  0.91088709  0.23810173  0.66314453  1
  B  B34  1  0.88324337  0.86969216  0.61758186  1
  B  B35  1  0.44115375  0.76290253  0.81914197  1
  N  N36  1  0.22414034  0.20431013  0.38141445  1
  N  N37  1  0.11864593  0.08880877  0.12709783  1
  N  N38  1  0.88112755  0.22141942  0.80899060  1
  N  N39  1  0.78239349  0.05136321  0.62394313  1
  N  N40  1  0.55433616  0.20485627  0.38415858  1
  N  N41  1  0.44583038  0.09289384  0.13149050  1
  N  N42  1  0.22103857  0.20654917  0.88445429  1
  N  N43  1  0.09232323  0.11362249  0.63118349  1
  N  N44  1  0.88919593  0.20857048  0.33021037  1
  N  N45  1  0.77087910  0.09943039  0.12824589  1
  N  N46  1  0.55509337  0.20636099  0.87831050  1
  N  N47  1  0.43722001  0.09598131  0.63455989  1
  N  N48  1  0.22483370  0.53884437  0.38375899  1
  N  N49  1  0.11422666  0.42723598  0.13247672  1
  N  N50  1  0.88504963  0.54412202  0.82851305  1
  N  N51  1  0.80104149  0.40315082  0.59344560  1
  N  N52  1  0.55526172  0.53922902  0.39502765  1
  N  N53  1  0.44680709  0.42733577  0.13262894  1
  N  N54  1  0.22283124  0.53938071  0.88250582  1
  N  N55  1  0.11976859  0.42547741  0.63161764  1
  N  N56  1  0.88286825  0.53919457  0.33605454  1
  N  N57  1  0.78070418  0.42549544  0.07156690  1
  N  N58  1  0.53503371  0.56974163  0.87325370  1
  N  N59  1  0.44604896  0.42328864  0.63387380  1
  N  N60  1  0.22357966  0.87100169  0.39005879  1
  N  N61  1  0.12226563  0.75735525  0.12940303  1
  N  N62  1  0.89034609  0.87581878  0.87365542  1
  N  N63  1  0.79568717  0.76801601  0.58795086  1
  N  N64  1  0.55114786  0.87242245  0.39194373  1
  N  N65  1  0.44441314  0.75957733  0.13989091  1
  N  N66  1  0.24331302  0.86078159  0.87246051  1
  N  N67  1  0.08142917  0.77409395  0.62981678  1
  N  N68  1  0.88818821  0.86497976  0.32542690  1
  N  N69  1  0.77475801  0.75618140  0.07999103  1
  N  N70  1  0.53541623  0.86232572  0.87427216  1
  N  N71  1  0.43825244  0.76347063  0.65441356  1
