# generated using pymatgen
data_Al11BN12
_symmetry_space_group_name_H-M   'P 1'
_cell_length_a   9.25921806
_cell_length_b   9.25703655
_cell_length_c   9.89675275
_cell_angle_alpha   89.99999098
_cell_angle_beta   90.07546421
_cell_angle_gamma   60.00780209
_symmetry_Int_Tables_number   1
_chemical_formula_structural   Al11BN12
_chemical_formula_sum   'Al33 B3 N36'
_cell_volume   734.68856226
_cell_formula_units_Z   3
loop_
 _symmetry_equiv_pos_site_id
 _symmetry_equiv_pos_as_xyz
  1  'x, y, z'
loop_
 _atom_site_type_symbol
 _atom_site_label
 _atom_site_symmetry_multiplicity
 _atom_site_fract_x
 _atom_site_fract_y
 _atom_site_fract_z
 _atom_site_occupancy
  Al  Al0  1  0.11062069  0.09317005  0.30046033  1
  Al  Al1  1  0.22137938  0.20454243  0.04507021  1
  Al  Al2  1  0.78287495  0.09189615  0.78579084  1
  Al  Al3  1  0.44525351  0.09306052  0.29475751  1
  Al  Al4  1  0.55954802  0.20355942  0.04561005  1
  Al  Al5  1  0.10959336  0.09403995  0.79079237  1
  Al  Al6  1  0.21648678  0.20751630  0.54393610  1
  Al  Al7  1  0.78066015  0.09300333  0.30925941  1
  Al  Al8  1  0.88828514  0.20415437  0.04723474  1
  Al  Al9  1  0.44267042  0.09088386  0.79492091  1
  Al  Al10  1  0.56086719  0.20289983  0.54544093  1
  Al  Al11  1  0.11082936  0.42791842  0.29395706  1
  Al  Al12  1  0.22137956  0.54074446  0.04507019  1
  Al  Al13  1  0.77673879  0.42673766  0.79082541  1
  Al  Al14  1  0.89036428  0.53815079  0.54527543  1
  Al  Al15  1  0.44525354  0.42835259  0.29475752  1
  Al  Al16  1  0.55474303  0.54320094  0.04082435  1
  Al  Al17  1  0.11026228  0.42820214  0.79508715  1
  Al  Al18  1  0.21648662  0.54266387  0.54393598  1
  Al  Al19  1  0.77796772  0.42563144  0.30214099  1
  Al  Al20  1  0.88687190  0.53989712  0.04551701  1
  Al  Al21  1  0.44267032  0.43311299  0.79492082  1
  Al  Al22  1  0.55787356  0.53540940  0.55049493  1
  Al  Al23  1  0.11062082  0.76287573  0.30046030  1
  Al  Al24  1  0.22597751  0.87034427  0.04056686  1
  Al  Al25  1  0.77673866  0.76319010  0.79082547  1
  Al  Al26  1  0.44496534  0.76085088  0.29667560  1
  Al  Al27  1  0.55474322  0.86872262  0.04082435  1
  Al  Al28  1  0.10959314  0.76303357  0.79079231  1
  Al  Al29  1  0.21419984  0.87623369  0.55069983  1
  Al  Al30  1  0.77796794  0.76306722  0.30214091  1
  Al  Al31  1  0.88828507  0.87422756  0.04723468  1
  Al  Al32  1  0.55787386  0.87338372  0.55049500  1
  B  B33  1  0.89508530  0.19848212  0.53933195  1
  B  B34  1  0.89508554  0.87309878  0.53933186  1
  B  B35  1  0.44586002  0.76040337  0.78965817  1
  N  N36  1  0.22244681  0.20565217  0.35305025  1
  N  N37  1  0.11087452  0.09238365  0.10666096  1
  N  N38  1  0.88786397  0.20453424  0.85670913  1
  N  N39  1  0.79994110  0.08336295  0.59061242  1
  N  N40  1  0.55435970  0.20615340  0.35477710  1
  N  N41  1  0.44598694  0.09224820  0.10131135  1
  N  N42  1  0.22017127  0.20500100  0.85321742  1
  N  N43  1  0.08568495  0.10743063  0.59738419  1
  N  N44  1  0.89131127  0.20463077  0.37588420  1
  N  N45  1  0.77992668  0.09337013  0.11487207  1
  N  N46  1  0.55910017  0.20378356  0.85121601  1
  N  N47  1  0.44136213  0.09671432  0.60448813  1
  N  N48  1  0.22244672  0.53856746  0.35305014  1
  N  N49  1  0.11062406  0.42802118  0.10259067  1
  N  N50  1  0.88623289  0.54021679  0.85170729  1
  N  N51  1  0.78988216  0.40154682  0.59788862  1
  N  N52  1  0.55461751  0.54017468  0.35885242  1
  N  N53  1  0.44598690  0.42843156  0.10131141  1
  N  N54  1  0.22017119  0.54149444  0.85321736  1
  N  N55  1  0.11059078  0.42803798  0.60467350  1
  N  N56  1  0.88929530  0.53868557  0.35498464  1
  N  N57  1  0.77687302  0.42674605  0.10737368  1
  N  N58  1  0.54505046  0.56299384  0.84514361  1
  N  N59  1  0.44136196  0.42859046  0.60448805  1
  N  N60  1  0.22508361  0.87079149  0.35992039  1
  N  N61  1  0.11087449  0.76340816  0.10666093  1
  N  N62  1  0.88786366  0.87426889  0.85670902  1
  N  N63  1  0.78988238  0.77523726  0.59788860  1
  N  N64  1  0.55461774  0.87187443  0.35885245  1
  N  N65  1  0.44427025  0.76119823  0.10666605  1
  N  N66  1  0.24488753  0.86088959  0.84290805  1
  N  N67  1  0.08568504  0.77355116  0.59738411  1
  N  N68  1  0.89131137  0.87072456  0.37588416  1
  N  N69  1  0.77687326  0.76304739  0.10737353  1
  N  N70  1  0.54505039  0.85862249  0.84514358  1
  N  N71  1  0.44476103  0.76095286  0.62402693  1
