# generated using pymatgen
data_Al11BN12
_symmetry_space_group_name_H-M   'P 1'
_cell_length_a   9.25922193
_cell_length_b   9.25705499
_cell_length_c   9.89670594
_cell_angle_alpha   90.00101998
_cell_angle_beta   90.07588326
_cell_angle_gamma   60.00701389
_symmetry_Int_Tables_number   1
_chemical_formula_structural   Al11BN12
_chemical_formula_sum   'Al33 B3 N36'
_cell_volume   734.68102660
_cell_formula_units_Z   3
loop_
 _symmetry_equiv_pos_site_id
 _symmetry_equiv_pos_as_xyz
  1  'x, y, z'
loop_
 _atom_site_type_symbol
 _atom_site_label
 _atom_site_symmetry_multiplicity
 _atom_site_fract_x
 _atom_site_fract_y
 _atom_site_fract_z
 _atom_site_occupancy
  Al  Al0  1  0.11054285  0.09320628  0.31645347  1
  Al  Al1  1  0.22129164  0.20458518  0.06106392  1
  Al  Al2  1  0.78275214  0.09195535  0.80177967  1
  Al  Al3  1  0.44516983  0.09309981  0.31075203  1
  Al  Al4  1  0.55945763  0.20360394  0.06159867  1
  Al  Al5  1  0.10947143  0.09409873  0.80678665  1
  Al  Al6  1  0.21637262  0.20757342  0.55993479  1
  Al  Al7  1  0.78057455  0.09304663  0.32524051  1
  Al  Al8  1  0.88819933  0.20419697  0.06322243  1
  Al  Al9  1  0.44254649  0.09094592  0.81091394  1
  Al  Al10  1  0.56075736  0.20295193  0.56142830  1
  Al  Al11  1  0.11074929  0.42795829  0.30995419  1
  Al  Al12  1  0.22129202  0.54078849  0.06106413  1
  Al  Al13  1  0.77661646  0.42679711  0.80681488  1
  Al  Al14  1  0.89024871  0.53820834  0.56126910  1
  Al  Al15  1  0.44516961  0.42839562  0.31075252  1
  Al  Al16  1  0.55466010  0.54323942  0.05681719  1
  Al  Al17  1  0.11013466  0.42826574  0.81108466  1
  Al  Al18  1  0.21637146  0.54272038  0.55993487  1
  Al  Al19  1  0.77788856  0.42566894  0.31813805  1
  Al  Al20  1  0.88678418  0.53994081  0.06151499  1
  Al  Al21  1  0.44254678  0.43317260  0.81091303  1
  Al  Al22  1  0.55776198  0.53546123  0.56649168  1
  Al  Al23  1  0.11054268  0.76291728  0.31645390  1
  Al  Al24  1  0.22589754  0.87038379  0.05656052  1
  Al  Al25  1  0.77661547  0.76325102  0.80681480  1
  Al  Al26  1  0.44489192  0.76088695  0.31266930  1
  Al  Al27  1  0.55466056  0.86876509  0.05681785  1
  Al  Al28  1  0.10947109  0.76309608  0.80678696  1
  Al  Al29  1  0.21409757  0.87628417  0.56669600  1
  Al  Al30  1  0.77788909  0.76310906  0.31814049  1
  Al  Al31  1  0.88819921  0.87426942  0.06322355  1
  Al  Al32  1  0.55776193  0.87343943  0.56649223  1
  B  B33  1  0.89498352  0.19852634  0.55531986  1
  B  B34  1  0.89498213  0.87316644  0.55532065  1
  B  B35  1  0.44573808  0.76046339  0.80565406  1
  N  N36  1  0.22236144  0.20569326  0.36904810  1
  N  N37  1  0.11079069  0.09242485  0.12265356  1
  N  N38  1  0.88774178  0.20459319  0.87269813  1
  N  N39  1  0.79983371  0.08341326  0.60660019  1
  N  N40  1  0.55427413  0.20619509  0.37076501  1
  N  N41  1  0.44590089  0.09229156  0.11730505  1
  N  N42  1  0.22004733  0.20506251  0.86921166  1
  N  N43  1  0.08557589  0.10748245  0.61337799  1
  N  N44  1  0.89122781  0.20466689  0.39187407  1
  N  N45  1  0.77984025  0.09341499  0.13085588  1
  N  N46  1  0.55897784  0.20384350  0.86720592  1
  N  N47  1  0.44124846  0.09677288  0.62048156  1
  N  N48  1  0.22236109  0.53861105  0.36904824  1
  N  N49  1  0.11054054  0.42806421  0.11858714  1
  N  N50  1  0.88610677  0.54027867  0.86770411  1
  N  N51  1  0.78977026  0.40160055  0.61387915  1
  N  N52  1  0.55453540  0.54021355  0.37484803  1
  N  N53  1  0.44590091  0.42847599  0.11730555  1
  N  N54  1  0.22004795  0.54155549  0.86921162  1
  N  N55  1  0.11047371  0.42809744  0.62067119  1
  N  N56  1  0.88921271  0.53872611  0.37097901  1
  N  N57  1  0.77679133  0.42678631  0.12336996  1
  N  N58  1  0.54492995  0.56304984  0.86113741  1
  N  N59  1  0.44124904  0.42864410  0.62048064  1
  N  N60  1  0.22500733  0.87082926  0.37591608  1
  N  N61  1  0.11079090  0.76345311  0.12265400  1
  N  N62  1  0.88774154  0.87432870  0.87269923  1
  N  N63  1  0.78976804  0.77529413  0.61388010  1
  N  N64  1  0.55453521  0.87191613  0.37484834  1
  N  N65  1  0.44419267  0.76123786  0.12266009  1
  N  N66  1  0.24477008  0.86094773  0.85890346  1
  N  N67  1  0.08557557  0.77361148  0.61337848  1
  N  N68  1  0.89122777  0.87077281  0.39187436  1
  N  N69  1  0.77679162  0.76309126  0.12337172  1
  N  N70  1  0.54492928  0.85868470  0.86113815  1
  N  N71  1  0.44464861  0.76100813  0.64002392  1
