# generated using pymatgen
data_Al11BN12
_symmetry_space_group_name_H-M   'P 1'
_cell_length_a   9.26778726
_cell_length_b   9.30876246
_cell_length_c   10.08058309
_cell_angle_alpha   89.64243998
_cell_angle_beta   90.34712689
_cell_angle_gamma   60.10705259
_symmetry_Int_Tables_number   1
_chemical_formula_structural   Al11BN12
_chemical_formula_sum   'Al33 B3 N36'
_cell_volume   753.90916179
_cell_formula_units_Z   3
loop_
 _symmetry_equiv_pos_site_id
 _symmetry_equiv_pos_as_xyz
  1  'x, y, z'
loop_
 _atom_site_type_symbol
 _atom_site_label
 _atom_site_symmetry_multiplicity
 _atom_site_fract_x
 _atom_site_fract_y
 _atom_site_fract_z
 _atom_site_occupancy
  Al  Al0  1  0.11670138  0.09153568  0.31722601  1
  Al  Al1  1  0.22088039  0.20620226  0.07024646  1
  Al  Al2  1  0.78081550  0.09774896  0.81953859  1
  Al  Al3  1  0.44693634  0.09373307  0.32364984  1
  Al  Al4  1  0.55619435  0.20353339  0.07188418  1
  Al  Al5  1  0.10851550  0.09387522  0.82667984  1
  Al  Al6  1  0.21645063  0.20749613  0.57185028  1
  Al  Al7  1  0.78043943  0.09221701  0.32727663  1
  Al  Al8  1  0.88843934  0.20280347  0.10284007  1
  Al  Al9  1  0.44341351  0.09089627  0.82172702  1
  Al  Al10  1  0.56360185  0.20895998  0.57524918  1
  Al  Al11  1  0.11953162  0.42332948  0.32217475  1
  Al  Al12  1  0.21881449  0.53986127  0.07253785  1
  Al  Al13  1  0.77832312  0.42943260  0.89359480  1
  Al  Al14  1  0.88830636  0.53648494  0.64170768  1
  Al  Al15  1  0.45018764  0.42700471  0.32294411  1
  Al  Al16  1  0.54289440  0.54924495  0.06987160  1
  Al  Al17  1  0.11875262  0.42354503  0.82247479  1
  Al  Al18  1  0.22092092  0.53794906  0.56857841  1
  Al  Al19  1  0.78770738  0.41733420  0.39293788  1
  Al  Al20  1  0.87710039  0.54463231  0.14512798  1
  Al  Al21  1  0.44180352  0.43430022  0.82299529  1
  Al  Al22  1  0.55237000  0.54015523  0.58301547  1
  Al  Al23  1  0.11626171  0.76213428  0.32352758  1
  Al  Al24  1  0.22501467  0.86908445  0.06456633  1
  Al  Al25  1  0.77400027  0.75501480  0.88504570  1
  Al  Al26  1  0.44598830  0.76060823  0.32622164  1
  Al  Al27  1  0.54283099  0.87453541  0.06997010  1
  Al  Al28  1  0.10665719  0.76194551  0.81577004  1
  Al  Al29  1  0.20766969  0.88145722  0.57658606  1
  Al  Al30  1  0.78094052  0.75790378  0.39326112  1
  Al  Al31  1  0.88980481  0.87531198  0.06836688  1
  Al  Al32  1  0.55341780  0.87700672  0.58283261  1
  B  B33  1  0.88589824  0.20977900  0.61378550  1
  B  B34  1  0.91845521  0.83094110  0.55421624  1
  B  B35  1  0.44064730  0.76204837  0.81853677  1
  N  N36  1  0.22406457  0.20396850  0.38398863  1
  N  N37  1  0.12259287  0.08512784  0.12749840  1
  N  N38  1  0.89312983  0.19733980  0.89400692  1
  N  N39  1  0.78755296  0.12564270  0.63226297  1
  N  N40  1  0.55817957  0.20484226  0.38590954  1
  N  N41  1  0.44384941  0.09344321  0.13287066  1
  N  N42  1  0.22229708  0.20458851  0.88146663  1
  N  N43  1  0.08042832  0.11181556  0.63201056  1
  N  N44  1  0.89050358  0.20893031  0.33044140  1
  N  N45  1  0.77366349  0.08513472  0.13739030  1
  N  N46  1  0.55519297  0.20601912  0.88123649  1
  N  N47  1  0.44543229  0.09757861  0.63391964  1
  N  N48  1  0.22529605  0.53871621  0.38097505  1
  N  N49  1  0.11294012  0.42519773  0.13171532  1
  N  N50  1  0.88457551  0.53845446  0.82872222  1
  N  N51  1  0.79690271  0.40046091  0.58918587  1
  N  N52  1  0.55256005  0.54293533  0.39147450  1
  N  N53  1  0.44445788  0.42731792  0.13214986  1
  N  N54  1  0.21894702  0.54219016  0.88291208  1
  N  N55  1  0.11898673  0.42368187  0.63110019  1
  N  N56  1  0.88491199  0.54249783  0.33673401  1
  N  N57  1  0.77245077  0.43465835  0.08397036  1
  N  N58  1  0.53634711  0.56809320  0.87418915  1
  N  N59  1  0.43917636  0.43225455  0.63526511  1
  N  N60  1  0.22494147  0.87332267  0.38875853  1
  N  N61  1  0.11045123  0.76222117  0.13354533  1
  N  N62  1  0.88862428  0.87577249  0.87807533  1
  N  N63  1  0.79849546  0.76408494  0.58840450  1
  N  N64  1  0.55061547  0.87492814  0.38971768  1
  N  N65  1  0.44085292  0.76154011  0.13852071  1
  N  N66  1  0.24217933  0.85892797  0.86886598  1
  N  N67  1  0.08711690  0.76767426  0.62253789  1
  N  N68  1  0.90137406  0.87180234  0.40344443  1
  N  N69  1  0.77474765  0.75909064  0.08103085  1
  N  N70  1  0.53453784  0.86218643  0.87379093  1
  N  N71  1  0.44153778  0.76418704  0.65307547  1
