# generated using pymatgen
data_Al11BN12
_symmetry_space_group_name_H-M   'P 1'
_cell_length_a   9.28690308
_cell_length_b   9.34332837
_cell_length_c   9.95617502
_cell_angle_alpha   90.26856689
_cell_angle_beta   89.83976924
_cell_angle_gamma   60.07775782
_symmetry_Int_Tables_number   1
_chemical_formula_structural   Al11BN12
_chemical_formula_sum   'Al33 B3 N36'
_cell_volume   748.72621687
_cell_formula_units_Z   3
loop_
 _symmetry_equiv_pos_site_id
 _symmetry_equiv_pos_as_xyz
  1  'x, y, z'
loop_
 _atom_site_type_symbol
 _atom_site_label
 _atom_site_symmetry_multiplicity
 _atom_site_fract_x
 _atom_site_fract_y
 _atom_site_fract_z
 _atom_site_occupancy
  Al  Al0  1  0.10278768  0.10104373  0.39491859  1
  Al  Al1  1  0.22139791  0.20240651  0.13687466  1
  Al  Al2  1  0.78043708  0.09208375  0.87074780  1
  Al  Al3  1  0.44600736  0.09428146  0.39135998  1
  Al  Al4  1  0.55926334  0.20278078  0.13539435  1
  Al  Al5  1  0.10907868  0.09845286  0.87114902  1
  Al  Al6  1  0.21620306  0.20973678  0.63801206  1
  Al  Al7  1  0.78116850  0.09881276  0.39630298  1
  Al  Al8  1  0.89095851  0.20225914  0.13253776  1
  Al  Al9  1  0.44230387  0.09370784  0.88171952  1
  Al  Al10  1  0.56184476  0.21154821  0.63712923  1
  Al  Al11  1  0.11172771  0.42593695  0.38514482  1
  Al  Al12  1  0.22146796  0.54126913  0.13753112  1
  Al  Al13  1  0.77245830  0.43170940  0.88198170  1
  Al  Al14  1  0.89366702  0.53201604  0.63913250  1
  Al  Al15  1  0.44461727  0.42754910  0.38827589  1
  Al  Al16  1  0.56023904  0.53144075  0.13941216  1
  Al  Al17  1  0.11148734  0.42622143  0.89133488  1
  Al  Al18  1  0.21968279  0.53581644  0.63936243  1
  Al  Al19  1  0.77980689  0.42352983  0.39274520  1
  Al  Al20  1  0.88768673  0.53844736  0.13841964  1
  Al  Al21  1  0.44476600  0.43300453  0.88835690  1
  Al  Al22  1  0.55807585  0.53479660  0.63932281  1
  Al  Al23  1  0.10202883  0.76046609  0.39494328  1
  Al  Al24  1  0.23414180  0.86672470  0.05864824  1
  Al  Al25  1  0.77462704  0.75626003  0.88061730  1
  Al  Al26  1  0.43861561  0.76573120  0.32908604  1
  Al  Al27  1  0.55645475  0.87114029  0.10768022  1
  Al  Al28  1  0.11464647  0.75440622  0.87591782  1
  Al  Al29  1  0.20783648  0.87987308  0.59301628  1
  Al  Al30  1  0.78332927  0.76226319  0.39433574  1
  Al  Al31  1  0.89028478  0.87429351  0.13619048  1
  Al  Al32  1  0.55894934  0.87775081  0.62764146  1
  B  B33  1  0.88354541  0.20765506  0.64094348  1
  B  B34  1  0.91039935  0.82598102  0.65587402  1
  B  B35  1  0.43977802  0.76516182  0.80352573  1
  N  N36  1  0.22293921  0.20111337  0.32907331  1
  N  N37  1  0.10915291  0.09728277  0.06680489  1
  N  N38  1  0.88481752  0.20934204  0.80677513  1
  N  N39  1  0.78409380  0.12643315  0.58375405  1
  N  N40  1  0.55774237  0.20399713  0.32838107  1
  N  N41  1  0.44394110  0.09538764  0.07503306  1
  N  N42  1  0.22152910  0.20887670  0.82628723  1
  N  N43  1  0.07908861  0.11671487  0.59133399  1
  N  N44  1  0.89031930  0.20574529  0.32188067  1
  N  N45  1  0.78119196  0.09084172  0.06631054  1
  N  N46  1  0.55436918  0.20801331  0.82760750  1
  N  N47  1  0.44305498  0.10258852  0.58328260  1
  N  N48  1  0.22031630  0.54177376  0.32913372  1
  N  N49  1  0.11201097  0.42623776  0.08183571  1
  N  N50  1  0.89184581  0.53531188  0.82816724  1
  N  N51  1  0.78536904  0.41529383  0.58541233  1
  N  N52  1  0.56004139  0.53249622  0.33315165  1
  N  N53  1  0.44513279  0.42656352  0.07906726  1
  N  N54  1  0.22394477  0.53326835  0.82811275  1
  N  N55  1  0.11174874  0.42655892  0.57511880  1
  N  N56  1  0.88720230  0.54046131  0.33105924  1
  N  N57  1  0.77917431  0.42547235  0.07383884  1
  N  N58  1  0.54433006  0.56005046  0.83185084  1
  N  N59  1  0.43834253  0.43531617  0.57839769  1
  N  N60  1  0.22324266  0.86934842  0.39545587  1
  N  N61  1  0.10937987  0.75933647  0.07000990  1
  N  N62  1  0.89048300  0.86422043  0.80716519  1
  N  N63  1  0.79746243  0.76714688  0.59194228  1
  N  N64  1  0.55931455  0.86897332  0.36273118  1
  N  N65  1  0.43991624  0.76368606  0.13396391  1
  N  N66  1  0.24945804  0.85813784  0.85866218  1
  N  N67  1  0.08112146  0.76531759  0.59412591  1
  N  N68  1  0.88699787  0.87694718  0.32742384  1
  N  N69  1  0.78233074  0.75907932  0.07315797  1
  N  N70  1  0.54480036  0.86234345  0.83633840  1
  N  N71  1  0.43466514  0.76898068  0.64145348  1
