# generated using pymatgen
data_Al11BN12
_symmetry_space_group_name_H-M   'P 1'
_cell_length_a   9.26709462
_cell_length_b   9.33062574
_cell_length_c   9.98972722
_cell_angle_alpha   90.24047614
_cell_angle_beta   89.74415162
_cell_angle_gamma   60.04577297
_symmetry_Int_Tables_number   1
_chemical_formula_structural   Al11BN12
_chemical_formula_sum   'Al33 B3 N36'
_cell_volume   748.38052810
_cell_formula_units_Z   3
loop_
 _symmetry_equiv_pos_site_id
 _symmetry_equiv_pos_as_xyz
  1  'x, y, z'
loop_
 _atom_site_type_symbol
 _atom_site_label
 _atom_site_symmetry_multiplicity
 _atom_site_fract_x
 _atom_site_fract_y
 _atom_site_fract_z
 _atom_site_occupancy
  Al  Al0  1  0.10276372  0.10183009  0.40072113  1
  Al  Al1  1  0.22158979  0.20259692  0.14179745  1
  Al  Al2  1  0.77985196  0.09164158  0.87567035  1
  Al  Al3  1  0.44607325  0.09521608  0.39406200  1
  Al  Al4  1  0.55955011  0.20380827  0.14016250  1
  Al  Al5  1  0.10888310  0.09880597  0.87518047  1
  Al  Al6  1  0.21774105  0.20841849  0.64289212  1
  Al  Al7  1  0.78152235  0.09937559  0.40097082  1
  Al  Al8  1  0.89208071  0.20197288  0.13694389  1
  Al  Al9  1  0.44327542  0.09022420  0.89285324  1
  Al  Al10  1  0.56174936  0.20903359  0.64177095  1
  Al  Al11  1  0.11119372  0.42691558  0.39057886  1
  Al  Al12  1  0.22165235  0.54197819  0.14188353  1
  Al  Al13  1  0.77205005  0.43182541  0.88706394  1
  Al  Al14  1  0.89241485  0.53298038  0.64462280  1
  Al  Al15  1  0.44448332  0.42785230  0.39336880  1
  Al  Al16  1  0.56033412  0.53242214  0.14351844  1
  Al  Al17  1  0.11122480  0.42608031  0.89599529  1
  Al  Al18  1  0.21891785  0.53596475  0.64452589  1
  Al  Al19  1  0.78041822  0.42336642  0.39773748  1
  Al  Al20  1  0.88775373  0.53901859  0.14356267  1
  Al  Al21  1  0.44446087  0.43206474  0.89263134  1
  Al  Al22  1  0.55842668  0.53303525  0.64335733  1
  Al  Al23  1  0.10187348  0.76093779  0.40046921  1
  Al  Al24  1  0.23763826  0.86590211  0.06052907  1
  Al  Al25  1  0.77094764  0.75747279  0.89160636  1
  Al  Al26  1  0.43604089  0.76483992  0.33237493  1
  Al  Al27  1  0.56047276  0.87482858  0.14539783  1
  Al  Al28  1  0.11319864  0.75468499  0.88005636  1
  Al  Al29  1  0.20775466  0.87963717  0.59859538  1
  Al  Al30  1  0.78205105  0.76435674  0.39803732  1
  Al  Al31  1  0.89198419  0.87443026  0.14075370  1
  Al  Al32  1  0.55953870  0.87864858  0.64629454  1
  B  B33  1  0.88352156  0.20775252  0.64563114  1
  B  B34  1  0.90731376  0.82813063  0.65987464  1
  B  B35  1  0.43962812  0.76335920  0.80674234  1
  N  N36  1  0.22219897  0.20221806  0.33386821  1
  N  N37  1  0.11026994  0.09704280  0.07014436  1
  N  N38  1  0.88415201  0.20934737  0.81117223  1
  N  N39  1  0.78471995  0.12462058  0.58846919  1
  N  N40  1  0.55824923  0.20517366  0.33285686  1
  N  N41  1  0.44586125  0.09331275  0.08351032  1
  N  N42  1  0.22349510  0.20778304  0.83100859  1
  N  N43  1  0.07934002  0.11663275  0.59651332  1
  N  N44  1  0.89101417  0.20590247  0.32625842  1
  N  N45  1  0.78175435  0.09118114  0.07074805  1
  N  N46  1  0.55328719  0.20605847  0.83221482  1
  N  N47  1  0.44536669  0.09694852  0.58414530  1
  N  N48  1  0.22021284  0.54251282  0.33348178  1
  N  N49  1  0.11231020  0.42650427  0.08622170  1
  N  N50  1  0.89037224  0.53697195  0.83355198  1
  N  N51  1  0.78621612  0.41366699  0.59005527  1
  N  N52  1  0.56045421  0.53273176  0.33839401  1
  N  N53  1  0.44560771  0.42687635  0.08298244  1
  N  N54  1  0.22352326  0.53329139  0.83239231  1
  N  N55  1  0.11151635  0.42616709  0.58024667  1
  N  N56  1  0.88642028  0.54164600  0.33630870  1
  N  N57  1  0.77986126  0.42534065  0.07842008  1
  N  N58  1  0.54392271  0.55958445  0.83527579  1
  N  N59  1  0.43819378  0.43346503  0.58300229  1
  N  N60  1  0.22329853  0.87009308  0.40183623  1
  N  N61  1  0.11055288  0.75970833  0.07327877  1
  N  N62  1  0.88816799  0.86366561  0.81167422  1
  N  N63  1  0.79338289  0.76906096  0.59429745  1
  N  N64  1  0.56129263  0.87336644  0.34160438  1
  N  N65  1  0.44063611  0.76349923  0.13843292  1
  N  N66  1  0.24916768  0.85795434  0.86075388  1
  N  N67  1  0.07962657  0.76555458  0.59873165  1
  N  N68  1  0.88766945  0.87780786  0.33191098  1
  N  N69  1  0.78078685  0.76086992  0.08150928  1
  N  N70  1  0.54494901  0.86273445  0.83694055  1
  N  N71  1  0.43611941  0.76715006  0.64340706  1
