# generated using pymatgen
data_Al11BN12
_symmetry_space_group_name_H-M   'P 1'
_cell_length_a   9.28531322
_cell_length_b   9.27736839
_cell_length_c   10.08180401
_cell_angle_alpha   89.99977919
_cell_angle_beta   90.28911798
_cell_angle_gamma   60.02773048
_symmetry_Int_Tables_number   1
_chemical_formula_structural   Al11BN12
_chemical_formula_sum   'Al33 B3 N36'
_cell_volume   752.32268294
_cell_formula_units_Z   3
loop_
 _symmetry_equiv_pos_site_id
 _symmetry_equiv_pos_as_xyz
  1  'x, y, z'
loop_
 _atom_site_type_symbol
 _atom_site_label
 _atom_site_symmetry_multiplicity
 _atom_site_fract_x
 _atom_site_fract_y
 _atom_site_fract_z
 _atom_site_occupancy
  Al  Al0  1  0.10592535  0.10000846  0.40093590  1
  Al  Al1  1  0.21680071  0.20573320  0.14283186  1
  Al  Al2  1  0.78255305  0.09197714  0.87663402  1
  Al  Al3  1  0.45491023  0.08789104  0.32746599  1
  Al  Al4  1  0.55306196  0.20671103  0.06990048  1
  Al  Al5  1  0.10987584  0.09766996  0.88059280  1
  Al  Al6  1  0.20785312  0.21362746  0.64393567  1
  Al  Al7  1  0.79170941  0.08736702  0.40160096  1
  Al  Al8  1  0.88899964  0.20375739  0.13894077  1
  Al  Al9  1  0.44560570  0.08843070  0.82270231  1
  Al  Al10  1  0.55719578  0.20463454  0.58147438  1
  Al  Al11  1  0.11285695  0.42680087  0.39083312  1
  Al  Al12  1  0.21679939  0.54395787  0.14281826  1
  Al  Al13  1  0.77743735  0.42939054  0.88031779  1
  Al  Al14  1  0.88952534  0.53848177  0.64204511  1
  Al  Al15  1  0.45490535  0.42364412  0.32745312  1
  Al  Al16  1  0.54873936  0.54541190  0.06924969  1
  Al  Al17  1  0.10924416  0.42863823  0.89662450  1
  Al  Al18  1  0.20785992  0.54498845  0.64392960  1
  Al  Al19  1  0.78601926  0.41960483  0.39770798  1
  Al  Al20  1  0.88431178  0.54108709  0.14071359  1
  Al  Al21  1  0.44561190  0.43246643  0.82269764  1
  Al  Al22  1  0.55395240  0.53797829  0.58380881  1
  Al  Al23  1  0.10592713  0.76051931  0.40093695  1
  Al  Al24  1  0.23249360  0.86699491  0.06641458  1
  Al  Al25  1  0.77744182  0.75968458  0.88031667  1
  Al  Al26  1  0.44311050  0.76166830  0.32941307  1
  Al  Al27  1  0.54873867  0.87233754  0.06924963  1
  Al  Al28  1  0.10988259  0.75897160  0.88056424  1
  Al  Al29  1  0.21726420  0.87460148  0.59839608  1
  Al  Al30  1  0.78602183  0.76082753  0.39770986  1
  Al  Al31  1  0.88900691  0.87372051  0.13893170  1
  Al  Al32  1  0.55395103  0.87453995  0.58381916  1
  B  B33  1  0.89315723  0.19947163  0.64922914  1
  B  B34  1  0.89314668  0.87387016  0.64922391  1
  B  B35  1  0.44270838  0.76189757  0.81899200  1
  N  N36  1  0.21833852  0.20461334  0.33461454  1
  N  N37  1  0.10871242  0.09796336  0.07369511  1
  N  N38  1  0.88659572  0.20668376  0.80935343  1
  N  N39  1  0.80350481  0.08147813  0.59672602  1
  N  N40  1  0.55703709  0.20470382  0.39055779  1
  N  N41  1  0.45287509  0.08925608  0.13475545  1
  N  N42  1  0.21413231  0.21294775  0.83263478  1
  N  N43  1  0.08191933  0.11180228  0.59567661  1
  N  N44  1  0.88958631  0.20358648  0.32789399  1
  N  N45  1  0.78784583  0.08931969  0.07033785  1
  N  N46  1  0.54726803  0.20961656  0.87977029  1
  N  N47  1  0.44394832  0.09473806  0.63408854  1
  N  N48  1  0.21833683  0.54350452  0.33460367  1
  N  N49  1  0.11066189  0.42791328  0.08471339  1
  N  N50  1  0.88934715  0.53858260  0.82802797  1
  N  N51  1  0.79363948  0.39909949  0.59157572  1
  N  N52  1  0.55296666  0.54264181  0.39243434  1
  N  N53  1  0.45287110  0.42435664  0.13474489  1
  N  N54  1  0.21414023  0.53942590  0.83262484  1
  N  N55  1  0.10843358  0.42902176  0.57766093  1
  N  N56  1  0.88596042  0.54024532  0.33255873  1
  N  N57  1  0.78260091  0.42357831  0.07371912  1
  N  N58  1  0.53673956  0.56773201  0.87620233  1
  N  N59  1  0.44395478  0.42778418  0.63408445  1
  N  N60  1  0.22902241  0.86871374  0.39943368  1
  N  N61  1  0.10871233  0.75981430  0.07366886  1
  N  N62  1  0.88659699  0.87322706  0.80934735  1
  N  N63  1  0.79363579  0.77374642  0.59157675  1
  N  N64  1  0.55296994  0.87082944  0.39244391  1
  N  N65  1  0.44450721  0.76098999  0.14088252  1
  N  N66  1  0.24781965  0.85935077  0.86638335  1
  N  N67  1  0.08191648  0.77274970  0.59567359  1
  N  N68  1  0.88959156  0.87327280  0.32788790  1
  N  N69  1  0.78259894  0.76030996  0.07371692  1
  N  N70  1  0.53674324  0.86203349  0.87619973  1
  N  N71  1  0.44756088  0.75945593  0.65758560  1
