# generated using pymatgen
data_Al11BN12
_symmetry_space_group_name_H-M   'P 1'
_cell_length_a   9.31086893
_cell_length_b   9.31944681
_cell_length_c   10.11701164
_cell_angle_alpha   89.97409558
_cell_angle_beta   90.33523680
_cell_angle_gamma   59.55029896
_symmetry_Int_Tables_number   1
_chemical_formula_structural   Al11BN12
_chemical_formula_sum   'Al33 B3 N36'
_cell_volume   756.77450534
_cell_formula_units_Z   3
loop_
 _symmetry_equiv_pos_site_id
 _symmetry_equiv_pos_as_xyz
  1  'x, y, z'
loop_
 _atom_site_type_symbol
 _atom_site_label
 _atom_site_symmetry_multiplicity
 _atom_site_fract_x
 _atom_site_fract_y
 _atom_site_fract_z
 _atom_site_occupancy
  Al  Al0  1  0.12043647  0.08880087  0.32179879  1
  Al  Al1  1  0.21960774  0.20712031  0.07111585  1
  Al  Al2  1  0.77753456  0.08549604  0.80196137  1
  Al  Al3  1  0.44691690  0.09161024  0.32096695  1
  Al  Al4  1  0.55725699  0.20282997  0.07093990  1
  Al  Al5  1  0.12229408  0.08756825  0.82220405  1
  Al  Al6  1  0.21789426  0.21074956  0.56841491  1
  Al  Al7  1  0.77713380  0.08947090  0.33266626  1
  Al  Al8  1  0.88272986  0.21066800  0.14271014  1
  Al  Al9  1  0.44326410  0.09075928  0.82099466  1
  Al  Al10  1  0.56000385  0.19556112  0.57095551  1
  Al  Al11  1  0.11853059  0.42593497  0.32089303  1
  Al  Al12  1  0.22046780  0.54031164  0.07281682  1
  Al  Al13  1  0.77644282  0.43383944  0.88390431  1
  Al  Al14  1  0.88800974  0.54577409  0.64370778  1
  Al  Al15  1  0.44946652  0.42766568  0.32416256  1
  Al  Al16  1  0.54515974  0.54624091  0.06664207  1
  Al  Al17  1  0.12022494  0.42509150  0.82259869  1
  Al  Al18  1  0.21858206  0.54362726  0.57028180  1
  Al  Al19  1  0.79160338  0.41625009  0.40196870  1
  Al  Al20  1  0.87776601  0.54330536  0.14161060  1
  Al  Al21  1  0.44401149  0.43163340  0.82151058  1
  Al  Al22  1  0.55279329  0.53817575  0.58629018  1
  Al  Al23  1  0.11206387  0.76301523  0.32684871  1
  Al  Al24  1  0.22482716  0.86841312  0.06771893  1
  Al  Al25  1  0.77522225  0.75900305  0.88570278  1
  Al  Al26  1  0.44866799  0.75730145  0.32735152  1
  Al  Al27  1  0.54333024  0.87315150  0.06965610  1
  Al  Al28  1  0.10929529  0.76244346  0.81587547  1
  Al  Al29  1  0.20611057  0.88165501  0.57669958  1
  Al  Al30  1  0.78318669  0.75605402  0.39883804  1
  Al  Al31  1  0.89107248  0.87588027  0.07187907  1
  Al  Al32  1  0.54988613  0.87444396  0.58292033  1
  B  B33  1  0.91047724  0.23512917  0.66150547  1
  B  B34  1  0.88789348  0.87721549  0.56704106  1
  B  B35  1  0.44068029  0.76200430  0.81861987  1
  N  N36  1  0.22309395  0.20562823  0.38124512  1
  N  N37  1  0.11685517  0.08892128  0.12694965  1
  N  N38  1  0.88212104  0.21830710  0.80905458  1
  N  N39  1  0.78201460  0.05433592  0.62001911  1
  N  N40  1  0.55301726  0.20553187  0.38292316  1
  N  N41  1  0.44368960  0.09347389  0.13104942  1
  N  N42  1  0.22140773  0.20604902  0.88385920  1
  N  N43  1  0.09328178  0.11272094  0.63051850  1
  N  N44  1  0.88924767  0.20860612  0.33179010  1
  N  N45  1  0.77360015  0.08899185  0.13845862  1
  N  N46  1  0.55880667  0.20341623  0.88028133  1
  N  N47  1  0.43684752  0.09638772  0.63429245  1
  N  N48  1  0.22491224  0.53879496  0.38233687  1
  N  N49  1  0.11390750  0.42705431  0.13111758  1
  N  N50  1  0.88657851  0.54175560  0.83038402  1
  N  N51  1  0.80148743  0.40246758  0.59390027  1
  N  N52  1  0.55574989  0.53930485  0.39510156  1
  N  N53  1  0.44669517  0.42755808  0.13235020  1
  N  N54  1  0.22199897  0.54147611  0.88337990  1
  N  N55  1  0.11945459  0.42662836  0.63178767  1
  N  N56  1  0.88285250  0.54027588  0.33314209  1
  N  N57  1  0.78065241  0.42340911  0.07208344  1
  N  N58  1  0.53616164  0.56857489  0.87273056  1
  N  N59  1  0.44604673  0.42302932  0.63452394  1
  N  N60  1  0.22550998  0.87130301  0.38897036  1
  N  N61  1  0.11167704  0.76235724  0.13607282  1
  N  N62  1  0.89324144  0.87743229  0.88391636  1
  N  N63  1  0.78820581  0.76451329  0.58908521  1
  N  N64  1  0.54943859  0.87411297  0.38886419  1
  N  N65  1  0.44373979  0.75873788  0.13899379  1
  N  N66  1  0.24265700  0.85954099  0.87338131  1
  N  N67  1  0.08557072  0.77372569  0.62589077  1
  N  N68  1  0.89725214  0.87301664  0.40069209  1
  N  N69  1  0.77533774  0.75939564  0.08002660  1
  N  N70  1  0.53468180  0.86228461  0.87437912  1
  N  N71  1  0.43796314  0.76336007  0.65466382  1
