# generated using pymatgen
data_Al11BN12
_symmetry_space_group_name_H-M   'P 1'
_cell_length_a   9.25908403
_cell_length_b   9.25658220
_cell_length_c   9.89722022
_cell_angle_alpha   89.99998801
_cell_angle_beta   89.91036839
_cell_angle_gamma   60.00897782
_symmetry_Int_Tables_number   1
_chemical_formula_structural   Al11BN12
_chemical_formula_sum   'Al33 B3 N36'
_cell_volume   734.68492168
_cell_formula_units_Z   3
loop_
 _symmetry_equiv_pos_site_id
 _symmetry_equiv_pos_as_xyz
  1  'x, y, z'
loop_
 _atom_site_type_symbol
 _atom_site_label
 _atom_site_symmetry_multiplicity
 _atom_site_fract_x
 _atom_site_fract_y
 _atom_site_fract_z
 _atom_site_occupancy
  Al  Al0  1  0.10549874  0.09565403  0.41543492  1
  Al  Al1  1  0.22086251  0.20492547  0.16208827  1
  Al  Al2  1  0.78026498  0.09320133  0.89901572  1
  Al  Al3  1  0.44470140  0.09287219  0.41115859  1
  Al  Al4  1  0.55847854  0.20409425  0.16084565  1
  Al  Al5  1  0.11483473  0.09119169  0.90658856  1
  Al  Al6  1  0.21620129  0.20761481  0.66198802  1
  Al  Al7  1  0.78266907  0.09199898  0.42018817  1
  Al  Al8  1  0.88807952  0.20467673  0.15945479  1
  Al  Al9  1  0.44263045  0.09144543  0.91180273  1
  Al  Al10  1  0.56132766  0.20266943  0.66121063  1
  Al  Al11  1  0.10971653  0.42847486  0.41113626  1
  Al  Al12  1  0.22086245  0.54087868  0.16208810  1
  Al  Al13  1  0.77554272  0.43028044  0.90479677  1
  Al  Al14  1  0.89002753  0.53831920  0.66081671  1
  Al  Al15  1  0.44470118  0.42909358  0.41115872  1
  Al  Al16  1  0.55570634  0.54054182  0.15435407  1
  Al  Al17  1  0.11052515  0.42807098  0.91301016  1
  Al  Al18  1  0.21620091  0.54285126  0.66198821  1
  Al  Al19  1  0.77755852  0.42331556  0.41558191  1
  Al  Al20  1  0.88644216  0.54011205  0.16166023  1
  Al  Al21  1  0.44263032  0.43259178  0.91180251  1
  Al  Al22  1  0.55540817  0.53929417  0.66609237  1
  Al  Al23  1  0.10549869  0.76551328  0.41543501  1
  Al  Al24  1  0.22302178  0.87182215  0.15481160  1
  Al  Al25  1  0.77554259  0.76084433  0.90479676  1
  Al  Al26  1  0.44442967  0.76111881  0.40953399  1
  Al  Al27  1  0.55570654  0.87041793  0.15435403  1
  Al  Al28  1  0.11483459  0.76064147  0.90658849  1
  Al  Al29  1  0.21817511  0.87424621  0.66598647  1
  Al  Al30  1  0.77755889  0.76579210  0.41558205  1
  Al  Al31  1  0.88807925  0.87391097  0.15945485  1
  Al  Al32  1  0.55540819  0.87196377  0.66609250  1
  B  B33  1  0.89450344  0.19716835  0.66841295  1
  B  B34  1  0.89450347  0.87499510  0.66841304  1
  B  B35  1  0.44452218  0.76107251  0.91423399  1
  N  N36  1  0.22038608  0.20421754  0.35462944  1
  N  N37  1  0.10929302  0.09539756  0.09809118  1
  N  N38  1  0.89117399  0.20447247  0.83137020  1
  N  N39  1  0.80015934  0.08325374  0.61606885  1
  N  N40  1  0.55908214  0.20379261  0.35551420  1
  N  N41  1  0.44374749  0.09542818  0.10302913  1
  N  N42  1  0.22175077  0.20681733  0.85214521  1
  N  N43  1  0.08669017  0.10469316  0.61140496  1
  N  N44  1  0.88733653  0.20468589  0.35000463  1
  N  N45  1  0.77939693  0.09363509  0.09282245  1
  N  N46  1  0.55398766  0.20633989  0.85173917  1
  N  N47  1  0.44289953  0.09382668  0.60369587  1
  N  N48  1  0.22038604  0.54206283  0.35462934  1
  N  N49  1  0.11011766  0.42827444  0.10487070  1
  N  N50  1  0.89013457  0.53826642  0.85038927  1
  N  N51  1  0.78673101  0.40306186  0.61097274  1
  N  N52  1  0.55636743  0.53967138  0.34834890  1
  N  N53  1  0.44374715  0.42749108  0.10302883  1
  N  N54  1  0.22175046  0.53809959  0.85214539  1
  N  N55  1  0.11036487  0.42815102  0.60109164  1
  N  N56  1  0.88473495  0.54096564  0.35619360  1
  N  N57  1  0.77941682  0.42565606  0.09709208  1
  N  N58  1  0.54272659  0.56383370  0.85917610  1
  N  N59  1  0.44289925  0.42994025  0.60369592  1
  N  N60  1  0.22133022  0.87266801  0.35074559  1
  N  N61  1  0.10929270  0.76197608  0.09809114  1
  N  N62  1  0.89117386  0.87102110  0.83137023  1
  N  N63  1  0.78673105  0.77687318  0.61097288  1
  N  N64  1  0.55636771  0.87062810  0.34834893  1
  N  N65  1  0.44405776  0.76130426  0.08125115  1
  N  N66  1  0.24791954  0.85937405  0.85818665  1
  N  N67  1  0.08669006  0.77528382  0.61140503  1
  N  N68  1  0.88733642  0.87464454  0.35000475  1
  N  N69  1  0.77941699  0.76159354  0.09709221  1
  N  N70  1  0.54272640  0.86010708  0.85917631  1
  N  N71  1  0.44387002  0.76139813  0.59946147  1
