# generated using pymatgen
data_Al11BN12
_symmetry_space_group_name_H-M   'P 1'
_cell_length_a   9.26626451
_cell_length_b   9.32351746
_cell_length_c   9.97475595
_cell_angle_alpha   90.24147258
_cell_angle_beta   89.66228226
_cell_angle_gamma   60.05961787
_symmetry_Int_Tables_number   1
_chemical_formula_structural   Al11BN12
_chemical_formula_sum   'Al33 B3 N36'
_cell_volume   746.71628971
_cell_formula_units_Z   3
loop_
 _symmetry_equiv_pos_site_id
 _symmetry_equiv_pos_as_xyz
  1  'x, y, z'
loop_
 _atom_site_type_symbol
 _atom_site_label
 _atom_site_symmetry_multiplicity
 _atom_site_fract_x
 _atom_site_fract_y
 _atom_site_fract_z
 _atom_site_occupancy
  Al  Al0  1  0.10074933  0.10358778  0.40138223  1
  Al  Al1  1  0.22150234  0.20286995  0.14494370  1
  Al  Al2  1  0.78036386  0.09150815  0.87924661  1
  Al  Al3  1  0.44565918  0.09591322  0.39808281  1
  Al  Al4  1  0.55873283  0.20417353  0.14317891  1
  Al  Al5  1  0.11060888  0.09741199  0.87954876  1
  Al  Al6  1  0.21805432  0.20790789  0.64564849  1
  Al  Al7  1  0.78103961  0.09914422  0.40385006  1
  Al  Al8  1  0.89016958  0.20337403  0.14006638  1
  Al  Al9  1  0.44287481  0.09013573  0.89543605  1
  Al  Al10  1  0.56262457  0.20829043  0.64508817  1
  Al  Al11  1  0.11061793  0.42726471  0.39377352  1
  Al  Al12  1  0.22150441  0.54178765  0.14519691  1
  Al  Al13  1  0.77313828  0.43160418  0.88960648  1
  Al  Al14  1  0.89274475  0.53303613  0.64734445  1
  Al  Al15  1  0.44414911  0.42762012  0.39754704  1
  Al  Al16  1  0.55903184  0.53385845  0.14958283  1
  Al  Al17  1  0.11140083  0.42608463  0.89904527  1
  Al  Al18  1  0.21906219  0.53654252  0.64724040  1
  Al  Al19  1  0.77980243  0.42337792  0.40189992  1
  Al  Al20  1  0.88649452  0.53965778  0.14655079  1
  Al  Al21  1  0.44391480  0.43248169  0.89550195  1
  Al  Al22  1  0.55637209  0.53875144  0.64275918  1
  Al  Al23  1  0.09972652  0.76146626  0.40107988  1
  Al  Al24  1  0.23572947  0.86662377  0.07235852  1
  Al  Al25  1  0.77190237  0.75700378  0.89376793  1
  Al  Al26  1  0.43859944  0.76385192  0.34911496  1
  Al  Al27  1  0.55913767  0.87465120  0.15109321  1
  Al  Al28  1  0.11453370  0.75457238  0.88420450  1
  Al  Al29  1  0.21219344  0.87762609  0.59318281  1
  Al  Al30  1  0.78118960  0.76490978  0.40203184  1
  Al  Al31  1  0.88995033  0.87483620  0.14366826  1
  Al  Al32  1  0.55737977  0.87504794  0.64529207  1
  B  B33  1  0.88490682  0.20655742  0.64849773  1
  B  B34  1  0.90761521  0.83088471  0.66198367  1
  B  B35  1  0.44385780  0.76071106  0.83358099  1
  N  N36  1  0.22200694  0.20297103  0.33689359  1
  N  N37  1  0.10915454  0.09758754  0.07408063  1
  N  N38  1  0.88563109  0.20827578  0.81465947  1
  N  N39  1  0.78669292  0.12128176  0.59218066  1
  N  N40  1  0.55756620  0.20559074  0.33617235  1
  N  N41  1  0.44573387  0.09271074  0.08589200  1
  N  N42  1  0.22359590  0.20748367  0.83426506  1
  N  N43  1  0.08122663  0.11500746  0.59866385  1
  N  N44  1  0.88875520  0.20751164  0.32917252  1
  N  N45  1  0.78103652  0.09159445  0.07401955  1
  N  N46  1  0.55389637  0.20582047  0.83575256  1
  N  N47  1  0.44590038  0.09677828  0.58869521  1
  N  N48  1  0.22014234  0.54203272  0.33672522  1
  N  N49  1  0.11156393  0.42687763  0.08935189  1
  N  N50  1  0.89100047  0.53674019  0.83643994  1
  N  N51  1  0.78721264  0.41149442  0.59481536  1
  N  N52  1  0.56093980  0.53090309  0.34243551  1
  N  N53  1  0.44543570  0.42762876  0.08566182  1
  N  N54  1  0.22362346  0.53359762  0.83559953  1
  N  N55  1  0.11192782  0.42605346  0.58355832  1
  N  N56  1  0.88559405  0.54196824  0.33985940  1
  N  N57  1  0.77812054  0.42639936  0.08089105  1
  N  N58  1  0.54176245  0.56553130  0.83811736  1
  N  N59  1  0.43929438  0.43273394  0.58779560  1
  N  N60  1  0.21523352  0.87429175  0.39513828  1
  N  N61  1  0.10928330  0.76006641  0.07708276  1
  N  N62  1  0.88933550  0.86396417  0.81509256  1
  N  N63  1  0.79384815  0.76958367  0.59839411  1
  N  N64  1  0.56178796  0.87514548  0.34486162  1
  N  N65  1  0.44054601  0.76343354  0.14538931  1
  N  N66  1  0.25511425  0.85491845  0.86677030  1
  N  N67  1  0.08130727  0.76580638  0.60082257  1
  N  N68  1  0.88551947  0.87806014  0.33442086  1
  N  N69  1  0.77901068  0.76148594  0.08366858  1
  N  N70  1  0.54261933  0.85876851  0.83906747  1
  N  N71  1  0.44413277  0.76334541  0.60880191  1
