# generated using pymatgen
data_Al11BN12
_symmetry_space_group_name_H-M   'P 1'
_cell_length_a   9.26670347
_cell_length_b   9.32048083
_cell_length_c   9.95703293
_cell_angle_alpha   90.24536719
_cell_angle_beta   89.66414014
_cell_angle_gamma   60.06724240
_symmetry_Int_Tables_number   1
_chemical_formula_structural   Al11BN12
_chemical_formula_sum   'Al33 B3 N36'
_cell_volume   745.23895212
_cell_formula_units_Z   3
loop_
 _symmetry_equiv_pos_site_id
 _symmetry_equiv_pos_as_xyz
  1  'x, y, z'
loop_
 _atom_site_type_symbol
 _atom_site_label
 _atom_site_symmetry_multiplicity
 _atom_site_fract_x
 _atom_site_fract_y
 _atom_site_fract_z
 _atom_site_occupancy
  Al  Al0  1  0.10131275  0.10279638  0.40063776  1
  Al  Al1  1  0.22185266  0.20295774  0.14511057  1
  Al  Al2  1  0.78003727  0.09171170  0.87935857  1
  Al  Al3  1  0.44585958  0.09551990  0.39732382  1
  Al  Al4  1  0.55867266  0.20418831  0.14321527  1
  Al  Al5  1  0.11081458  0.09674252  0.88006830  1
  Al  Al6  1  0.21809307  0.20787372  0.64569875  1
  Al  Al7  1  0.78132403  0.09883746  0.40402628  1
  Al  Al8  1  0.88906872  0.20419586  0.14014727  1
  Al  Al9  1  0.44213913  0.09064111  0.89602441  1
  Al  Al10  1  0.56253505  0.20821140  0.64490716  1
  Al  Al11  1  0.11064621  0.42729274  0.39383224  1
  Al  Al12  1  0.22184134  0.54130681  0.14542410  1
  Al  Al13  1  0.77310274  0.43178355  0.89028355  1
  Al  Al14  1  0.89284745  0.53299525  0.64719841  1
  Al  Al15  1  0.44438025  0.42800668  0.39690352  1
  Al  Al16  1  0.55715510  0.53772581  0.14978075  1
  Al  Al17  1  0.11095324  0.42636519  0.89922759  1
  Al  Al18  1  0.21904560  0.53666463  0.64728896  1
  Al  Al19  1  0.77990940  0.42292806  0.40142084  1
  Al  Al20  1  0.88584740  0.53997976  0.14645462  1
  Al  Al21  1  0.44317414  0.43264136  0.89622367  1
  Al  Al22  1  0.55622725  0.54053544  0.64316394  1
  Al  Al23  1  0.10023660  0.76184613  0.40019225  1
  Al  Al24  1  0.23192338  0.86835349  0.08188321  1
  Al  Al25  1  0.77173863  0.75700569  0.89413413  1
  Al  Al26  1  0.44631534  0.76035497  0.38485459  1
  Al  Al27  1  0.55722723  0.87257574  0.15100212  1
  Al  Al28  1  0.11456946  0.75518450  0.88460807  1
  Al  Al29  1  0.21168012  0.87775638  0.59694770  1
  Al  Al30  1  0.78127165  0.76524591  0.40138469  1
  Al  Al31  1  0.88872178  0.87507991  0.14359250  1
  Al  Al32  1  0.55720760  0.87333543  0.64519218  1
  B  B33  1  0.88481793  0.20653798  0.64879570  1
  B  B34  1  0.90726897  0.83188821  0.66178179  1
  B  B35  1  0.44346081  0.76085524  0.85632239  1
  N  N36  1  0.22201861  0.20326743  0.33715829  1
  N  N37  1  0.10867591  0.09784520  0.07471552  1
  N  N38  1  0.88555806  0.20839724  0.81493140  1
  N  N39  1  0.78714688  0.12024363  0.59275178  1
  N  N40  1  0.55783274  0.20558127  0.33667529  1
  N  N41  1  0.44595892  0.09254330  0.08632048  1
  N  N42  1  0.22312301  0.20763836  0.83465328  1
  N  N43  1  0.08175757  0.11465527  0.59829029  1
  N  N44  1  0.88864604  0.20740749  0.32939737  1
  N  N45  1  0.78088031  0.09170246  0.07403542  1
  N  N46  1  0.55348458  0.20601220  0.83577670  1
  N  N47  1  0.44616377  0.09567247  0.58890852  1
  N  N48  1  0.22020060  0.54178689  0.33705978  1
  N  N49  1  0.11123582  0.42702404  0.08963156  1
  N  N50  1  0.89058421  0.53695834  0.83646261  1
  N  N51  1  0.78714807  0.41091463  0.59527048  1
  N  N52  1  0.56039240  0.53272668  0.34132495  1
  N  N53  1  0.44566706  0.42756940  0.08624362  1
  N  N54  1  0.22316772  0.53398458  0.83598212  1
  N  N55  1  0.11210094  0.42598213  0.58388178  1
  N  N56  1  0.88555712  0.54195323  0.34028599  1
  N  N57  1  0.77794046  0.42616633  0.08121349  1
  N  N58  1  0.53954764  0.56894729  0.83844312  1
  N  N59  1  0.43970206  0.43348890  0.58817267  1
  N  N60  1  0.21479769  0.87461907  0.39023695  1
  N  N61  1  0.10867713  0.76013360  0.07763911  1
  N  N62  1  0.88912999  0.86419241  0.81527890  1
  N  N63  1  0.79359950  0.76994166  0.59859166  1
  N  N64  1  0.56137570  0.87429778  0.34321630  1
  N  N65  1  0.44722420  0.75994416  0.12105102  1
  N  N66  1  0.25272579  0.85606863  0.85944182  1
  N  N67  1  0.08154638  0.76579669  0.60033524  1
  N  N68  1  0.88545248  0.87817505  0.33442661  1
  N  N69  1  0.77882298  0.76183520  0.08378005  1
  N  N70  1  0.54023470  0.85748174  0.83897618  1
  N  N71  1  0.45142766  0.75974617  0.58382454  1
