# generated using pymatgen
data_Al11BN12
_symmetry_space_group_name_H-M   'P 1'
_cell_length_a   9.25975093
_cell_length_b   9.27478825
_cell_length_c   10.15254547
_cell_angle_alpha   89.99820083
_cell_angle_beta   90.64214000
_cell_angle_gamma   59.94840934
_symmetry_Int_Tables_number   1
_chemical_formula_structural   Al11BN12
_chemical_formula_sum   'Al33 B3 N36'
_cell_volume   754.65137277
_cell_formula_units_Z   3
loop_
 _symmetry_equiv_pos_site_id
 _symmetry_equiv_pos_as_xyz
  1  'x, y, z'
loop_
 _atom_site_type_symbol
 _atom_site_label
 _atom_site_symmetry_multiplicity
 _atom_site_fract_x
 _atom_site_fract_y
 _atom_site_fract_z
 _atom_site_occupancy
  Al  Al0  1  0.12015419  0.08717125  0.32046868  1
  Al  Al1  1  0.22584557  0.19780031  0.07716860  1
  Al  Al2  1  0.77818227  0.09415157  0.87953316  1
  Al  Al3  1  0.45322672  0.08968405  0.32661684  1
  Al  Al4  1  0.55212369  0.20725836  0.07024729  1
  Al  Al5  1  0.11507149  0.09068306  0.81823143  1
  Al  Al6  1  0.21678495  0.20081733  0.57077846  1
  Al  Al7  1  0.79548384  0.08563171  0.40517389  1
  Al  Al8  1  0.88167563  0.20832177  0.13987721  1
  Al  Al9  1  0.43685078  0.09311443  0.82214855  1
  Al  Al10  1  0.55605402  0.20520459  0.58246872  1
  Al  Al11  1  0.10811190  0.42927916  0.38317133  1
  Al  Al12  1  0.22579324  0.54298540  0.07704126  1
  Al  Al13  1  0.77484447  0.43068324  0.88046759  1
  Al  Al14  1  0.89331471  0.53655884  0.64343708  1
  Al  Al15  1  0.45311536  0.42381824  0.32664445  1
  Al  Al16  1  0.54880829  0.54650307  0.06817050  1
  Al  Al17  1  0.10242558  0.43196909  0.89477820  1
  Al  Al18  1  0.21679510  0.54878797  0.57101584  1
  Al  Al19  1  0.78800283  0.41676398  0.40138482  1
  Al  Al20  1  0.88445508  0.54111027  0.14214124  1
  Al  Al21  1  0.43694753  0.43642263  0.82215606  1
  Al  Al22  1  0.55334035  0.53859048  0.58565448  1
  Al  Al23  1  0.12011954  0.75934650  0.32061454  1
  Al  Al24  1  0.22684929  0.86992105  0.06615081  1
  Al  Al25  1  0.77493854  0.76094269  0.88045777  1
  Al  Al26  1  0.44981354  0.75843820  0.32791808  1
  Al  Al27  1  0.54889745  0.87130315  0.06814452  1
  Al  Al28  1  0.11516096  0.76072995  0.81834553  1
  Al  Al29  1  0.21037245  0.87807951  0.57730346  1
  Al  Al30  1  0.78802542  0.76190224  0.40140223  1
  Al  Al31  1  0.88174468  0.87667619  0.13987118  1
  Al  Al32  1  0.55339650  0.87455956  0.58568916  1
  B  B33  1  0.88822807  0.20098751  0.65299952  1
  B  B34  1  0.88837231  0.87719409  0.65304332  1
  B  B35  1  0.44084961  0.76284463  0.81992800  1
  N  N36  1  0.22833933  0.19718915  0.38001042  1
  N  N37  1  0.11785789  0.08684968  0.13131727  1
  N  N38  1  0.87603271  0.21170527  0.81185645  1
  N  N39  1  0.80476836  0.08089310  0.59803814  1
  N  N40  1  0.55823041  0.20423312  0.39242331  1
  N  N41  1  0.45154560  0.08964229  0.13648371  1
  N  N42  1  0.21928609  0.20106620  0.88605687  1
  N  N43  1  0.09124535  0.10370226  0.63082207  1
  N  N44  1  0.88465547  0.20622222  0.32822071  1
  N  N45  1  0.78730018  0.08969516  0.06922511  1
  N  N46  1  0.54189246  0.21225610  0.88078979  1
  N  N47  1  0.43888645  0.09710942  0.63724170  1
  N  N48  1  0.22830544  0.54117471  0.38021954  1
  N  N49  1  0.10802893  0.42927771  0.09178555  1
  N  N50  1  0.88696787  0.53974936  0.82706508  1
  N  N51  1  0.79489177  0.39659835  0.59295423  1
  N  N52  1  0.55359525  0.54172876  0.39455796  1
  N  N53  1  0.45145245  0.42548228  0.13647665  1
  N  N54  1  0.21930993  0.54600657  0.88592258  1
  N  N55  1  0.10571444  0.43032867  0.57960418  1
  N  N56  1  0.88229082  0.54220438  0.33193600  1
  N  N57  1  0.78328277  0.42382106  0.07128922  1
  N  N58  1  0.53420209  0.56961370  0.87490114  1
  N  N59  1  0.43897629  0.43041732  0.63727558  1
  N  N60  1  0.22546219  0.87062602  0.38990536  1
  N  N61  1  0.11788693  0.76189966  0.13127481  1
  N  N62  1  0.87613634  0.87873281  0.81189169  1
  N  N63  1  0.79498105  0.77497991  0.59297996  1
  N  N64  1  0.55362623  0.87132821  0.39458524  1
  N  N65  1  0.44724149  0.75973308  0.13977650  1
  N  N66  1  0.24106690  0.86276524  0.87487928  1
  N  N67  1  0.09131990  0.77152367  0.63089707  1
  N  N68  1  0.88462943  0.87586443  0.32823154  1
  N  N69  1  0.78336206  0.75954591  0.07127588  1
  N  N70  1  0.53428812  0.86265151  0.87487114  1
  N  N71  1  0.44102644  0.76274357  0.65613789  1
