# generated using pymatgen
data_Al11BN12
_symmetry_space_group_name_H-M   'P 1'
_cell_length_a   9.28342923
_cell_length_b   9.26310912
_cell_length_c   10.11257725
_cell_angle_alpha   90.02391057
_cell_angle_beta   90.48883794
_cell_angle_gamma   59.94189283
_symmetry_Int_Tables_number   1
_chemical_formula_structural   Al11BN12
_chemical_formula_sum   'Al33 B3 N36'
_cell_volume   752.63253617
_cell_formula_units_Z   3
loop_
 _symmetry_equiv_pos_site_id
 _symmetry_equiv_pos_as_xyz
  1  'x, y, z'
loop_
 _atom_site_type_symbol
 _atom_site_label
 _atom_site_symmetry_multiplicity
 _atom_site_fract_x
 _atom_site_fract_y
 _atom_site_fract_z
 _atom_site_occupancy
  Al  Al0  1  0.12102936  0.08850659  0.32097355  1
  Al  Al1  1  0.21884060  0.20739228  0.07033606  1
  Al  Al2  1  0.77617074  0.08730918  0.81135849  1
  Al  Al3  1  0.44716267  0.09219998  0.32253704  1
  Al  Al4  1  0.55556399  0.20370241  0.07145330  1
  Al  Al5  1  0.11850222  0.08910786  0.81952303  1
  Al  Al6  1  0.21565245  0.20847897  0.57037949  1
  Al  Al7  1  0.77764247  0.09095535  0.32972881  1
  Al  Al8  1  0.88379808  0.21047887  0.14007501  1
  Al  Al9  1  0.44151230  0.09124172  0.82115548  1
  Al  Al10  1  0.56287462  0.20126894  0.57208464  1
  Al  Al11  1  0.11817843  0.42521536  0.32209973  1
  Al  Al12  1  0.21880950  0.54033942  0.07254407  1
  Al  Al13  1  0.77717797  0.42986237  0.88360982  1
  Al  Al14  1  0.88468890  0.54229369  0.64268050  1
  Al  Al15  1  0.44865662  0.42869252  0.32350176  1
  Al  Al16  1  0.54476415  0.54679987  0.06656845  1
  Al  Al17  1  0.11762632  0.42519729  0.82125179  1
  Al  Al18  1  0.21691125  0.54314224  0.56966339  1
  Al  Al19  1  0.79035769  0.41572523  0.40252235  1
  Al  Al20  1  0.87625342  0.54431809  0.14380864  1
  Al  Al21  1  0.44181996  0.43326513  0.82173402  1
  Al  Al22  1  0.55370934  0.53744309  0.58475526  1
  Al  Al23  1  0.11379017  0.76331154  0.32586128  1
  Al  Al24  1  0.22489312  0.86853620  0.06615216  1
  Al  Al25  1  0.77374217  0.75682119  0.88462419  1
  Al  Al26  1  0.45009244  0.75793255  0.32621288  1
  Al  Al27  1  0.54285481  0.87409264  0.06940776  1
  Al  Al28  1  0.10891578  0.76283767  0.81545950  1
  Al  Al29  1  0.21283176  0.87852079  0.57564108  1
  Al  Al30  1  0.78533336  0.75844208  0.40255710  1
  Al  Al31  1  0.89068445  0.87496907  0.07047652  1
  Al  Al32  1  0.55211587  0.87568265  0.58394641  1
  B  B33  1  0.89504820  0.20618902  0.65274061  1
  B  B34  1  0.89987665  0.88060472  0.56634043  1
  B  B35  1  0.44105426  0.76160993  0.81890791  1
  N  N36  1  0.22435296  0.20479647  0.38272905  1
  N  N37  1  0.11698809  0.08826949  0.12636768  1
  N  N38  1  0.88272972  0.21262660  0.81601467  1
  N  N39  1  0.79864904  0.07780814  0.62157450  1
  N  N40  1  0.55584660  0.20574119  0.38416799  1
  N  N41  1  0.44241952  0.09423566  0.13216916  1
  N  N42  1  0.22078766  0.20603809  0.88284988  1
  N  N43  1  0.09270456  0.10511640  0.62945571  1
  N  N44  1  0.89044329  0.20940410  0.32917444  1
  N  N45  1  0.77295103  0.08849725  0.13675719  1
  N  N46  1  0.55647906  0.20417772  0.88099282  1
  N  N47  1  0.44092997  0.09828191  0.63427071  1
  N  N48  1  0.22475733  0.53929563  0.38213179  1
  N  N49  1  0.11197472  0.42695858  0.13223421  1
  N  N50  1  0.88499578  0.54023244  0.82930392  1
  N  N51  1  0.79672372  0.39607296  0.59308443  1
  N  N52  1  0.55493424  0.54054351  0.39308529  1
  N  N53  1  0.44485560  0.42804229  0.13216614  1
  N  N54  1  0.22019040  0.54177882  0.88299836  1
  N  N55  1  0.11654027  0.42631775  0.63075004  1
  N  N56  1  0.88297745  0.54235148  0.33646076  1
  N  N57  1  0.77905854  0.42467366  0.07301803  1
  N  N58  1  0.53600134  0.56811458  0.87335836  1
  N  N59  1  0.44231762  0.42650450  0.63479176  1
  N  N60  1  0.22838414  0.87047866  0.38769804  1
  N  N61  1  0.11033416  0.76276974  0.13544564  1
  N  N62  1  0.89224452  0.87491238  0.88217993  1
  N  N63  1  0.79042506  0.77137413  0.59367943  1
  N  N64  1  0.55239665  0.87410974  0.39003099  1
  N  N65  1  0.44294815  0.75963092  0.13839644  1
  N  N66  1  0.24286035  0.85932370  0.87254284  1
  N  N67  1  0.08758608  0.77433194  0.62501156  1
  N  N68  1  0.90018698  0.87709687  0.40374592  1
  N  N69  1  0.77417823  0.75926978  0.07987714  1
  N  N70  1  0.53396468  0.86277711  0.87437765  1
  N  N71  1  0.44154741  0.76223350  0.65441381  1
