# generated using pymatgen
data_Al11BN12
_symmetry_space_group_name_H-M   'P 1'
_cell_length_a   9.25907863
_cell_length_b   9.25657903
_cell_length_c   9.89722730
_cell_angle_alpha   90.00007365
_cell_angle_beta   89.91035185
_cell_angle_gamma   60.00902328
_symmetry_Int_Tables_number   1
_chemical_formula_structural   Al11BN12
_chemical_formula_sum   'Al33 B3 N36'
_cell_volume   734.68510255
_cell_formula_units_Z   3
loop_
 _symmetry_equiv_pos_site_id
 _symmetry_equiv_pos_as_xyz
  1  'x, y, z'
loop_
 _atom_site_type_symbol
 _atom_site_label
 _atom_site_symmetry_multiplicity
 _atom_site_fract_x
 _atom_site_fract_y
 _atom_site_fract_z
 _atom_site_occupancy
  Al  Al0  1  0.10558981  0.09560977  0.40186935  1
  Al  Al1  1  0.22095167  0.20488239  0.14852459  1
  Al  Al2  1  0.78035555  0.09315721  0.88545341  1
  Al  Al3  1  0.44479146  0.09282845  0.39759768  1
  Al  Al4  1  0.55856876  0.20405063  0.14728564  1
  Al  Al5  1  0.11492388  0.09114826  0.89302019  1
  Al  Al6  1  0.21629184  0.20757037  0.64842637  1
  Al  Al7  1  0.78275858  0.09195600  0.40662449  1
  Al  Al8  1  0.88816979  0.20463332  0.14589300  1
  Al  Al9  1  0.44272055  0.09140158  0.89824215  1
  Al  Al10  1  0.56141798  0.20262589  0.64765180  1
  Al  Al11  1  0.10980618  0.42843153  0.39757736  1
  Al  Al12  1  0.22095160  0.54083538  0.14852444  1
  Al  Al13  1  0.77563265  0.43023564  0.89123025  1
  Al  Al14  1  0.89011685  0.53827584  0.64725665  1
  Al  Al15  1  0.44479117  0.42905055  0.39759780  1
  Al  Al16  1  0.55579673  0.54049831  0.14078760  1
  Al  Al17  1  0.11061577  0.42802686  0.89944510  1
  Al  Al18  1  0.21629156  0.54280767  0.64842666  1
  Al  Al19  1  0.77764810  0.42327355  0.40201708  1
  Al  Al20  1  0.88653267  0.54006818  0.14809426  1
  Al  Al21  1  0.44272044  0.43254817  0.89824191  1
  Al  Al22  1  0.55549806  0.53925077  0.65252825  1
  Al  Al23  1  0.10558978  0.76546951  0.40186953  1
  Al  Al24  1  0.22311121  0.87177885  0.14124097  1
  Al  Al25  1  0.77563249  0.76080154  0.89123053  1
  Al  Al26  1  0.44451939  0.76107560  0.39597035  1
  Al  Al27  1  0.55579692  0.87037404  0.14078765  1
  Al  Al28  1  0.11492378  0.76059812  0.89302021  1
  Al  Al29  1  0.21826505  0.87420255  0.65242050  1
  Al  Al30  1  0.77764865  0.76574777  0.40201719  1
  Al  Al31  1  0.88816954  0.87386705  0.14589320  1
  Al  Al32  1  0.55549821  0.87192042  0.65252842  1
  B  B33  1  0.89459279  0.19712367  0.65484806  1
  B  B34  1  0.89459301  0.87495174  0.65484830  1
  B  B35  1  0.44461290  0.76102844  0.90066882  1
  N  N36  1  0.22047619  0.20417487  0.34106630  1
  N  N37  1  0.10938228  0.09535487  0.08452372  1
  N  N38  1  0.89126336  0.20442847  0.81780520  1
  N  N39  1  0.80024900  0.08321069  0.60250521  1
  N  N40  1  0.55917170  0.20374948  0.34195282  1
  N  N41  1  0.44383736  0.09538492  0.08946693  1
  N  N42  1  0.22184174  0.20677307  0.83858187  1
  N  N43  1  0.08678022  0.10464938  0.59784087  1
  N  N44  1  0.88742668  0.20464280  0.33644173  1
  N  N45  1  0.77948700  0.09359134  0.07926033  1
  N  N46  1  0.55407806  0.20629601  0.83817883  1
  N  N47  1  0.44298986  0.09378356  0.59013437  1
  N  N48  1  0.22047608  0.54201849  0.34106620  1
  N  N49  1  0.11020826  0.42823040  0.09130489  1
  N  N50  1  0.89022452  0.53822268  0.83682690  1
  N  N51  1  0.78682080  0.40301900  0.59740910  1
  N  N52  1  0.55645718  0.53962803  0.33478355  1
  N  N53  1  0.44383701  0.42744720  0.08946665  1
  N  N54  1  0.22184144  0.53805526  0.83858209  1
  N  N55  1  0.11045467  0.42810735  0.58753160  1
  N  N56  1  0.88482628  0.54092161  0.34262843  1
  N  N57  1  0.77950705  0.42561171  0.08352574  1
  N  N58  1  0.54281638  0.56379003  0.84561191  1
  N  N59  1  0.44298945  0.42989605  0.59013440  1
  N  N60  1  0.22142055  0.87262438  0.33717765  1
  N  N61  1  0.10938195  0.76193206  0.08452374  1
  N  N62  1  0.89126324  0.87097798  0.81780533  1
  N  N63  1  0.78682128  0.77682921  0.59740938  1
  N  N64  1  0.55645756  0.87058491  0.33478367  1
  N  N65  1  0.44414801  0.76126051  0.06768505  1
  N  N66  1  0.24800962  0.85933020  0.84462067  1
  N  N67  1  0.08678016  0.77523980  0.59784109  1
  N  N68  1  0.88742659  0.87460090  0.33644201  1
  N  N69  1  0.77950724  0.76155025  0.08352610  1
  N  N70  1  0.54281626  0.86006362  0.84561213  1
  N  N71  1  0.44395992  0.76135470  0.58589741  1
