# generated using pymatgen
data_Al11BN12
_symmetry_space_group_name_H-M   'P 1'
_cell_length_a   9.30192019
_cell_length_b   9.33481708
_cell_length_c   10.15105282
_cell_angle_alpha   90.11356260
_cell_angle_beta   90.43616757
_cell_angle_gamma   59.56094882
_symmetry_Int_Tables_number   1
_chemical_formula_structural   Al11BN12
_chemical_formula_sum   'Al33 B3 N36'
_cell_volume   759.92036845
_cell_formula_units_Z   3
loop_
 _symmetry_equiv_pos_site_id
 _symmetry_equiv_pos_as_xyz
  1  'x, y, z'
loop_
 _atom_site_type_symbol
 _atom_site_label
 _atom_site_symmetry_multiplicity
 _atom_site_fract_x
 _atom_site_fract_y
 _atom_site_fract_z
 _atom_site_occupancy
  Al  Al0  1  0.12059983  0.08855051  0.32086673  1
  Al  Al1  1  0.22084136  0.20725531  0.07170436  1
  Al  Al2  1  0.77118438  0.09572151  0.80414208  1
  Al  Al3  1  0.44862108  0.08968141  0.32162833  1
  Al  Al4  1  0.55651796  0.20468027  0.06828487  1
  Al  Al5  1  0.12190089  0.08838755  0.82232773  1
  Al  Al6  1  0.21809520  0.21002621  0.56830358  1
  Al  Al7  1  0.77464401  0.09423577  0.32907901  1
  Al  Al8  1  0.88397939  0.21226566  0.13955022  1
  Al  Al9  1  0.44306069  0.09045399  0.82072235  1
  Al  Al10  1  0.56102501  0.19483440  0.57084469  1
  Al  Al11  1  0.11840506  0.42552819  0.32185203  1
  Al  Al12  1  0.22154564  0.53897249  0.07094540  1
  Al  Al13  1  0.77543329  0.43608923  0.88468076  1
  Al  Al14  1  0.88795202  0.54499440  0.64390276  1
  Al  Al15  1  0.44939153  0.42736801  0.32367203  1
  Al  Al16  1  0.54442673  0.54709030  0.06736923  1
  Al  Al17  1  0.11958815  0.42459851  0.82212953  1
  Al  Al18  1  0.21761739  0.54402206  0.57079335  1
  Al  Al19  1  0.79140338  0.41644231  0.40168874  1
  Al  Al20  1  0.87751711  0.54362180  0.14314301  1
  Al  Al21  1  0.44310111  0.43267195  0.82036639  1
  Al  Al22  1  0.55181948  0.53869872  0.58552161  1
  Al  Al23  1  0.11935307  0.75836353  0.32152264  1
  Al  Al24  1  0.22583649  0.86942998  0.06609921  1
  Al  Al25  1  0.77778695  0.75864330  0.88705338  1
  Al  Al26  1  0.45020548  0.75741933  0.32807137  1
  Al  Al27  1  0.54377979  0.87332629  0.06785701  1
  Al  Al28  1  0.11518582  0.75883855  0.81911886  1
  Al  Al29  1  0.20308778  0.88234018  0.57690597  1
  Al  Al30  1  0.78827191  0.75975820  0.40063830  1
  Al  Al31  1  0.88491365  0.86835664  0.13530132  1
  Al  Al32  1  0.55021550  0.87468580  0.58374149  1
  B  B33  1  0.90972017  0.23551820  0.66195312  1
  B  B34  1  0.88153445  0.87023816  0.64468388  1
  B  B35  1  0.44114849  0.76267319  0.81880446  1
  N  N36  1  0.22391632  0.20464123  0.38150815  1
  N  N37  1  0.11860080  0.08912992  0.12727627  1
  N  N38  1  0.88163429  0.22079341  0.81001936  1
  N  N39  1  0.78179102  0.05757027  0.62070059  1
  N  N40  1  0.55307537  0.20572073  0.38302241  1
  N  N41  1  0.44613633  0.09254381  0.13153286  1
  N  N42  1  0.22135992  0.20628983  0.88451245  1
  N  N43  1  0.09264861  0.11300331  0.63121814  1
  N  N44  1  0.88912314  0.20930019  0.32999050  1
  N  N45  1  0.77286102  0.09693327  0.12667500  1
  N  N46  1  0.55461087  0.20648697  0.87948857  1
  N  N47  1  0.43737224  0.09616701  0.63455286  1
  N  N48  1  0.22502928  0.53855860  0.38326576  1
  N  N49  1  0.11414494  0.42727264  0.13251190  1
  N  N50  1  0.88565968  0.54167552  0.82930847  1
  N  N51  1  0.80088724  0.40233412  0.59338485  1
  N  N52  1  0.55513613  0.53947767  0.39490704  1
  N  N53  1  0.44677769  0.42764983  0.13261840  1
  N  N54  1  0.22262276  0.53917390  0.88335001  1
  N  N55  1  0.11944560  0.42585717  0.63154979  1
  N  N56  1  0.88212539  0.54115905  0.33566586  1
  N  N57  1  0.78043795  0.42597293  0.07212109  1
  N  N58  1  0.53487016  0.56950536  0.87339617  1
  N  N59  1  0.44611178  0.42303520  0.63393702  1
  N  N60  1  0.22438224  0.87145969  0.38921718  1
  N  N61  1  0.11976018  0.75875530  0.12864903  1
  N  N62  1  0.88477675  0.86905586  0.83166612  1
  N  N63  1  0.79375106  0.76795140  0.59162138  1
  N  N64  1  0.55192213  0.87251408  0.39234674  1
  N  N65  1  0.44526763  0.75972453  0.13975123  1
  N  N66  1  0.24246621  0.86129618  0.87364025  1
  N  N67  1  0.08868660  0.77111089  0.62957244  1
  N  N68  1  0.88850781  0.86500079  0.32738089  1
  N  N69  1  0.77793246  0.75840019  0.07541341  1
  N  N70  1  0.53479915  0.86200680  0.87415683  1
  N  N71  1  0.43826072  0.76336452  0.65476578  1
