# generated using pymatgen
data_Al11BN12
_symmetry_space_group_name_H-M   'P 1'
_cell_length_a   9.30011093
_cell_length_b   9.33405827
_cell_length_c   10.15547371
_cell_angle_alpha   90.12169237
_cell_angle_beta   90.44181520
_cell_angle_gamma   59.55756509
_symmetry_Int_Tables_number   1
_chemical_formula_structural   Al11BN12
_chemical_formula_sum   'Al33 B3 N36'
_cell_volume   760.01488210
_cell_formula_units_Z   3
loop_
 _symmetry_equiv_pos_site_id
 _symmetry_equiv_pos_as_xyz
  1  'x, y, z'
loop_
 _atom_site_type_symbol
 _atom_site_label
 _atom_site_symmetry_multiplicity
 _atom_site_fract_x
 _atom_site_fract_y
 _atom_site_fract_z
 _atom_site_occupancy
  Al  Al0  1  0.12059266  0.08843770  0.32081916  1
  Al  Al1  1  0.22080640  0.20725542  0.07166828  1
  Al  Al2  1  0.77300861  0.09294544  0.80523728  1
  Al  Al3  1  0.44867334  0.08971759  0.32149985  1
  Al  Al4  1  0.55652932  0.20465945  0.06790399  1
  Al  Al5  1  0.12187369  0.08827898  0.82243057  1
  Al  Al6  1  0.21813168  0.21003454  0.56818755  1
  Al  Al7  1  0.77439444  0.09413101  0.32733433  1
  Al  Al8  1  0.88396864  0.21227555  0.13951014  1
  Al  Al9  1  0.44320584  0.09036776  0.82085005  1
  Al  Al10  1  0.56075996  0.19486411  0.57097562  1
  Al  Al11  1  0.11853896  0.42544109  0.32176835  1
  Al  Al12  1  0.22153970  0.53900937  0.07073749  1
  Al  Al13  1  0.77538565  0.43630116  0.88460704  1
  Al  Al14  1  0.88822070  0.54520741  0.64390780  1
  Al  Al15  1  0.44943332  0.42727989  0.32361698  1
  Al  Al16  1  0.54440474  0.54705173  0.06731624  1
  Al  Al17  1  0.11959715  0.42470962  0.82222133  1
  Al  Al18  1  0.21759811  0.54377046  0.57072407  1
  Al  Al19  1  0.79148265  0.41618416  0.40169160  1
  Al  Al20  1  0.87741057  0.54326604  0.14345661  1
  Al  Al21  1  0.44323108  0.43265341  0.82038618  1
  Al  Al22  1  0.55182589  0.53874903  0.58543652  1
  Al  Al23  1  0.11909880  0.75839631  0.32090491  1
  Al  Al24  1  0.22573156  0.86928250  0.06586922  1
  Al  Al25  1  0.77853074  0.75904325  0.88862957  1
  Al  Al26  1  0.44997730  0.75733745  0.32798028  1
  Al  Al27  1  0.54358209  0.87318915  0.06808719  1
  Al  Al28  1  0.11297310  0.76002189  0.82028078  1
  Al  Al29  1  0.20290543  0.88267750  0.57698547  1
  Al  Al30  1  0.78794589  0.75957510  0.39888743  1
  Al  Al31  1  0.88523624  0.86844314  0.13211732  1
  Al  Al32  1  0.54999714  0.87495784  0.58345089  1
  B  B33  1  0.91014814  0.23643431  0.66235314  1
  B  B34  1  0.88232512  0.87021364  0.63435660  1
  B  B35  1  0.44110782  0.76278254  0.81902209  1
  N  N36  1  0.22401133  0.20454357  0.38150942  1
  N  N37  1  0.11862119  0.08902104  0.12723841  1
  N  N38  1  0.88140271  0.22099195  0.80950340  1
  N  N39  1  0.78208058  0.05569297  0.62117731  1
  N  N40  1  0.55339314  0.20551601  0.38336368  1
  N  N41  1  0.44605533  0.09263289  0.13152726  1
  N  N42  1  0.22124301  0.20634593  0.88449400  1
  N  N43  1  0.09257633  0.11320878  0.63118668  1
  N  N44  1  0.88917668  0.20912645  0.33006168  1
  N  N45  1  0.77226677  0.09754760  0.12739587  1
  N  N46  1  0.55478172  0.20648940  0.87900213  1
  N  N47  1  0.43735126  0.09616237  0.63458537  1
  N  N48  1  0.22498799  0.53863205  0.38344628  1
  N  N49  1  0.11415449  0.42725621  0.13253092  1
  N  N50  1  0.88542865  0.54233467  0.82909198  1
  N  N51  1  0.80093527  0.40265919  0.59335415  1
  N  N52  1  0.55517194  0.53941508  0.39494643  1
  N  N53  1  0.44677132  0.42753499  0.13259435  1
  N  N54  1  0.22276587  0.53919013  0.88302301  1
  N  N55  1  0.11953446  0.42578670  0.63158360  1
  N  N56  1  0.88236958  0.54058835  0.33584719  1
  N  N57  1  0.78051681  0.42573002  0.07194656  1
  N  N58  1  0.53491999  0.56956374  0.87336276  1
  N  N59  1  0.44606334  0.42317205  0.63390150  1
  N  N60  1  0.22419876  0.87136136  0.38948662  1
  N  N61  1  0.12039845  0.75835520  0.12901266  1
  N  N62  1  0.88652423  0.87111019  0.84555187  1
  N  N63  1  0.79462254  0.76819785  0.59058511  1
  N  N64  1  0.55176788  0.87247213  0.39235307  1
  N  N65  1  0.44493783  0.75969460  0.13979923  1
  N  N66  1  0.24277852  0.86105038  0.87319400  1
  N  N67  1  0.08607664  0.77229955  0.62938651  1
  N  N68  1  0.88842365  0.86499600  0.32676921  1
  N  N69  1  0.77684758  0.75760556  0.07710503  1
  N  N70  1  0.53499969  0.86205332  0.87419630  1
  N  N71  1  0.43827369  0.76339018  0.65463909  1
