# generated using pymatgen
data_Al11BN12
_symmetry_space_group_name_H-M   'P 1'
_cell_length_a   9.26445799
_cell_length_b   9.31887079
_cell_length_c   10.06230162
_cell_angle_alpha   89.57954265
_cell_angle_beta   90.33545100
_cell_angle_gamma   60.11066748
_symmetry_Int_Tables_number   1
_chemical_formula_structural   Al11BN12
_chemical_formula_sum   'Al33 B3 N36'
_cell_volume   753.10696707
_cell_formula_units_Z   3
loop_
 _symmetry_equiv_pos_site_id
 _symmetry_equiv_pos_as_xyz
  1  'x, y, z'
loop_
 _atom_site_type_symbol
 _atom_site_label
 _atom_site_symmetry_multiplicity
 _atom_site_fract_x
 _atom_site_fract_y
 _atom_site_fract_z
 _atom_site_occupancy
  Al  Al0  1  0.11313250  0.09191073  0.32364292  1
  Al  Al1  1  0.22037370  0.20577373  0.07167366  1
  Al  Al2  1  0.78027394  0.09963709  0.81345751  1
  Al  Al3  1  0.44701614  0.09292883  0.32376489  1
  Al  Al4  1  0.55761486  0.20416372  0.07388175  1
  Al  Al5  1  0.10881094  0.09471893  0.82003784  1
  Al  Al6  1  0.21764699  0.20633941  0.57153574  1
  Al  Al7  1  0.78262013  0.09146161  0.33413755  1
  Al  Al8  1  0.89039085  0.19929781  0.07924851  1
  Al  Al9  1  0.44403292  0.09154350  0.82233251  1
  Al  Al10  1  0.56309982  0.20981030  0.57450573  1
  Al  Al11  1  0.11981869  0.42224683  0.32146242  1
  Al  Al12  1  0.21910214  0.54003132  0.07205165  1
  Al  Al13  1  0.77596212  0.43313315  0.88831562  1
  Al  Al14  1  0.88849913  0.53637383  0.64327609  1
  Al  Al15  1  0.44980950  0.42645818  0.32296071  1
  Al  Al16  1  0.54307244  0.54920766  0.06990068  1
  Al  Al17  1  0.11996118  0.42304726  0.82345907  1
  Al  Al18  1  0.22075067  0.53713860  0.56885017  1
  Al  Al19  1  0.78552524  0.42142698  0.39778189  1
  Al  Al20  1  0.87799675  0.54299077  0.14301791  1
  Al  Al21  1  0.44177916  0.43483296  0.82300041  1
  Al  Al22  1  0.55188517  0.54173921  0.58412732  1
  Al  Al23  1  0.11691541  0.76000300  0.32312448  1
  Al  Al24  1  0.22354120  0.87089949  0.06568764  1
  Al  Al25  1  0.77442204  0.75733973  0.88555405  1
  Al  Al26  1  0.44529094  0.76019366  0.32593834  1
  Al  Al27  1  0.54309403  0.87458714  0.06988411  1
  Al  Al28  1  0.10585596  0.76303895  0.81573479  1
  Al  Al29  1  0.20739143  0.88116538  0.57564752  1
  Al  Al30  1  0.78043439  0.75526044  0.39124785  1
  Al  Al31  1  0.88953728  0.87720329  0.07050376  1
  Al  Al32  1  0.55378278  0.87681278  0.58276488  1
  B  B33  1  0.88732146  0.20620894  0.58568627  1
  B  B34  1  0.91868873  0.82714905  0.55252368  1
  B  B35  1  0.43956565  0.76388989  0.81822715  1
  N  N36  1  0.22447880  0.20341273  0.38310399  1
  N  N37  1  0.11506003  0.08942725  0.13278648  1
  N  N38  1  0.89305473  0.19935229  0.88863747  1
  N  N39  1  0.78528903  0.12763960  0.62878840  1
  N  N40  1  0.55734387  0.20449023  0.38473161  1
  N  N41  1  0.44471682  0.09295818  0.13270123  1
  N  N42  1  0.22217973  0.20365625  0.88242939  1
  N  N43  1  0.08347459  0.10996978  0.62869655  1
  N  N44  1  0.89681308  0.19703270  0.38452676  1
  N  N45  1  0.77850947  0.08977941  0.14220902  1
  N  N46  1  0.55648053  0.20657661  0.88253630  1
  N  N47  1  0.44660848  0.09735749  0.63414247  1
  N  N48  1  0.22515849  0.53722933  0.38075948  1
  N  N49  1  0.11361803  0.42491755  0.13063979  1
  N  N50  1  0.88611100  0.54070646  0.83116624  1
  N  N51  1  0.79258623  0.40871387  0.59180432  1
  N  N52  1  0.55139314  0.54271705  0.39046541  1
  N  N53  1  0.44439490  0.42775911  0.13204847  1
  N  N54  1  0.21902654  0.54310649  0.88270455  1
  N  N55  1  0.11966702  0.42223564  0.63193252  1
  N  N56  1  0.88497863  0.53994712  0.33408020  1
  N  N57  1  0.77383798  0.43080908  0.08366607  1
  N  N58  1  0.53553936  0.56976003  0.87428770  1
  N  N59  1  0.43861777  0.43314874  0.63526410  1
  N  N60  1  0.22536659  0.87085577  0.38780723  1
  N  N61  1  0.11083720  0.76195167  0.13311495  1
  N  N62  1  0.88761110  0.87948601  0.87917450  1
  N  N63  1  0.79891267  0.76166904  0.58717258  1
  N  N64  1  0.55011818  0.87413298  0.38928357  1
  N  N65  1  0.44040759  0.76227973  0.13785044  1
  N  N66  1  0.24080962  0.86116764  0.86937873  1
  N  N67  1  0.08648918  0.76673355  0.62206616  1
  N  N68  1  0.90188499  0.86720840  0.40137887  1
  N  N69  1  0.77503895  0.76005797  0.08247472  1
  N  N70  1  0.53503120  0.86274977  0.87394432  1
  N  N71  1  0.44013976  0.76571451  0.65326664  1
