# generated using pymatgen
data_Al11BN12
_symmetry_space_group_name_H-M   'P 1'
_cell_length_a   9.33571512
_cell_length_b   9.34725611
_cell_length_c   9.95565488
_cell_angle_alpha   90.04469123
_cell_angle_beta   90.49945095
_cell_angle_gamma   59.96312070
_symmetry_Int_Tables_number   1
_chemical_formula_structural   Al11BN12
_chemical_formula_sum   'Al33 B3 N36'
_cell_volume   752.05649008
_cell_formula_units_Z   3
loop_
 _symmetry_equiv_pos_site_id
 _symmetry_equiv_pos_as_xyz
  1  'x, y, z'
loop_
 _atom_site_type_symbol
 _atom_site_label
 _atom_site_symmetry_multiplicity
 _atom_site_fract_x
 _atom_site_fract_y
 _atom_site_fract_z
 _atom_site_occupancy
  Al  Al0  1  0.10601433  0.09841452  0.40185291  1
  Al  Al1  1  0.22186282  0.20348357  0.10174462  1
  Al  Al2  1  0.78065274  0.09289004  0.87699319  1
  Al  Al3  1  0.44782558  0.09167615  0.32723136  1
  Al  Al4  1  0.55407353  0.20692731  0.07179432  1
  Al  Al5  1  0.10824323  0.09522824  0.86936046  1
  Al  Al6  1  0.21412494  0.20884732  0.62797693  1
  Al  Al7  1  0.78973414  0.08917529  0.39792288  1
  Al  Al8  1  0.89053660  0.20315280  0.13768467  1
  Al  Al9  1  0.44725099  0.08787630  0.82249225  1
  Al  Al10  1  0.55976879  0.20327752  0.57984026  1
  Al  Al11  1  0.11018505  0.42509725  0.39202430  1
  Al  Al12  1  0.22569596  0.53923764  0.07053421  1
  Al  Al13  1  0.77492410  0.43007433  0.87989115  1
  Al  Al14  1  0.88703035  0.54026045  0.64076679  1
  Al  Al15  1  0.44553185  0.42857752  0.32662832  1
  Al  Al16  1  0.54864063  0.54623324  0.07051792  1
  Al  Al17  1  0.10370606  0.42925575  0.88317576  1
  Al  Al18  1  0.22054390  0.54070280  0.58733378  1
  Al  Al19  1  0.78548259  0.41903956  0.39457119  1
  Al  Al20  1  0.88544023  0.54054641  0.14013272  1
  Al  Al21  1  0.44365761  0.43291750  0.82106157  1
  Al  Al22  1  0.55640204  0.53649699  0.58208320  1
  Al  Al23  1  0.10376892  0.76782915  0.39843737  1
  Al  Al24  1  0.23116105  0.86762051  0.06219731  1
  Al  Al25  1  0.77558894  0.76075325  0.88041069  1
  Al  Al26  1  0.44230084  0.76235455  0.32903638  1
  Al  Al27  1  0.54934927  0.87094288  0.07019918  1
  Al  Al28  1  0.10868260  0.76295304  0.86586658  1
  Al  Al29  1  0.21836593  0.87401327  0.60434618  1
  Al  Al30  1  0.78599517  0.76170418  0.39458601  1
  Al  Al31  1  0.89056958  0.87316268  0.13740705  1
  Al  Al32  1  0.55613684  0.87400829  0.58139659  1
  B  B33  1  0.89155760  0.19974132  0.64928327  1
  B  B34  1  0.89254579  0.87309690  0.64952645  1
  B  B35  1  0.44603946  0.76009296  0.81571517  1
  N  N36  1  0.22277099  0.20197018  0.35971581  1
  N  N37  1  0.10624043  0.09569811  0.06792635  1
  N  N38  1  0.88272161  0.20834679  0.80970132  1
  N  N39  1  0.80307830  0.08228449  0.59528172  1
  N  N40  1  0.55656279  0.20559010  0.38552914  1
  N  N41  1  0.44979396  0.09066975  0.13110025  1
  N  N42  1  0.21930916  0.20819708  0.84207381  1
  N  N43  1  0.08186538  0.10934202  0.60163431  1
  N  N44  1  0.89120495  0.20264943  0.32777820  1
  N  N45  1  0.78619475  0.09051882  0.07262737  1
  N  N46  1  0.54768583  0.20983745  0.87876228  1
  N  N47  1  0.44749462  0.09317482  0.63311190  1
  N  N48  1  0.22561746  0.54047272  0.38473450  1
  N  N49  1  0.10614528  0.42908839  0.08108813  1
  N  N50  1  0.88357674  0.54140055  0.82769098  1
  N  N51  1  0.79386040  0.39830220  0.59042266  1
  N  N52  1  0.55320537  0.54189404  0.38811320  1
  N  N53  1  0.44602823  0.42818490  0.13307433  1
  N  N54  1  0.22432975  0.53554335  0.86937282  1
  N  N55  1  0.10473323  0.42960245  0.58804362  1
  N  N56  1  0.88613925  0.54032079  0.33316623  1
  N  N57  1  0.78132257  0.42389153  0.07540002  1
  N  N58  1  0.53669152  0.56777632  0.87440412  1
  N  N59  1  0.44581474  0.42667797  0.63401519  1
  N  N60  1  0.22933783  0.86944836  0.40030242  1
  N  N61  1  0.10542246  0.76730857  0.07131214  1
  N  N62  1  0.88249788  0.87490014  0.80969808  1
  N  N63  1  0.79445180  0.77430208  0.59015929  1
  N  N64  1  0.55398493  0.87110019  0.38785557  1
  N  N65  1  0.44240120  0.76232650  0.13823687  1
  N  N66  1  0.24828869  0.85908322  0.85746985  1
  N  N67  1  0.08274813  0.77447846  0.60373828  1
  N  N68  1  0.88981105  0.87387681  0.32756471  1
  N  N69  1  0.78197257  0.76079796  0.07546796  1
  N  N70  1  0.53706858  0.86141134  0.87482138  1
  N  N71  1  0.45211455  0.75737103  0.65403201  1
