# generated using pymatgen
data_Al11BN12
_symmetry_space_group_name_H-M   'P 1'
_cell_length_a   9.31614874
_cell_length_b   9.30918460
_cell_length_c   10.02065234
_cell_angle_alpha   90.03795307
_cell_angle_beta   90.20291403
_cell_angle_gamma   60.05954345
_symmetry_Int_Tables_number   1
_chemical_formula_structural   Al11BN12
_chemical_formula_sum   'Al33 B3 N36'
_cell_volume   753.06397099
_cell_formula_units_Z   3
loop_
 _symmetry_equiv_pos_site_id
 _symmetry_equiv_pos_as_xyz
  1  'x, y, z'
loop_
 _atom_site_type_symbol
 _atom_site_label
 _atom_site_symmetry_multiplicity
 _atom_site_fract_x
 _atom_site_fract_y
 _atom_site_fract_z
 _atom_site_occupancy
  Al  Al0  1  0.10438587  0.09951907  0.39874367  1
  Al  Al1  1  0.21549894  0.20604593  0.13854134  1
  Al  Al2  1  0.78123360  0.09238943  0.87918526  1
  Al  Al3  1  0.44973106  0.08556595  0.32819614  1
  Al  Al4  1  0.56581549  0.20044124  0.13472661  1
  Al  Al5  1  0.11017565  0.09714692  0.87642155  1
  Al  Al6  1  0.20862649  0.21342724  0.63950438  1
  Al  Al7  1  0.78512408  0.09145429  0.39909070  1
  Al  Al8  1  0.88974939  0.20437883  0.13671751  1
  Al  Al9  1  0.44459736  0.08611370  0.82217238  1
  Al  Al10  1  0.56940458  0.19930334  0.63606453  1
  Al  Al11  1  0.11162046  0.42738371  0.38794927  1
  Al  Al12  1  0.21539638  0.54494761  0.13843606  1
  Al  Al13  1  0.77840690  0.42840952  0.87712268  1
  Al  Al14  1  0.88987081  0.53792420  0.63965446  1
  Al  Al15  1  0.44948797  0.43164249  0.32789568  1
  Al  Al16  1  0.54836311  0.54628308  0.06560607  1
  Al  Al17  1  0.10982693  0.42805073  0.89394851  1
  Al  Al18  1  0.20872959  0.54396468  0.63978718  1
  Al  Al19  1  0.78644455  0.41936166  0.39484370  1
  Al  Al20  1  0.88316537  0.54159229  0.13803468  1
  Al  Al21  1  0.44444089  0.43622033  0.82246449  1
  Al  Al22  1  0.55414940  0.53874430  0.58075892  1
  Al  Al23  1  0.10432184  0.76251997  0.39873337  1
  Al  Al24  1  0.23216859  0.86730244  0.06360685  1
  Al  Al25  1  0.77842648  0.75895889  0.87769673  1
  Al  Al26  1  0.44300962  0.76188567  0.32632867  1
  Al  Al27  1  0.54831638  0.87214934  0.06567964  1
  Al  Al28  1  0.11042255  0.75871556  0.87696194  1
  Al  Al29  1  0.21698640  0.87474368  0.59767621  1
  Al  Al30  1  0.78665289  0.76107522  0.39483202  1
  Al  Al31  1  0.88969935  0.87259585  0.13715767  1
  Al  Al32  1  0.55439994  0.87409593  0.58105103  1
  B  B33  1  0.89328023  0.20027667  0.64719167  1
  B  B34  1  0.89501492  0.86864672  0.64822392  1
  B  B35  1  0.44432031  0.76118180  0.81478121  1
  N  N36  1  0.21604127  0.20516150  0.33276303  1
  N  N37  1  0.10748434  0.09767024  0.07052008  1
  N  N38  1  0.88754324  0.20532287  0.80833293  1
  N  N39  1  0.80164229  0.08499686  0.59203175  1
  N  N40  1  0.56558798  0.20074948  0.33835331  1
  N  N41  1  0.44766687  0.08768627  0.12767244  1
  N  N42  1  0.21509715  0.21244932  0.83019511  1
  N  N43  1  0.08141426  0.11186880  0.59417055  1
  N  N44  1  0.88977524  0.20358178  0.32623892  1
  N  N45  1  0.78347931  0.09136758  0.07067444  1
  N  N46  1  0.55913297  0.20391555  0.83550046  1
  N  N47  1  0.44184832  0.09424546  0.62547709  1
  N  N48  1  0.21581113  0.54536742  0.33264139  1
  N  N49  1  0.10887705  0.42866874  0.08282901  1
  N  N50  1  0.89041651  0.53784610  0.82646070  1
  N  N51  1  0.79336837  0.39995266  0.59009670  1
  N  N52  1  0.55426516  0.54374427  0.38893888  1
  N  N53  1  0.44758348  0.43128243  0.12742134  1
  N  N54  1  0.21496376  0.53868484  0.83051685  1
  N  N55  1  0.10768564  0.42923844  0.57559882  1
  N  N56  1  0.88565350  0.54065768  0.33070216  1
  N  N57  1  0.78171495  0.42373178  0.07170825  1
  N  N58  1  0.53840750  0.56836636  0.87184189  1
  N  N59  1  0.44137350  0.43150490  0.62575978  1
  N  N60  1  0.22904725  0.86863307  0.39700396  1
  N  N61  1  0.10746523  0.76142394  0.07089024  1
  N  N62  1  0.88778388  0.87265169  0.80844642  1
  N  N63  1  0.79418394  0.77345913  0.59039383  1
  N  N64  1  0.55455504  0.86870486  0.38930101  1
  N  N65  1  0.44381829  0.76148587  0.13704112  1
  N  N66  1  0.24845748  0.85890078  0.86215600  1
  N  N67  1  0.08151166  0.77258070  0.59440008  1
  N  N68  1  0.88951200  0.87416384  0.32677369  1
  N  N69  1  0.78175968  0.76091845  0.07208139  1
  N  N70  1  0.53845946  0.86009247  0.87183421  1
  N  N71  1  0.44779597  0.75965184  0.65371488  1
