# generated using pymatgen
data_Al11BN12
_symmetry_space_group_name_H-M   'P 1'
_cell_length_a   9.33275682
_cell_length_b   9.35154817
_cell_length_c   9.97796199
_cell_angle_alpha   90.00366891
_cell_angle_beta   90.49492997
_cell_angle_gamma   59.92974048
_symmetry_Int_Tables_number   1
_chemical_formula_structural   Al11BN12
_chemical_formula_sum   'Al33 B3 N36'
_cell_volume   753.59248349
_cell_formula_units_Z   3
loop_
 _symmetry_equiv_pos_site_id
 _symmetry_equiv_pos_as_xyz
  1  'x, y, z'
loop_
 _atom_site_type_symbol
 _atom_site_label
 _atom_site_symmetry_multiplicity
 _atom_site_fract_x
 _atom_site_fract_y
 _atom_site_fract_z
 _atom_site_occupancy
  Al  Al0  1  0.10289133  0.09573564  0.39791066  1
  Al  Al1  1  0.22541458  0.20200957  0.07262210  1
  Al  Al2  1  0.78086135  0.09296135  0.87727258  1
  Al  Al3  1  0.44632437  0.09204572  0.32644905  1
  Al  Al4  1  0.55315124  0.20668176  0.07164849  1
  Al  Al5  1  0.10905675  0.09439328  0.86872661  1
  Al  Al6  1  0.22087015  0.20480372  0.58639414  1
  Al  Al7  1  0.78829614  0.08897818  0.39841807  1
  Al  Al8  1  0.88991462  0.20318617  0.13744535  1
  Al  Al9  1  0.44353801  0.09013070  0.82139691  1
  Al  Al10  1  0.56011975  0.20316114  0.58115385  1
  Al  Al11  1  0.10775639  0.42945353  0.38906016  1
  Al  Al12  1  0.22528746  0.53952103  0.07206829  1
  Al  Al13  1  0.77545545  0.42993641  0.88027991  1
  Al  Al14  1  0.88860249  0.53908492  0.64156732  1
  Al  Al15  1  0.44636993  0.42809145  0.32638553  1
  Al  Al16  1  0.54873349  0.54609228  0.06995547  1
  Al  Al17  1  0.10347215  0.43155402  0.88304828  1
  Al  Al18  1  0.22089249  0.54093561  0.58699276  1
  Al  Al19  1  0.78485899  0.41933084  0.39542645  1
  Al  Al20  1  0.88517742  0.54068909  0.13996868  1
  Al  Al21  1  0.44378722  0.43278663  0.82138050  1
  Al  Al22  1  0.55654369  0.53650346  0.58289210  1
  Al  Al23  1  0.10340896  0.76760342  0.39743431  1
  Al  Al24  1  0.23042578  0.86762647  0.06378681  1
  Al  Al25  1  0.77525898  0.76132168  0.88052604  1
  Al  Al26  1  0.44307221  0.76170831  0.32874414  1
  Al  Al27  1  0.54846279  0.87175539  0.07003503  1
  Al  Al28  1  0.10918823  0.76316475  0.86571919  1
  Al  Al29  1  0.21820935  0.87442137  0.60367139  1
  Al  Al30  1  0.78488047  0.76226653  0.39540032  1
  Al  Al31  1  0.88996319  0.87326474  0.13728528  1
  Al  Al32  1  0.55657231  0.87354102  0.58286597  1
  B  B33  1  0.89346061  0.20041748  0.64952277  1
  B  B34  1  0.89263917  0.87367005  0.64959461  1
  B  B35  1  0.44579717  0.76054426  0.81604889  1
  N  N36  1  0.22586446  0.19999114  0.38378667  1
  N  N37  1  0.10536096  0.09390119  0.07239313  1
  N  N38  1  0.88376619  0.20830778  0.80956658  1
  N  N39  1  0.80338742  0.08118858  0.59526207  1
  N  N40  1  0.55517668  0.20564614  0.38675411  1
  N  N41  1  0.44679698  0.09193143  0.13352891  1
  N  N42  1  0.22489229  0.20567389  0.87136984  1
  N  N43  1  0.08281178  0.10926835  0.60199157  1
  N  N44  1  0.88863393  0.20364774  0.32751177  1
  N  N45  1  0.78526353  0.09063420  0.07257634  1
  N  N46  1  0.54777424  0.20941543  0.87839411  1
  N  N47  1  0.44572853  0.09398495  0.63452136  1
  N  N48  1  0.22603121  0.54057651  0.38409523  1
  N  N49  1  0.10607023  0.43038325  0.08594336  1
  N  N50  1  0.88392785  0.54141469  0.82801729  1
  N  N51  1  0.79463357  0.39800917  0.59063826  1
  N  N52  1  0.55283883  0.54190969  0.38916404  1
  N  N53  1  0.44670531  0.42787124  0.13336938  1
  N  N54  1  0.22485618  0.53603042  0.87070989  1
  N  N55  1  0.10531084  0.43064898  0.58943792  1
  N  N56  1  0.88438881  0.54101966  0.33305145  1
  N  N57  1  0.78145294  0.42380706  0.07506875  1
  N  N58  1  0.53705410  0.56763686  0.87422626  1
  N  N59  1  0.44597292  0.42670174  0.63453373  1
  N  N60  1  0.22921014  0.86867444  0.39898445  1
  N  N61  1  0.10514805  0.76719066  0.07225789  1
  N  N62  1  0.88280048  0.87502613  0.80961281  1
  N  N63  1  0.79462881  0.77397720  0.59050429  1
  N  N64  1  0.55281811  0.87175598  0.38915101  1
  N  N65  1  0.44306576  0.76162876  0.13839157  1
  N  N66  1  0.24879225  0.85904678  0.85840202  1
  N  N67  1  0.08338271  0.77444450  0.60374010  1
  N  N68  1  0.88890610  0.87394673  0.32756025  1
  N  N69  1  0.78113240  0.76132718  0.07524556  1
  N  N70  1  0.53690066  0.86199963  0.87428042  1
  N  N71  1  0.45167840  0.75751073  0.65426320  1
