# generated using pymatgen
data_Al11BN12
_symmetry_space_group_name_H-M   'P 1'
_cell_length_a   9.26594738
_cell_length_b   9.31967280
_cell_length_c   9.94936058
_cell_angle_alpha   90.24493613
_cell_angle_beta   89.68811513
_cell_angle_gamma   60.06743875
_symmetry_Int_Tables_number   1
_chemical_formula_structural   Al11BN12
_chemical_formula_sum   'Al33 B3 N36'
_cell_volume   744.54415352
_cell_formula_units_Z   3
loop_
 _symmetry_equiv_pos_site_id
 _symmetry_equiv_pos_as_xyz
  1  'x, y, z'
loop_
 _atom_site_type_symbol
 _atom_site_label
 _atom_site_symmetry_multiplicity
 _atom_site_fract_x
 _atom_site_fract_y
 _atom_site_fract_z
 _atom_site_occupancy
  Al  Al0  1  0.10160255  0.10224214  0.40109455  1
  Al  Al1  1  0.22194213  0.20311572  0.14522662  1
  Al  Al2  1  0.78007185  0.09168546  0.87922894  1
  Al  Al3  1  0.44579599  0.09530149  0.39702056  1
  Al  Al4  1  0.55878718  0.20413273  0.14327441  1
  Al  Al5  1  0.11125671  0.09592749  0.88007437  1
  Al  Al6  1  0.21809481  0.20783576  0.64572620  1
  Al  Al7  1  0.78136203  0.09879898  0.40414685  1
  Al  Al8  1  0.88895526  0.20426776  0.14027776  1
  Al  Al9  1  0.44216669  0.09066217  0.89610305  1
  Al  Al10  1  0.56242531  0.20825070  0.64479340  1
  Al  Al11  1  0.11062674  0.42731922  0.39391266  1
  Al  Al12  1  0.22192476  0.54104561  0.14553551  1
  Al  Al13  1  0.77316302  0.43168191  0.89031457  1
  Al  Al14  1  0.89273816  0.53304628  0.64713795  1
  Al  Al15  1  0.44431154  0.42832740  0.39661171  1
  Al  Al16  1  0.55710853  0.53812337  0.14879635  1
  Al  Al17  1  0.11092606  0.42639877  0.89912460  1
  Al  Al18  1  0.21904585  0.53667564  0.64732559  1
  Al  Al19  1  0.77966955  0.42312115  0.40117055  1
  Al  Al20  1  0.88597088  0.53991153  0.14648054  1
  Al  Al21  1  0.44320183  0.43260625  0.89628380  1
  Al  Al22  1  0.55628000  0.54041048  0.64396963  1
  Al  Al23  1  0.10052756  0.76216755  0.40068098  1
  Al  Al24  1  0.23029131  0.86910711  0.08771549  1
  Al  Al25  1  0.77182533  0.75705480  0.89414202  1
  Al  Al26  1  0.44658954  0.76025515  0.38823965  1
  Al  Al27  1  0.55715604  0.87219588  0.14999436  1
  Al  Al28  1  0.11503341  0.75563984  0.88454107  1
  Al  Al29  1  0.21185465  0.87762731  0.60241083  1
  Al  Al30  1  0.78103766  0.76529659  0.40113040  1
  Al  Al31  1  0.88857911  0.87510162  0.14372103  1
  Al  Al32  1  0.55727238  0.87339950  0.64595239  1
  B  B33  1  0.88478231  0.20651183  0.64887402  1
  B  B34  1  0.90718072  0.83199538  0.66175081  1
  B  B35  1  0.44314532  0.76105738  0.85899349  1
  N  N36  1  0.22185798  0.20333132  0.33729416  1
  N  N37  1  0.10890016  0.09754150  0.07497252  1
  N  N38  1  0.88570731  0.20833162  0.81502680  1
  N  N39  1  0.78713108  0.12015472  0.59293231  1
  N  N40  1  0.55785047  0.20559816  0.33680827  1
  N  N41  1  0.44595626  0.09265706  0.08650776  1
  N  N42  1  0.22304433  0.20758473  0.83483348  1
  N  N43  1  0.08179207  0.11447073  0.59817204  1
  N  N44  1  0.88864721  0.20739731  0.32958120  1
  N  N45  1  0.78096977  0.09164867  0.07406241  1
  N  N46  1  0.55342762  0.20604320  0.83577086  1
  N  N47  1  0.44621009  0.09545686  0.58876266  1
  N  N48  1  0.22003119  0.54194278  0.33719844  1
  N  N49  1  0.11124156  0.42700666  0.08965683  1
  N  N50  1  0.89050006  0.53700057  0.83646757  1
  N  N51  1  0.78693648  0.41098822  0.59517740  1
  N  N52  1  0.55974827  0.53397615  0.34048865  1
  N  N53  1  0.44566792  0.42745457  0.08642077  1
  N  N54  1  0.22308529  0.53415953  0.83616127  1
  N  N55  1  0.11205711  0.42598871  0.58402892  1
  N  N56  1  0.88552212  0.54197195  0.34034213  1
  N  N57  1  0.77828786  0.42592922  0.08131176  1
  N  N58  1  0.53961807  0.56866597  0.83878553  1
  N  N59  1  0.43972869  0.43365375  0.58804268  1
  N  N60  1  0.21549902  0.87434322  0.38771553  1
  N  N61  1  0.10883566  0.76014508  0.07783546  1
  N  N62  1  0.88925278  0.86415038  0.81533230  1
  N  N63  1  0.79340417  0.77006391  0.59850968  1
  N  N64  1  0.56074855  0.87373920  0.34233731  1
  N  N65  1  0.44890008  0.75906909  0.11275479  1
  N  N66  1  0.25155675  0.85665710  0.85401214  1
  N  N67  1  0.08150642  0.76589281  0.60019177  1
  N  N68  1  0.88546373  0.87817984  0.33459950  1
  N  N69  1  0.77915523  0.76170921  0.08387252  1
  N  N70  1  0.54031563  0.85772263  0.83933941  1
  N  N71  1  0.45150566  0.75970665  0.58432567  1
