# generated using pymatgen
data_Al11BN12
_symmetry_space_group_name_H-M   'P 1'
_cell_length_a   9.31202881
_cell_length_b   9.31206544
_cell_length_c   10.01612506
_cell_angle_alpha   90.05246625
_cell_angle_beta   90.40977266
_cell_angle_gamma   60.01305149
_symmetry_Int_Tables_number   1
_chemical_formula_structural   Al11BN12
_chemical_formula_sum   'Al33 B3 N36'
_cell_volume   752.25424706
_cell_formula_units_Z   3
loop_
 _symmetry_equiv_pos_site_id
 _symmetry_equiv_pos_as_xyz
  1  'x, y, z'
loop_
 _atom_site_type_symbol
 _atom_site_label
 _atom_site_symmetry_multiplicity
 _atom_site_fract_x
 _atom_site_fract_y
 _atom_site_fract_z
 _atom_site_occupancy
  Al  Al0  1  0.10589447  0.10041416  0.39959423  1
  Al  Al1  1  0.21686105  0.20529021  0.14109530  1
  Al  Al2  1  0.78189722  0.09254319  0.87538874  1
  Al  Al3  1  0.45496115  0.08847371  0.32643461  1
  Al  Al4  1  0.55405699  0.20573563  0.06933355  1
  Al  Al5  1  0.10970079  0.09733302  0.87815088  1
  Al  Al6  1  0.20861180  0.21141749  0.64238095  1
  Al  Al7  1  0.79091854  0.08873465  0.39899834  1
  Al  Al8  1  0.88947233  0.20367734  0.13717224  1
  Al  Al9  1  0.44658726  0.08799252  0.82152333  1
  Al  Al10  1  0.55839030  0.20362785  0.57970414  1
  Al  Al11  1  0.11143394  0.42542355  0.38949264  1
  Al  Al12  1  0.22469234  0.53872615  0.08312911  1
  Al  Al13  1  0.77588542  0.42955757  0.87846501  1
  Al  Al14  1  0.88836121  0.53881853  0.64052970  1
  Al  Al15  1  0.44711048  0.42801874  0.32596446  1
  Al  Al16  1  0.54923469  0.54624994  0.06850546  1
  Al  Al17  1  0.10588808  0.42497631  0.89065344  1
  Al  Al18  1  0.21620400  0.54125084  0.60201336  1
  Al  Al19  1  0.78507366  0.41970755  0.39512976  1
  Al  Al20  1  0.88432430  0.54138884  0.13955302  1
  Al  Al21  1  0.44337977  0.43306816  0.82113884  1
  Al  Al22  1  0.55469536  0.53750184  0.58178192  1
  Al  Al23  1  0.10512793  0.76510451  0.39801997  1
  Al  Al24  1  0.23219715  0.86829125  0.06412143  1
  Al  Al25  1  0.77722819  0.75966854  0.87913404  1
  Al  Al26  1  0.44308259  0.76185889  0.32813471  1
  Al  Al27  1  0.54903390  0.87241571  0.06824431  1
  Al  Al28  1  0.10899401  0.76271093  0.87053712  1
  Al  Al29  1  0.21752698  0.87574339  0.59943009  1
  Al  Al30  1  0.78671163  0.76090173  0.39559162  1
  Al  Al31  1  0.88982987  0.87353255  0.13748933  1
  Al  Al32  1  0.55500439  0.87426115  0.58192463  1
  B  B33  1  0.89270468  0.19975860  0.64786748  1
  B  B34  1  0.89272965  0.87412016  0.64888706  1
  B  B35  1  0.44410961  0.76144070  0.81628855  1
  N  N36  1  0.21877335  0.20414240  0.33358724  1
  N  N37  1  0.10860083  0.09805032  0.07188933  1
  N  N38  1  0.88635628  0.20667619  0.80859419  1
  N  N39  1  0.80311395  0.08188651  0.59528889  1
  N  N40  1  0.55723227  0.20588732  0.38713627  1
  N  N41  1  0.45229050  0.08969704  0.13229137  1
  N  N42  1  0.21579879  0.20990916  0.83124321  1
  N  N43  1  0.08133157  0.11167756  0.59487409  1
  N  N44  1  0.89020419  0.20365281  0.32665475  1
  N  N45  1  0.78723425  0.08996646  0.07017166  1
  N  N46  1  0.54793817  0.20927503  0.87769995  1
  N  N47  1  0.44430112  0.09451151  0.63137373  1
  N  N48  1  0.22463971  0.54031629  0.37302916  1
  N  N49  1  0.10787990  0.42571290  0.08277889  1
  N  N50  1  0.88702078  0.53920707  0.82684959  1
  N  N51  1  0.79279764  0.39884704  0.59028072  1
  N  N52  1  0.55292677  0.54233310  0.38900480  1
  N  N53  1  0.44903360  0.42647674  0.13229875  1
  N  N54  1  0.22070768  0.53564581  0.86043765  1
  N  N55  1  0.10532581  0.42564300  0.58018958  1
  N  N56  1  0.88573929  0.54029811  0.33170448  1
  N  N57  1  0.78186328  0.42378413  0.07322367  1
  N  N58  1  0.53669378  0.56783618  0.87398858  1
  N  N59  1  0.44495750  0.42691386  0.63412248  1
  N  N60  1  0.22926729  0.87041311  0.39822736  1
  N  N61  1  0.10607257  0.76640091  0.07134659  1
  N  N62  1  0.88423417  0.87428178  0.80847161  1
  N  N63  1  0.79440018  0.77355050  0.59017608  1
  N  N64  1  0.55393875  0.87072051  0.38957382  1
  N  N65  1  0.44411240  0.76178652  0.13847850  1
  N  N66  1  0.24828102  0.86024211  0.86169932  1
  N  N67  1  0.08199420  0.77518057  0.60012651  1
  N  N68  1  0.88966228  0.87393548  0.32696013  1
  N  N69  1  0.78264716  0.76052848  0.07324293  1
  N  N70  1  0.53741470  0.86164212  0.87398117  1
  N  N71  1  0.44917455  0.75873564  0.65468602  1
