# generated using pymatgen
data_Al11BN12
_symmetry_space_group_name_H-M   'P 1'
_cell_length_a   9.28800093
_cell_length_b   9.29756252
_cell_length_c   10.08517807
_cell_angle_alpha   90.01901045
_cell_angle_beta   90.66553954
_cell_angle_gamma   59.96871374
_symmetry_Int_Tables_number   1
_chemical_formula_structural   Al11BN12
_chemical_formula_sum   'Al33 B3 N36'
_cell_volume   753.92917727
_cell_formula_units_Z   3
loop_
 _symmetry_equiv_pos_site_id
 _symmetry_equiv_pos_as_xyz
  1  'x, y, z'
loop_
 _atom_site_type_symbol
 _atom_site_label
 _atom_site_symmetry_multiplicity
 _atom_site_fract_x
 _atom_site_fract_y
 _atom_site_fract_z
 _atom_site_occupancy
  Al  Al0  1  0.11546324  0.08921607  0.33650598  1
  Al  Al1  1  0.22483219  0.19882820  0.07466923  1
  Al  Al2  1  0.77875070  0.09438060  0.87973542  1
  Al  Al3  1  0.45072601  0.09043990  0.32667368  1
  Al  Al4  1  0.55183139  0.20729173  0.07081145  1
  Al  Al5  1  0.11500109  0.09066406  0.82586833  1
  Al  Al6  1  0.21788558  0.20273481  0.57757160  1
  Al  Al7  1  0.79314949  0.08545637  0.40405583  1
  Al  Al8  1  0.88463450  0.20616627  0.13860320  1
  Al  Al9  1  0.44001772  0.09224626  0.82201446  1
  Al  Al10  1  0.55711780  0.20529368  0.58264946  1
  Al  Al11  1  0.10722625  0.42967815  0.38627928  1
  Al  Al12  1  0.22523697  0.54271156  0.07696887  1
  Al  Al13  1  0.77558473  0.43038423  0.88103124  1
  Al  Al14  1  0.89220955  0.53763789  0.64320564  1
  Al  Al15  1  0.45153383  0.42424315  0.32648660  1
  Al  Al16  1  0.54895885  0.54604053  0.06887923  1
  Al  Al17  1  0.10286239  0.43341321  0.89203200  1
  Al  Al18  1  0.21737933  0.54936639  0.57220603  1
  Al  Al19  1  0.78622020  0.41796145  0.39985005  1
  Al  Al20  1  0.88487976  0.54044059  0.14164514  1
  Al  Al21  1  0.43805558  0.43638385  0.82240821  1
  Al  Al22  1  0.55456244  0.53783165  0.58553097  1
  Al  Al23  1  0.11916271  0.75933266  0.32149269  1
  Al  Al24  1  0.22707303  0.86844658  0.06545324  1
  Al  Al25  1  0.77457032  0.76116658  0.88090244  1
  Al  Al26  1  0.44830996  0.75911133  0.32788276  1
  Al  Al27  1  0.54793263  0.87145775  0.06881359  1
  Al  Al28  1  0.11494090  0.76038715  0.81894743  1
  Al  Al29  1  0.21229771  0.87632233  0.58204039  1
  Al  Al30  1  0.78715995  0.76208317  0.40016806  1
  Al  Al31  1  0.88157121  0.87652519  0.13932754  1
  Al  Al32  1  0.55427767  0.87433369  0.58526224  1
  B  B33  1  0.89094372  0.20006822  0.65291023  1
  B  B34  1  0.88831924  0.87728006  0.65301065  1
  B  B35  1  0.44251848  0.76147935  0.81904169  1
  N  N36  1  0.22754669  0.19826815  0.38337009  1
  N  N37  1  0.11441813  0.08829164  0.11896335  1
  N  N38  1  0.87791520  0.21104579  0.81261249  1
  N  N39  1  0.80480015  0.08037124  0.59794609  1
  N  N40  1  0.55714341  0.20440284  0.39110529  1
  N  N41  1  0.44933850  0.09063805  0.13548326  1
  N  N42  1  0.22160932  0.20375294  0.88085905  1
  N  N43  1  0.09095807  0.10383676  0.62969084  1
  N  N44  1  0.88389803  0.20586173  0.32884994  1
  N  N45  1  0.78583976  0.09004097  0.07068418  1
  N  N46  1  0.54364252  0.21237638  0.87990913  1
  N  N47  1  0.44179552  0.09613530  0.63660340  1
  N  N48  1  0.22732029  0.54101054  0.38032662  1
  N  N49  1  0.10711913  0.42978470  0.08974413  1
  N  N50  1  0.88627053  0.54047379  0.82775666  1
  N  N51  1  0.79540395  0.39681867  0.59250965  1
  N  N52  1  0.55289598  0.54181628  0.39319213  1
  N  N53  1  0.45022648  0.42586687  0.13566864  1
  N  N54  1  0.22047062  0.54590803  0.88482819  1
  N  N55  1  0.10607814  0.43177956  0.58313883  1
  N  N56  1  0.88279299  0.54166693  0.33281245  1
  N  N57  1  0.78239444  0.42373978  0.07308661  1
  N  N58  1  0.53597237  0.56860763  0.87431537  1
  N  N59  1  0.43976429  0.43048599  0.63642927  1
  N  N60  1  0.22573618  0.86864334  0.39249842  1
  N  N61  1  0.11725900  0.76155873  0.13076974  1
  N  N62  1  0.87654586  0.87861158  0.81300781  1
  N  N63  1  0.79482236  0.77507864  0.59286443  1
  N  N64  1  0.55319686  0.87137050  0.39317851  1
  N  N65  1  0.44607349  0.75977451  0.13933377  1
  N  N66  1  0.24388500  0.85977840  0.87271789  1
  N  N67  1  0.09082982  0.77152297  0.63092026  1
  N  N68  1  0.88458141  0.87549418  0.32851333  1
  N  N69  1  0.78203575  0.75977380  0.07271671  1
  N  N70  1  0.53481813  0.86252892  0.87455447  1
  N  N71  1  0.44328117  0.76157950  0.65557070  1
