# generated using pymatgen
data_Al11BN12
_symmetry_space_group_name_H-M   'P 1'
_cell_length_a   9.27336916
_cell_length_b   9.28452256
_cell_length_c   10.14116691
_cell_angle_alpha   89.99863645
_cell_angle_beta   90.42133205
_cell_angle_gamma   59.96136585
_symmetry_Int_Tables_number   1
_chemical_formula_structural   Al11BN12
_chemical_formula_sum   'Al33 B3 N36'
_cell_volume   755.84155189
_cell_formula_units_Z   3
loop_
 _symmetry_equiv_pos_site_id
 _symmetry_equiv_pos_as_xyz
  1  'x, y, z'
loop_
 _atom_site_type_symbol
 _atom_site_label
 _atom_site_symmetry_multiplicity
 _atom_site_fract_x
 _atom_site_fract_y
 _atom_site_fract_z
 _atom_site_occupancy
  Al  Al0  1  0.12180725  0.08779288  0.32073131  1
  Al  Al1  1  0.22099552  0.20680318  0.07138650  1
  Al  Al2  1  0.76836674  0.09914945  0.81666708  1
  Al  Al3  1  0.44943702  0.08984791  0.32323324  1
  Al  Al4  1  0.55601201  0.20532840  0.06906472  1
  Al  Al5  1  0.11783768  0.09030819  0.81909333  1
  Al  Al6  1  0.21519342  0.20763337  0.57012216  1
  Al  Al7  1  0.77886181  0.09390010  0.34157989  1
  Al  Al8  1  0.88474831  0.21134853  0.13821130  1
  Al  Al9  1  0.44002995  0.09137719  0.82075783  1
  Al  Al10  1  0.56113335  0.20276831  0.57432272  1
  Al  Al11  1  0.11800992  0.42432748  0.32236157  1
  Al  Al12  1  0.22099556  0.53886813  0.07138623  1
  Al  Al13  1  0.77626242  0.43228501  0.88338060  1
  Al  Al14  1  0.88441263  0.54112681  0.64222797  1
  Al  Al15  1  0.44943795  0.42737991  0.32323300  1
  Al  Al16  1  0.54554830  0.54712764  0.06734659  1
  Al  Al17  1  0.11679167  0.42493670  0.82090739  1
  Al  Al18  1  0.21519355  0.54384127  0.57012201  1
  Al  Al19  1  0.78972274  0.41676184  0.40231983  1
  Al  Al20  1  0.87774980  0.54445851  0.14229374  1
  Al  Al21  1  0.44003044  0.43525923  0.82075794  1
  Al  Al22  1  0.55201932  0.53880965  0.58417210  1
  Al  Al23  1  0.12180787  0.75706366  0.32073052  1
  Al  Al24  1  0.22675964  0.86995338  0.06586039  1
  Al  Al25  1  0.77626241  0.75811671  0.88338015  1
  Al  Al26  1  0.45131669  0.75767432  0.32679130  1
  Al  Al27  1  0.54554828  0.87399303  0.06734643  1
  Al  Al28  1  0.11783825  0.75851919  0.81909345  1
  Al  Al29  1  0.20853487  0.87906628  0.57588663  1
  Al  Al30  1  0.78972199  0.76017893  0.40232001  1
  Al  Al31  1  0.88474753  0.87057024  0.13821124  1
  Al  Al32  1  0.55201844  0.87584058  0.58417278  1
  B  B33  1  0.89187843  0.20603542  0.65372273  1
  B  B34  1  0.89187912  0.86875105  0.65372344  1
  B  B35  1  0.44163674  0.76251492  0.81884598  1
  N  N36  1  0.22528019  0.20365425  0.38286764  1
  N  N37  1  0.11933783  0.08848819  0.12833443  1
  N  N38  1  0.88192434  0.21566289  0.81574227  1
  N  N39  1  0.79487422  0.08589826  0.62245164  1
  N  N40  1  0.55542672  0.20561946  0.38583761  1
  N  N41  1  0.44626941  0.09272166  0.13269881  1
  N  N42  1  0.21975674  0.20656853  0.88381834  1
  N  N43  1  0.09159964  0.10499610  0.62980989  1
  N  N44  1  0.89031461  0.20969366  0.32901149  1
  N  N45  1  0.77548925  0.09558862  0.11635689  1
  N  N46  1  0.54946896  0.20859913  0.87980143  1
  N  N47  1  0.44054988  0.09780675  0.63463629  1
  N  N48  1  0.22528092  0.53773050  0.38286753  1
  N  N49  1  0.11383094  0.42641548  0.13302961  1
  N  N50  1  0.88379435  0.54143717  0.82781802  1
  N  N51  1  0.79500768  0.39766330  0.59253872  1
  N  N52  1  0.55395933  0.54052509  0.39284571  1
  N  N53  1  0.44626968  0.42767297  0.13269870  1
  N  N54  1  0.21975686  0.54034020  0.88381812  1
  N  N55  1  0.11639895  0.42513218  0.63055899  1
  N  N56  1  0.88195775  0.54235524  0.33616343  1
  N  N57  1  0.78050148  0.42645763  0.07215789  1
  N  N58  1  0.53458413  0.56935897  0.87386913  1
  N  N59  1  0.44054975  0.42830894  0.63463661  1
  N  N60  1  0.22678202  0.86994145  0.38803704  1
  N  N61  1  0.11933760  0.75883599  0.12833376  1
  N  N62  1  0.88192418  0.86908119  0.81574110  1
  N  N63  1  0.79500688  0.77399603  0.59253924  1
  N  N64  1  0.55395870  0.87218164  0.39284620  1
  N  N65  1  0.44644224  0.76011065  0.13892840  1
  N  N66  1  0.24266828  0.86199893  0.87392632  1
  N  N67  1  0.09159955  0.77006807  0.62980999  1
  N  N68  1  0.89031554  0.86665836  0.32901112  1
  N  N69  1  0.78050146  0.75970718  0.07215738  1
  N  N70  1  0.53458439  0.86272389  0.87386845  1
  N  N71  1  0.44074887  0.76295816  0.65464760  1
