# generated using pymatgen
data_Al11BN12
_symmetry_space_group_name_H-M   'P 1'
_cell_length_a   9.27605531
_cell_length_b   9.26054265
_cell_length_c   10.09809260
_cell_angle_alpha   89.86889700
_cell_angle_beta   90.44250153
_cell_angle_gamma   60.02229094
_symmetry_Int_Tables_number   1
_chemical_formula_structural   Al11BN12
_chemical_formula_sum   'Al33 B3 N36'
_cell_volume   751.35185826
_cell_formula_units_Z   3
loop_
 _symmetry_equiv_pos_site_id
 _symmetry_equiv_pos_as_xyz
  1  'x, y, z'
loop_
 _atom_site_type_symbol
 _atom_site_label
 _atom_site_symmetry_multiplicity
 _atom_site_fract_x
 _atom_site_fract_y
 _atom_site_fract_z
 _atom_site_occupancy
  Al  Al0  1  0.11927502  0.08996193  0.31768083  1
  Al  Al1  1  0.21935005  0.20743498  0.06961069  1
  Al  Al2  1  0.78094765  0.09289410  0.81865546  1
  Al  Al3  1  0.44710943  0.09273577  0.32255744  1
  Al  Al4  1  0.55553132  0.20380655  0.07059603  1
  Al  Al5  1  0.10938738  0.09330428  0.82475684  1
  Al  Al6  1  0.21550771  0.20852604  0.57066918  1
  Al  Al7  1  0.77824789  0.09232855  0.32573115  1
  Al  Al8  1  0.88609401  0.20691950  0.11947074  1
  Al  Al9  1  0.44185818  0.09073622  0.82123800  1
  Al  Al10  1  0.56231546  0.20382860  0.57275569  1
  Al  Al11  1  0.11896556  0.42465349  0.32244384  1
  Al  Al12  1  0.21825107  0.54063559  0.07251070  1
  Al  Al13  1  0.77878186  0.42790709  0.89204991  1
  Al  Al14  1  0.88561026  0.53979823  0.64176180  1
  Al  Al15  1  0.44876480  0.42839182  0.32288070  1
  Al  Al16  1  0.54310516  0.54891220  0.06870488  1
  Al  Al17  1  0.11723095  0.42469094  0.82149072  1
  Al  Al18  1  0.21733747  0.54223003  0.56924536  1
  Al  Al19  1  0.78859454  0.41662199  0.39507528  1
  Al  Al20  1  0.87572393  0.54672089  0.14625079  1
  Al  Al21  1  0.44183021  0.43346075  0.82252205  1
  Al  Al22  1  0.55334162  0.53665870  0.58336342  1
  Al  Al23  1  0.11408892  0.76410275  0.32518378  1
  Al  Al24  1  0.22470738  0.86946963  0.06490803  1
  Al  Al25  1  0.77351341  0.75545741  0.88389027  1
  Al  Al26  1  0.44859937  0.75972033  0.32598423  1
  Al  Al27  1  0.54280275  0.87450306  0.06934974  1
  Al  Al28  1  0.10843020  0.76260945  0.81569339  1
  Al  Al29  1  0.21386941  0.87706444  0.57623890  1
  Al  Al30  1  0.78488135  0.75996922  0.40157913  1
  Al  Al31  1  0.89019009  0.87535313  0.06834505  1
  Al  Al32  1  0.55296274  0.87598254  0.58380243  1
  B  B33  1  0.89387803  0.19719145  0.61515122  1
  B  B34  1  0.90530652  0.87184646  0.56433791  1
  B  B35  1  0.44123678  0.76115715  0.81946090  1
  N  N36  1  0.22426096  0.20431036  0.38350396  1
  N  N37  1  0.12079759  0.08683419  0.12721397  1
  N  N38  1  0.89023582  0.19969996  0.87660458  1
  N  N39  1  0.80239839  0.09126066  0.62195413  1
  N  N40  1  0.55703013  0.20546999  0.38487490  1
  N  N41  1  0.44250523  0.09466125  0.13205725  1
  N  N42  1  0.22131389  0.20530128  0.88119431  1
  N  N43  1  0.08458199  0.10744425  0.62904022  1
  N  N44  1  0.89043829  0.20960134  0.32542737  1
  N  N45  1  0.77206201  0.08697318  0.13623316  1
  N  N46  1  0.55603289  0.20419714  0.87958629  1
  N  N47  1  0.44185204  0.09808580  0.63391586  1
  N  N48  1  0.22490453  0.53975189  0.38182874  1
  N  N49  1  0.11156759  0.42697868  0.13247064  1
  N  N50  1  0.88378715  0.53815923  0.82807196  1
  N  N51  1  0.79802866  0.38959805  0.59053008  1
  N  N52  1  0.55403601  0.54168799  0.39243342  1
  N  N53  1  0.44401155  0.42801343  0.13202293  1
  N  N54  1  0.21956610  0.54163343  0.88279904  1
  N  N55  1  0.11651051  0.42574469  0.63043859  1
  N  N56  1  0.88436082  0.54372262  0.33902116  1
  N  N57  1  0.77335194  0.43417600  0.08216129  1
  N  N58  1  0.53647126  0.56725646  0.87419540  1
  N  N59  1  0.44108764  0.42767436  0.63490280  1
  N  N60  1  0.22754229  0.87202595  0.38849609  1
  N  N61  1  0.10981576  0.76340441  0.13463402  1
  N  N62  1  0.89079885  0.87358173  0.87907440  1
  N  N63  1  0.79246382  0.77226889  0.59368971  1
  N  N64  1  0.55268022  0.87426886  0.39015414  1
  N  N65  1  0.44104465  0.76169234  0.13859153  1
  N  N66  1  0.24327609  0.85914354  0.87027801  1
  N  N67  1  0.08827959  0.77273073  0.62448108  1
  N  N68  1  0.90035551  0.87836340  0.40457362  1
  N  N69  1  0.77408789  0.76006921  0.07979480  1
  N  N70  1  0.53410799  0.86214155  0.87401753  1
  N  N71  1  0.44332688  0.76116205  0.65376534  1
