# generated using pymatgen
data_Al11BN12
_symmetry_space_group_name_H-M   'P 1'
_cell_length_a   9.25887535
_cell_length_b   9.25676170
_cell_length_c   9.89718975
_cell_angle_alpha   90.00631537
_cell_angle_beta   89.91191329
_cell_angle_gamma   60.00987352
_symmetry_Int_Tables_number   1
_chemical_formula_structural   Al11BN12
_chemical_formula_sum   'Al33 B3 N36'
_cell_volume   734.68692832
_cell_formula_units_Z   3
loop_
 _symmetry_equiv_pos_site_id
 _symmetry_equiv_pos_as_xyz
  1  'x, y, z'
loop_
 _atom_site_type_symbol
 _atom_site_label
 _atom_site_symmetry_multiplicity
 _atom_site_fract_x
 _atom_site_fract_y
 _atom_site_fract_z
 _atom_site_occupancy
  Al  Al0  1  0.10559245  0.09562171  0.40007957  1
  Al  Al1  1  0.22096968  0.20486960  0.14674327  1
  Al  Al2  1  0.78037254  0.09312210  0.88364851  1
  Al  Al3  1  0.44481223  0.09284440  0.39581424  1
  Al  Al4  1  0.55858551  0.20405082  0.14549267  1
  Al  Al5  1  0.11493214  0.09112893  0.89123520  1
  Al  Al6  1  0.21631273  0.20754280  0.64663904  1
  Al  Al7  1  0.78276277  0.09200125  0.40484345  1
  Al  Al8  1  0.88817588  0.20463510  0.14409370  1
  Al  Al9  1  0.44273973  0.09138364  0.89645924  1
  Al  Al10  1  0.56143071  0.20265512  0.64586360  1
  Al  Al11  1  0.10982447  0.42842819  0.39579579  1
  Al  Al12  1  0.22096454  0.54082641  0.14674580  1
  Al  Al13  1  0.77564318  0.43021168  0.88943883  1
  Al  Al14  1  0.89014065  0.53824684  0.64547862  1
  Al  Al15  1  0.44479818  0.42907383  0.39580963  1
  Al  Al16  1  0.55580445  0.54050467  0.13900509  1
  Al  Al17  1  0.11063758  0.42799335  0.89766798  1
  Al  Al18  1  0.21631356  0.54277911  0.64665039  1
  Al  Al19  1  0.77764978  0.42330494  0.40023109  1
  Al  Al20  1  0.88654991  0.54005669  0.14631775  1
  Al  Al21  1  0.44273922  0.43253339  0.89645861  1
  Al  Al22  1  0.55549830  0.53928193  0.65074039  1
  Al  Al23  1  0.10559181  0.76547674  0.40009098  1
  Al  Al24  1  0.22311585  0.87177674  0.13946397  1
  Al  Al25  1  0.77564429  0.76076375  0.88947484  1
  Al  Al26  1  0.44452106  0.76110074  0.39419161  1
  Al  Al27  1  0.55580730  0.87037307  0.13901800  1
  Al  Al28  1  0.11494181  0.76056674  0.89124913  1
  Al  Al29  1  0.21825867  0.87419552  0.65063803  1
  Al  Al30  1  0.77767090  0.76576305  0.40023547  1
  Al  Al31  1  0.88817754  0.87387062  0.14411667  1
  Al  Al32  1  0.55551993  0.87192978  0.65075098  1
  B  B33  1  0.89458570  0.19707107  0.65305292  1
  B  B34  1  0.89462555  0.87482383  0.65307811  1
  B  B35  1  0.44462064  0.76101479  0.89888827  1
  N  N36  1  0.22049506  0.20417197  0.33928365  1
  N  N37  1  0.10939809  0.09533911  0.08273847  1
  N  N38  1  0.89127038  0.20440467  0.81601560  1
  N  N39  1  0.80025131  0.08327635  0.60071900  1
  N  N40  1  0.55917842  0.20377414  0.34016019  1
  N  N41  1  0.44385985  0.09536931  0.08768446  1
  N  N42  1  0.22186045  0.20674033  0.83679545  1
  N  N43  1  0.08678781  0.10462701  0.59604812  1
  N  N44  1  0.88743113  0.20467535  0.33464235  1
  N  N45  1  0.77950636  0.09357070  0.07746009  1
  N  N46  1  0.55408918  0.20628363  0.83639132  1
  N  N47  1  0.44302582  0.09378035  0.58835019  1
  N  N48  1  0.22047974  0.54202700  0.33928553  1
  N  N49  1  0.11022974  0.42820643  0.08952674  1
  N  N50  1  0.89024417  0.53819282  0.83504984  1
  N  N51  1  0.78681058  0.40306015  0.59561533  1
  N  N52  1  0.55645770  0.53965543  0.33299745  1
  N  N53  1  0.44385378  0.42743945  0.08768205  1
  N  N54  1  0.22185781  0.53802492  0.83680530  1
  N  N55  1  0.11048212  0.42807219  0.58574976  1
  N  N56  1  0.88484281  0.54093783  0.34084933  1
  N  N57  1  0.77951710  0.42560432  0.08173601  1
  N  N58  1  0.54282129  0.56378593  0.84382821  1
  N  N59  1  0.44299718  0.42991347  0.58834692  1
  N  N60  1  0.22142110  0.87263255  0.33539951  1
  N  N61  1  0.10939599  0.76191298  0.08275039  1
  N  N62  1  0.89127862  0.87092562  0.81602634  1
  N  N63  1  0.78687061  0.77681841  0.59563880  1
  N  N64  1  0.55647366  0.87059594  0.33301332  1
  N  N65  1  0.44415670  0.76125707  0.06590625  1
  N  N66  1  0.24801185  0.85930943  0.84283874  1
  N  N67  1  0.08679082  0.77519810  0.59606593  1
  N  N68  1  0.88742610  0.87463659  0.33466765  1
  N  N69  1  0.77952418  0.76153094  0.08176364  1
  N  N70  1  0.54283491  0.86004453  0.84383225  1
  N  N71  1  0.44396159  0.76137740  0.58411703  1
