# generated using pymatgen
data_Al11BN12
_symmetry_space_group_name_H-M   'P 1'
_cell_length_a   9.29963068
_cell_length_b   9.33501023
_cell_length_c   10.15134685
_cell_angle_alpha   90.08490502
_cell_angle_beta   90.41797599
_cell_angle_gamma   59.54319542
_symmetry_Int_Tables_number   1
_chemical_formula_structural   Al11BN12
_chemical_formula_sum   'Al33 B3 N36'
_cell_volume   759.63376545
_cell_formula_units_Z   3
loop_
 _symmetry_equiv_pos_site_id
 _symmetry_equiv_pos_as_xyz
  1  'x, y, z'
loop_
 _atom_site_type_symbol
 _atom_site_label
 _atom_site_symmetry_multiplicity
 _atom_site_fract_x
 _atom_site_fract_y
 _atom_site_fract_z
 _atom_site_occupancy
  Al  Al0  1  0.12026481  0.08784818  0.32099165  1
  Al  Al1  1  0.22063152  0.20741355  0.07178160  1
  Al  Al2  1  0.77753579  0.08732997  0.81083127  1
  Al  Al3  1  0.44884047  0.08985256  0.32140762  1
  Al  Al4  1  0.55571208  0.20537533  0.06746217  1
  Al  Al5  1  0.12209368  0.08833444  0.82280412  1
  Al  Al6  1  0.21828550  0.20979513  0.56769976  1
  Al  Al7  1  0.77428184  0.09197297  0.32129877  1
  Al  Al8  1  0.88392769  0.21302562  0.13945327  1
  Al  Al9  1  0.44328601  0.09036704  0.82085127  1
  Al  Al10  1  0.56096110  0.19398520  0.57212428  1
  Al  Al11  1  0.11880240  0.42528845  0.32176351  1
  Al  Al12  1  0.22224888  0.53859953  0.07077230  1
  Al  Al13  1  0.77540819  0.43759807  0.88437360  1
  Al  Al14  1  0.88889786  0.54576773  0.64261867  1
  Al  Al15  1  0.44965590  0.42673566  0.32414840  1
  Al  Al16  1  0.54462143  0.54691741  0.06743967  1
  Al  Al17  1  0.11974186  0.42498763  0.82212056  1
  Al  Al18  1  0.21753207  0.54319067  0.57070100  1
  Al  Al19  1  0.79161217  0.41494911  0.40156915  1
  Al  Al20  1  0.87745411  0.54260284  0.14444427  1
  Al  Al21  1  0.44368332  0.43270450  0.82034457  1
  Al  Al22  1  0.55176424  0.53887682  0.58529646  1
  Al  Al23  1  0.11630601  0.75918144  0.31822945  1
  Al  Al24  1  0.22653221  0.86888648  0.06559755  1
  Al  Al25  1  0.77917031  0.75994393  0.89255900  1
  Al  Al26  1  0.44859996  0.75707987  0.32801885  1
  Al  Al27  1  0.54304020  0.87309816  0.06939945  1
  Al  Al28  1  0.10879882  0.76282225  0.82461565  1
  Al  Al29  1  0.20175786  0.88326971  0.57750889  1
  Al  Al30  1  0.78662893  0.75931145  0.39254569  1
  Al  Al31  1  0.88823070  0.87120234  0.10839949  1
  Al  Al32  1  0.54969712  0.87512787  0.58186450  1
  B  B33  1  0.91119010  0.23881370  0.66361206  1
  B  B34  1  0.88307785  0.86902238  0.61337507  1
  B  B35  1  0.44120920  0.76292357  0.81894798  1
  N  N36  1  0.22408465  0.20414266  0.38127408  1
  N  N37  1  0.11866391  0.08874660  0.12694068  1
  N  N38  1  0.88120199  0.22164743  0.80922680  1
  N  N39  1  0.78200630  0.04913952  0.62683831  1
  N  N40  1  0.55503937  0.20429455  0.38448822  1
  N  N41  1  0.44564000  0.09315861  0.13150240  1
  N  N42  1  0.22101048  0.20674805  0.88441764  1
  N  N43  1  0.09208508  0.11380423  0.63123535  1
  N  N44  1  0.88902000  0.20816158  0.33013685  1
  N  N45  1  0.77043209  0.10044790  0.12777060  1
  N  N46  1  0.55516641  0.20625132  0.87828789  1
  N  N47  1  0.43707322  0.09574190  0.63442661  1
  N  N48  1  0.22468838  0.53902612  0.38377185  1
  N  N49  1  0.11431021  0.42728752  0.13240547  1
  N  N50  1  0.88500650  0.54515166  0.82808387  1
  N  N51  1  0.80108447  0.40324913  0.59362425  1
  N  N52  1  0.55530956  0.53906226  0.39510502  1
  N  N53  1  0.44692609  0.42732087  0.13279073  1
  N  N54  1  0.22285928  0.53945606  0.88241490  1
  N  N55  1  0.11991965  0.42521494  0.63153362  1
  N  N56  1  0.88304700  0.53841006  0.33609440  1
  N  N57  1  0.78085381  0.42575729  0.07140017  1
  N  N58  1  0.53513528  0.56986292  0.87315920  1
  N  N59  1  0.44610510  0.42317570  0.63387308  1
  N  N60  1  0.22304255  0.87067316  0.39025402  1
  N  N61  1  0.12318539  0.75704699  0.12896705  1
  N  N62  1  0.89223253  0.87770345  0.88603745  1
  N  N63  1  0.79563300  0.76752820  0.58663790  1
  N  N64  1  0.55063244  0.87234223  0.39143965  1
  N  N65  1  0.44441955  0.75945527  0.13998069  1
  N  N66  1  0.24359588  0.86083989  0.87228555  1
  N  N67  1  0.07975589  0.77443354  0.63097897  1
  N  N68  1  0.88816200  0.86509521  0.32606042  1
  N  N69  1  0.77408915  0.75597914  0.08091887  1
  N  N70  1  0.53559453  0.86259040  0.87431401  1
  N  N71  1  0.43810781  0.76352612  0.65431648  1
