# generated using pymatgen
data_Al11BN12
_symmetry_space_group_name_H-M   'P 1'
_cell_length_a   9.26477338
_cell_length_b   9.31838133
_cell_length_c   9.94302986
_cell_angle_alpha   90.24476714
_cell_angle_beta   89.70788620
_cell_angle_gamma   60.06795784
_symmetry_Int_Tables_number   1
_chemical_formula_structural   Al11BN12
_chemical_formula_sum   'Al33 B3 N36'
_cell_volume   743.87946527
_cell_formula_units_Z   3
loop_
 _symmetry_equiv_pos_site_id
 _symmetry_equiv_pos_as_xyz
  1  'x, y, z'
loop_
 _atom_site_type_symbol
 _atom_site_label
 _atom_site_symmetry_multiplicity
 _atom_site_fract_x
 _atom_site_fract_y
 _atom_site_fract_z
 _atom_site_occupancy
  Al  Al0  1  0.10193637  0.10160582  0.40133792  1
  Al  Al1  1  0.22200600  0.20324867  0.14529137  1
  Al  Al2  1  0.78014908  0.09163873  0.87912415  1
  Al  Al3  1  0.44575136  0.09519691  0.39682658  1
  Al  Al4  1  0.55884516  0.20410476  0.14328784  1
  Al  Al5  1  0.11177112  0.09502997  0.88038254  1
  Al  Al6  1  0.21808502  0.20776208  0.64571015  1
  Al  Al7  1  0.78140527  0.09876074  0.40417120  1
  Al  Al8  1  0.88880515  0.20438623  0.14035730  1
  Al  Al9  1  0.44218786  0.09064795  0.89607234  1
  Al  Al10  1  0.56237062  0.20826048  0.64472622  1
  Al  Al11  1  0.11063291  0.42733246  0.39394349  1
  Al  Al12  1  0.22197769  0.54083464  0.14560533  1
  Al  Al13  1  0.77321892  0.43159454  0.89021971  1
  Al  Al14  1  0.89269999  0.53307836  0.64708849  1
  Al  Al15  1  0.44426240  0.42849761  0.39642347  1
  Al  Al16  1  0.55705024  0.53836503  0.14817486  1
  Al  Al17  1  0.11092092  0.42642263  0.89901216  1
  Al  Al18  1  0.21902759  0.53673412  0.64732984  1
  Al  Al19  1  0.77957867  0.42320554  0.40099864  1
  Al  Al20  1  0.88603212  0.53987626  0.14648101  1
  Al  Al21  1  0.44321985  0.43260680  0.89624822  1
  Al  Al22  1  0.55626620  0.54039111  0.64422883  1
  Al  Al23  1  0.10085968  0.76254478  0.40097386  1
  Al  Al24  1  0.22862338  0.86987728  0.09604202  1
  Al  Al25  1  0.77190385  0.75709662  0.89403211  1
  Al  Al26  1  0.44646139  0.76035135  0.38962437  1
  Al  Al27  1  0.55708060  0.87199427  0.14935555  1
  Al  Al28  1  0.11558963  0.75611362  0.88475814  1
  Al  Al29  1  0.21226427  0.87739371  0.60903234  1
  Al  Al30  1  0.78095764  0.76531169  0.40096114  1
  Al  Al31  1  0.88839925  0.87511849  0.14380024  1
  Al  Al32  1  0.55726480  0.87341715  0.64617804  1
  B  B33  1  0.88482073  0.20637410  0.64888118  1
  B  B34  1  0.90718039  0.83217312  0.66166189  1
  B  B35  1  0.44281970  0.76125105  0.86040624  1
  N  N36  1  0.22176265  0.20339520  0.33737385  1
  N  N37  1  0.10915451  0.09709367  0.07519646  1
  N  N38  1  0.88596315  0.20818335  0.81506813  1
  N  N39  1  0.78715192  0.12002861  0.59304515  1
  N  N40  1  0.55786682  0.20560573  0.33686522  1
  N  N41  1  0.44594685  0.09271422  0.08656991  1
  N  N42  1  0.22293834  0.20749667  0.83496885  1
  N  N43  1  0.08204618  0.11396237  0.59784342  1
  N  N44  1  0.88865121  0.20741137  0.32968674  1
  N  N45  1  0.78101668  0.09161944  0.07406442  1
  N  N46  1  0.55341657  0.20605213  0.83576971  1
  N  N47  1  0.44623427  0.09535984  0.58867479  1
  N  N48  1  0.21992340  0.54204332  0.33729343  1
  N  N49  1  0.11121391  0.42700367  0.08964214  1
  N  N50  1  0.89045846  0.53702325  0.83644960  1
  N  N51  1  0.78685630  0.41100126  0.59511035  1
  N  N52  1  0.55943203  0.53462520  0.33997291  1
  N  N53  1  0.44565511  0.42740582  0.08648341  1
  N  N54  1  0.22298260  0.53438870  0.83630339  1
  N  N55  1  0.11203999  0.42598004  0.58413167  1
  N  N56  1  0.88551093  0.54198050  0.34035071  1
  N  N57  1  0.77842725  0.42585512  0.08130319  1
  N  N58  1  0.53966117  0.56850826  0.83886023  1
  N  N59  1  0.43974543  0.43371074  0.58796450  1
  N  N60  1  0.21588746  0.87424343  0.38283388  1
  N  N61  1  0.10900637  0.76024682  0.07799839  1
  N  N62  1  0.88948139  0.86408130  0.81534780  1
  N  N63  1  0.79334220  0.77012492  0.59843870  1
  N  N64  1  0.56045313  0.87343478  0.34179401  1
  N  N65  1  0.44938042  0.75880280  0.10794169  1
  N  N66  1  0.25079033  0.85703931  0.84824069  1
  N  N67  1  0.08164841  0.76609918  0.59989530  1
  N  N68  1  0.88548368  0.87816633  0.33469617  1
  N  N69  1  0.77927604  0.76163137  0.08386035  1
  N  N70  1  0.54036950  0.85785156  0.83941576  1
  N  N71  1  0.45115826  0.75986536  0.58416262  1
