# generated using pymatgen
data_Al11BN12
_symmetry_space_group_name_H-M   'P 1'
_cell_length_a   9.26251828
_cell_length_b   9.26791980
_cell_length_c   10.11544068
_cell_angle_alpha   89.99673223
_cell_angle_beta   90.64391505
_cell_angle_gamma   59.96966983
_symmetry_Int_Tables_number   1
_chemical_formula_structural   Al11BN12
_chemical_formula_sum   'Al33 B3 N36'
_cell_volume   751.72188200
_cell_formula_units_Z   3
loop_
 _symmetry_equiv_pos_site_id
 _symmetry_equiv_pos_as_xyz
  1  'x, y, z'
loop_
 _atom_site_type_symbol
 _atom_site_label
 _atom_site_symmetry_multiplicity
 _atom_site_fract_x
 _atom_site_fract_y
 _atom_site_fract_z
 _atom_site_occupancy
  Al  Al0  1  0.12032650  0.08762403  0.32187674  1
  Al  Al1  1  0.22206440  0.20446420  0.07586760  1
  Al  Al2  1  0.77824590  0.09416584  0.87963589  1
  Al  Al3  1  0.45293568  0.08972458  0.32747107  1
  Al  Al4  1  0.55187581  0.20734114  0.07108054  1
  Al  Al5  1  0.11524882  0.09080877  0.81928638  1
  Al  Al6  1  0.21387527  0.20731109  0.57122267  1
  Al  Al7  1  0.79550109  0.08553475  0.40548465  1
  Al  Al8  1  0.88228447  0.20767060  0.14028721  1
  Al  Al9  1  0.43771325  0.09222703  0.82266960  1
  Al  Al10  1  0.55595475  0.20530181  0.58325052  1
  Al  Al11  1  0.11748752  0.42455048  0.32689182  1
  Al  Al12  1  0.22206615  0.54003991  0.07586735  1
  Al  Al13  1  0.77508455  0.43062584  0.88167408  1
  Al  Al14  1  0.88599339  0.54028951  0.64230946  1
  Al  Al15  1  0.45293733  0.42391431  0.32747065  1
  Al  Al16  1  0.54760170  0.54651552  0.06883943  1
  Al  Al17  1  0.11397035  0.42631131  0.83094277  1
  Al  Al18  1  0.21387305  0.54538177  0.57122246  1
  Al  Al19  1  0.78881551  0.41652029  0.40170003  1
  Al  Al20  1  0.87977948  0.54339298  0.14127783  1
  Al  Al21  1  0.43771488  0.43663389  0.82266966  1
  Al  Al22  1  0.55267451  0.53861404  0.58564182  1
  Al  Al23  1  0.12032767  0.75863491  0.32187528  1
  Al  Al24  1  0.22683145  0.86986975  0.06705258  1
  Al  Al25  1  0.77508088  0.76087371  0.88167091  1
  Al  Al26  1  0.45012538  0.75822538  0.32810910  1
  Al  Al27  1  0.54760057  0.87244472  0.06883838  1
  Al  Al28  1  0.11524481  0.76053269  0.81928598  1
  Al  Al29  1  0.21054720  0.87800867  0.57817286  1
  Al  Al30  1  0.78881391  0.76124273  0.40170026  1
  Al  Al31  1  0.88228559  0.87660606  0.14028568  1
  Al  Al32  1  0.55267697  0.87527361  0.58564279  1
  B  B33  1  0.88903220  0.20045739  0.65346190  1
  B  B34  1  0.88903076  0.87710832  0.65346009  1
  B  B35  1  0.44126213  0.76264902  0.81997123  1
  N  N36  1  0.22578669  0.20210599  0.38336482  1
  N  N37  1  0.11832367  0.08781631  0.13107326  1
  N  N38  1  0.87667465  0.21156270  0.81277166  1
  N  N39  1  0.80486246  0.08085872  0.59876942  1
  N  N40  1  0.55855672  0.20399316  0.39237733  1
  N  N41  1  0.44975937  0.09072867  0.13644348  1
  N  N42  1  0.21769250  0.20533886  0.88758763  1
  N  N43  1  0.09145708  0.10418821  0.63080304  1
  N  N44  1  0.88525358  0.20571838  0.32886159  1
  N  N45  1  0.78697909  0.08980816  0.06981270  1
  N  N46  1  0.54217254  0.21218514  0.88068882  1
  N  N47  1  0.43867847  0.09703170  0.63711817  1
  N  N48  1  0.22578827  0.53866074  0.38336396  1
  N  N49  1  0.11520713  0.42569240  0.13329061  1
  N  N50  1  0.88196881  0.54229468  0.82887858  1
  N  N51  1  0.79477154  0.39639978  0.59288515  1
  N  N52  1  0.55364508  0.54144751  0.39436137  1
  N  N53  1  0.44976174  0.42608977  0.13644203  1
  N  N54  1  0.21769341  0.54352824  0.88758785  1
  N  N55  1  0.11543102  0.42557727  0.62868137  1
  N  N56  1  0.88130522  0.54262726  0.33565945  1
  N  N57  1  0.78252631  0.42361539  0.07230999  1
  N  N58  1  0.53381878  0.56961889  0.87536766  1
  N  N59  1  0.43867940  0.43087427  0.63711725  1
  N  N60  1  0.22603782  0.87025829  0.39010774  1
  N  N61  1  0.11832488  0.76045128  0.13107105  1
  N  N62  1  0.87667345  0.87832419  0.81276956  1
  N  N63  1  0.79476783  0.77542157  0.59288017  1
  N  N64  1  0.55364488  0.87145136  0.39436361  1
  N  N65  1  0.44710839  0.75973595  0.13999601  1
  N  N66  1  0.24134061  0.86260979  0.87510009  1
  N  N67  1  0.09145816  0.77094029  0.63080300  1
  N  N68  1  0.88525501  0.87558393  0.32885919  1
  N  N69  1  0.78252391  0.76045503  0.07230661  1
  N  N70  1  0.53381838  0.86311090  0.87537100  1
  N  N71  1  0.44146420  0.76255948  0.65628994  1
