# generated using pymatgen
data_Al11BN12
_symmetry_space_group_name_H-M   'P 1'
_cell_length_a   9.26900993
_cell_length_b   9.28126470
_cell_length_c   10.11754142
_cell_angle_alpha   90.00126615
_cell_angle_beta   90.65539547
_cell_angle_gamma   59.96041013
_symmetry_Int_Tables_number   1
_chemical_formula_structural   Al11BN12
_chemical_formula_sum   'Al33 B3 N36'
_cell_volume   753.41609523
_cell_formula_units_Z   3
loop_
 _symmetry_equiv_pos_site_id
 _symmetry_equiv_pos_as_xyz
  1  'x, y, z'
loop_
 _atom_site_type_symbol
 _atom_site_label
 _atom_site_symmetry_multiplicity
 _atom_site_fract_x
 _atom_site_fract_y
 _atom_site_fract_z
 _atom_site_occupancy
  Al  Al0  1  0.12015726  0.08685812  0.32095182  1
  Al  Al1  1  0.22516613  0.19889516  0.07775165  1
  Al  Al2  1  0.77825311  0.09415841  0.87954878  1
  Al  Al3  1  0.45358399  0.08928886  0.32675142  1
  Al  Al4  1  0.55207823  0.20724943  0.07060617  1
  Al  Al5  1  0.11521967  0.09059279  0.81868248  1
  Al  Al6  1  0.21589797  0.20259739  0.57078143  1
  Al  Al7  1  0.79545424  0.08555910  0.40537130  1
  Al  Al8  1  0.88181404  0.20813248  0.13993665  1
  Al  Al9  1  0.43721279  0.09294789  0.82219508  1
  Al  Al10  1  0.55590202  0.20533865  0.58285829  1
  Al  Al11  1  0.11003908  0.42826456  0.37336294  1
  Al  Al12  1  0.22516687  0.54251423  0.07775188  1
  Al  Al13  1  0.77458570  0.43062881  0.88067550  1
  Al  Al14  1  0.89262220  0.53697485  0.64299649  1
  Al  Al15  1  0.45358198  0.42369892  0.32675168  1
  Al  Al16  1  0.54845238  0.54655210  0.06848737  1
  Al  Al17  1  0.10390975  0.43132777  0.88818437  1
  Al  Al18  1  0.21589979  0.54808084  0.57078196  1
  Al  Al19  1  0.78820668  0.41656781  0.40170997  1
  Al  Al20  1  0.88314835  0.54171360  0.14184039  1
  Al  Al21  1  0.43721120  0.43641114  0.82219479  1
  Al  Al22  1  0.55320809  0.53855283  0.58587180  1
  Al  Al23  1  0.12015598  0.75955176  0.32095244  1
  Al  Al24  1  0.22684111  0.86986527  0.06635444  1
  Al  Al25  1  0.77458827  0.76135339  0.88067665  1
  Al  Al26  1  0.44996283  0.75830318  0.32813796  1
  Al  Al27  1  0.54845289  0.87157069  0.06848748  1
  Al  Al28  1  0.11522106  0.76075342  0.81868233  1
  Al  Al29  1  0.21044724  0.87806313  0.57785548  1
  Al  Al30  1  0.78820784  0.76179529  0.40170999  1
  Al  Al31  1  0.88181348  0.87662957  0.13993723  1
  Al  Al32  1  0.55320725  0.87481504  0.58587127  1
  B  B33  1  0.88850619  0.20096269  0.65331795  1
  B  B34  1  0.88850732  0.87709410  0.65331860  1
  B  B35  1  0.44098936  0.76279354  0.81964927  1
  N  N36  1  0.22853274  0.19709994  0.37981409  1
  N  N37  1  0.11766544  0.08694270  0.13091996  1
  N  N38  1  0.87661525  0.21148861  0.81263293  1
  N  N39  1  0.80459791  0.08098617  0.59862407  1
  N  N40  1  0.55846672  0.20405791  0.39214255  1
  N  N41  1  0.45120037  0.08979222  0.13624064  1
  N  N42  1  0.21945960  0.20142318  0.88634736  1
  N  N43  1  0.09120654  0.10389971  0.63066459  1
  N  N44  1  0.88506344  0.20592325  0.32878179  1
  N  N45  1  0.78692118  0.08982158  0.06978264  1
  N  N46  1  0.54215850  0.21221205  0.88045515  1
  N  N47  1  0.43866131  0.09720124  0.63689614  1
  N  N48  1  0.22853135  0.54094648  0.37981384  1
  N  N49  1  0.10922275  0.42867105  0.09890669  1
  N  N50  1  0.88585019  0.54036309  0.82776780  1
  N  N51  1  0.79457703  0.39660304  0.59352750  1
  N  N52  1  0.55394215  0.54153281  0.39434399  1
  N  N53  1  0.45119969  0.42557692  0.13624125  1
  N  N54  1  0.21945805  0.54569328  0.88634659  1
  N  N55  1  0.10672149  0.42992093  0.58444375  1
  N  N56  1  0.88145689  0.54255956  0.33259468  1
  N  N57  1  0.78272294  0.42383434  0.07181492  1
  N  N58  1  0.53417290  0.56959575  0.87478851  1
  N  N59  1  0.43866079  0.43070609  0.63689659  1
  N  N60  1  0.22589106  0.87034415  0.39001461  1
  N  N61  1  0.11766491  0.76195785  0.13092065  1
  N  N62  1  0.87661501  0.87847340  0.81263375  1
  N  N63  1  0.79457796  0.77538503  0.59352885  1
  N  N64  1  0.55394150  0.87110734  0.39434316  1
  N  N65  1  0.44697722  0.75979574  0.13973114  1
  N  N66  1  0.24138973  0.86259377  0.87468941  1
  N  N67  1  0.09120618  0.77146202  0.63066451  1
  N  N68  1  0.88506181  0.87559213  0.32878259  1
  N  N69  1  0.78272366  0.76000574  0.07181568  1
  N  N70  1  0.53417278  0.86281212  0.87478713  1
  N  N71  1  0.44113552  0.76271684  0.65600761  1
