# generated using pymatgen
data_Al11BN12
_symmetry_space_group_name_H-M   'P 1'
_cell_length_a   9.33369744
_cell_length_b   9.34336782
_cell_length_c   9.95982634
_cell_angle_alpha   90.04869748
_cell_angle_beta   90.49632468
_cell_angle_gamma   59.96505784
_symmetry_Int_Tables_number   1
_chemical_formula_structural   Al11BN12
_chemical_formula_sum   'Al33 B3 N36'
_cell_volume   751.91149479
_cell_formula_units_Z   3
loop_
 _symmetry_equiv_pos_site_id
 _symmetry_equiv_pos_as_xyz
  1  'x, y, z'
loop_
 _atom_site_type_symbol
 _atom_site_label
 _atom_site_symmetry_multiplicity
 _atom_site_fract_x
 _atom_site_fract_y
 _atom_site_fract_z
 _atom_site_occupancy
  Al  Al0  1  0.10622391  0.09885914  0.40187375  1
  Al  Al1  1  0.22026378  0.20409149  0.11364499  1
  Al  Al2  1  0.78076473  0.09287434  0.87689775  1
  Al  Al3  1  0.44917731  0.09106393  0.32710267  1
  Al  Al4  1  0.55400163  0.20688820  0.07158527  1
  Al  Al5  1  0.10851943  0.09571187  0.87054039  1
  Al  Al6  1  0.21287472  0.20965979  0.63429935  1
  Al  Al7  1  0.78987385  0.08919042  0.39800089  1
  Al  Al8  1  0.89048416  0.20314072  0.13758137  1
  Al  Al9  1  0.44738365  0.08777626  0.82263936  1
  Al  Al10  1  0.55966659  0.20326297  0.57986385  1
  Al  Al11  1  0.11033063  0.42472923  0.39178156  1
  Al  Al12  1  0.22570578  0.53913169  0.07043620  1
  Al  Al13  1  0.77500217  0.43004352  0.87978639  1
  Al  Al14  1  0.88729855  0.54009403  0.64065280  1
  Al  Al15  1  0.44553452  0.42864365  0.32653687  1
  Al  Al16  1  0.54862301  0.54624223  0.07045565  1
  Al  Al17  1  0.10414177  0.42810848  0.88428897  1
  Al  Al18  1  0.22052055  0.54045148  0.58707494  1
  Al  Al19  1  0.78545119  0.41906898  0.39455857  1
  Al  Al20  1  0.88536361  0.54066266  0.14002571  1
  Al  Al21  1  0.44352803  0.43299031  0.82099960  1
  Al  Al22  1  0.55634423  0.53652567  0.58207272  1
  Al  Al23  1  0.10380798  0.76787871  0.39838674  1
  Al  Al24  1  0.23119565  0.86776081  0.06213289  1
  Al  Al25  1  0.77576961  0.76059157  0.88036169  1
  Al  Al26  1  0.44230986  0.76231024  0.32895977  1
  Al  Al27  1  0.54927625  0.87109830  0.07001065  1
  Al  Al28  1  0.10870156  0.76288761  0.86583384  1
  Al  Al29  1  0.21835242  0.87418409  0.60416867  1
  Al  Al30  1  0.78610987  0.76160255  0.39463932  1
  Al  Al31  1  0.89055543  0.87317161  0.13737351  1
  Al  Al32  1  0.55604319  0.87405986  0.58143062  1
  B  B33  1  0.89163572  0.19978925  0.64907480  1
  B  B34  1  0.89256798  0.87309995  0.64950543  1
  B  B35  1  0.44597887  0.76013246  0.81570842  1
  N  N36  1  0.22131633  0.20268662  0.35069379  1
  N  N37  1  0.10668799  0.09628297  0.06784171  1
  N  N38  1  0.88310955  0.20813084  0.80957519  1
  N  N39  1  0.80312622  0.08227388  0.59525361  1
  N  N40  1  0.55658381  0.20569706  0.38566302  1
  N  N41  1  0.45058627  0.09031131  0.13092017  1
  N  N42  1  0.21831368  0.20869708  0.83727627  1
  N  N43  1  0.08202379  0.10971669  0.60055737  1
  N  N44  1  0.89126209  0.20265067  0.32769290  1
  N  N45  1  0.78627153  0.09052476  0.07246447  1
  N  N46  1  0.54769560  0.20984624  0.87865412  1
  N  N47  1  0.44712671  0.09333362  0.63256832  1
  N  N48  1  0.22563188  0.54040768  0.38464005  1
  N  N49  1  0.10636845  0.42849024  0.08088334  1
  N  N50  1  0.88400950  0.54114645  0.82757796  1
  N  N51  1  0.79379147  0.39833307  0.59039406  1
  N  N52  1  0.55319180  0.54190876  0.38814448  1
  N  N53  1  0.44603449  0.42816478  0.13308392  1
  N  N54  1  0.22419984  0.53531736  0.86942490  1
  N  N55  1  0.10507702  0.42852131  0.58666660  1
  N  N56  1  0.88613768  0.54031829  0.33304352  1
  N  N57  1  0.78129747  0.42391603  0.07530043  1
  N  N58  1  0.53668191  0.56777195  0.87439768  1
  N  N59  1  0.44571559  0.42671577  0.63401473  1
  N  N60  1  0.22938225  0.86965598  0.40025107  1
  N  N61  1  0.10545894  0.76734345  0.07130655  1
  N  N62  1  0.88251028  0.87487407  0.80961218  1
  N  N63  1  0.79452856  0.77420165  0.59011645  1
  N  N64  1  0.55397844  0.87104072  0.38797888  1
  N  N65  1  0.44241547  0.76238012  0.13824809  1
  N  N66  1  0.24821160  0.85925533  0.85755976  1
  N  N67  1  0.08281358  0.77438374  0.60368924  1
  N  N68  1  0.88979185  0.87389999  0.32752319  1
  N  N69  1  0.78203129  0.76075131  0.07532983  1
  N  N70  1  0.53709091  0.86138337  0.87475835  1
  N  N71  1  0.45204102  0.75738912  0.65405769  1
