# generated using pymatgen
data_Al11BN12
_symmetry_space_group_name_H-M   'P 1'
_cell_length_a   9.33025051
_cell_length_b   9.33775472
_cell_length_c   9.96768070
_cell_angle_alpha   90.05330281
_cell_angle_beta   90.48973012
_cell_angle_gamma   59.96829539
_symmetry_Int_Tables_number   1
_chemical_formula_structural   Al11BN12
_chemical_formula_sum   'Al33 B3 N36'
_cell_volume   751.80042802
_cell_formula_units_Z   3
loop_
 _symmetry_equiv_pos_site_id
 _symmetry_equiv_pos_as_xyz
  1  'x, y, z'
loop_
 _atom_site_type_symbol
 _atom_site_label
 _atom_site_symmetry_multiplicity
 _atom_site_fract_x
 _atom_site_fract_y
 _atom_site_fract_z
 _atom_site_occupancy
  Al  Al0  1  0.10634011  0.09929720  0.40167613  1
  Al  Al1  1  0.21848634  0.20479133  0.12589927  1
  Al  Al2  1  0.78092302  0.09285297  0.87678869  1
  Al  Al3  1  0.45096653  0.09024513  0.32679738  1
  Al  Al4  1  0.55379800  0.20680376  0.07130828  1
  Al  Al5  1  0.10885168  0.09631741  0.87221005  1
  Al  Al6  1  0.21167961  0.21035165  0.63885125  1
  Al  Al7  1  0.79003234  0.08921804  0.39812508  1
  Al  Al8  1  0.89045370  0.20310998  0.13738801  1
  Al  Al9  1  0.44734270  0.08776241  0.82274012  1
  Al  Al10  1  0.55955061  0.20325186  0.57996274  1
  Al  Al11  1  0.11038571  0.42448959  0.39123055  1
  Al  Al12  1  0.22567144  0.53892981  0.07041095  1
  Al  Al13  1  0.77510468  0.42999603  0.87967063  1
  Al  Al14  1  0.88770686  0.53980648  0.64055349  1
  Al  Al15  1  0.44558184  0.42872379  0.32635300  1
  Al  Al16  1  0.54857849  0.54626825  0.07032646  1
  Al  Al17  1  0.10462216  0.42676968  0.88587987  1
  Al  Al18  1  0.22048876  0.54010679  0.58672273  1
  Al  Al19  1  0.78536220  0.41914033  0.39456286  1
  Al  Al20  1  0.88530590  0.54079325  0.13982915  1
  Al  Al21  1  0.44332242  0.43308337  0.82092779  1
  Al  Al22  1  0.55624383  0.53657613  0.58207132  1
  Al  Al23  1  0.10386057  0.76795754  0.39831985  1
  Al  Al24  1  0.23118325  0.86805712  0.06218847  1
  Al  Al25  1  0.77600508  0.76037702  0.88031524  1
  Al  Al26  1  0.44236683  0.76222572  0.32880535  1
  Al  Al27  1  0.54907167  0.87145092  0.06977579  1
  Al  Al28  1  0.10874669  0.76279551  0.86591737  1
  Al  Al29  1  0.21832146  0.87443575  0.60397496  1
  Al  Al30  1  0.78624264  0.76147996  0.39473876  1
  Al  Al31  1  0.89053176  0.87319086  0.13730042  1
  Al  Al32  1  0.55594065  0.87409318  0.58154344  1
  B  B33  1  0.89178303  0.19988465  0.64880833  1
  B  B34  1  0.89263129  0.87308587  0.64947361  1
  B  B35  1  0.44587819  0.76021838  0.81572685  1
  N  N36  1  0.21973414  0.20344515  0.34147635  1
  N  N37  1  0.10727991  0.09699966  0.06824733  1
  N  N38  1  0.88369311  0.20784103  0.80939304  1
  N  N39  1  0.80320767  0.08224852  0.59519851  1
  N  N40  1  0.55655624  0.20586879  0.38593361  1
  N  N41  1  0.45117135  0.09006809  0.13099151  1
  N  N42  1  0.21746587  0.20911270  0.83393264  1
  N  N43  1  0.08218770  0.11022154  0.59921443  1
  N  N44  1  0.89126868  0.20271897  0.32754504  1
  N  N45  1  0.78631733  0.09054114  0.07221828  1
  N  N46  1  0.54772262  0.20982681  0.87848710  1
  N  N47  1  0.44655123  0.09358242  0.63204739  1
  N  N48  1  0.22568130  0.54030140  0.38449166  1
  N  N49  1  0.10670620  0.42765650  0.08113748  1
  N  N50  1  0.88463312  0.54075946  0.82742925  1
  N  N51  1  0.79370607  0.39836607  0.59033897  1
  N  N52  1  0.55314630  0.54194212  0.38823000  1
  N  N53  1  0.44606476  0.42813493  0.13310782  1
  N  N54  1  0.22399650  0.53501451  0.86954631  1
  N  N55  1  0.10544353  0.42726035  0.58494395  1
  N  N56  1  0.88607638  0.54032327  0.33284930  1
  N  N57  1  0.78124264  0.42396150  0.07512737  1
  N  N58  1  0.53665229  0.56777336  0.87436924  1
  N  N59  1  0.44555518  0.42677701  0.63403927  1
  N  N60  1  0.22945866  0.86992871  0.40014187  1
  N  N61  1  0.10551813  0.76736950  0.07128963  1
  N  N62  1  0.88256898  0.87481721  0.80945725  1
  N  N63  1  0.79464782  0.77404392  0.59005118  1
  N  N64  1  0.55392910  0.87099257  0.38823181  1
  N  N65  1  0.44246906  0.76242306  0.13826905  1
  N  N66  1  0.24808135  0.85953306  0.85769190  1
  N  N67  1  0.08291390  0.77425237  0.60353696  1
  N  N68  1  0.88975699  0.87393824  0.32744675  1
  N  N69  1  0.78206131  0.76073443  0.07510978  1
  N  N70  1  0.53712839  0.86136417  0.87464622  1
  N  N71  1  0.45192122  0.75742012  0.65410737  1
