# generated using pymatgen
data_Al11BN12
_symmetry_space_group_name_H-M   'P 1'
_cell_length_a   9.31615791
_cell_length_b   9.30081766
_cell_length_c   10.00061138
_cell_angle_alpha   89.99865103
_cell_angle_beta   90.20465548
_cell_angle_gamma   60.05430481
_symmetry_Int_Tables_number   1
_chemical_formula_structural   Al11BN12
_chemical_formula_sum   'Al33 B3 N36'
_cell_volume   750.84247190
_cell_formula_units_Z   3
loop_
 _symmetry_equiv_pos_site_id
 _symmetry_equiv_pos_as_xyz
  1  'x, y, z'
loop_
 _atom_site_type_symbol
 _atom_site_label
 _atom_site_symmetry_multiplicity
 _atom_site_fract_x
 _atom_site_fract_y
 _atom_site_fract_z
 _atom_site_occupancy
  Al  Al0  1  0.10546914  0.09945451  0.39851175  1
  Al  Al1  1  0.21536535  0.20614502  0.13959302  1
  Al  Al2  1  0.78352438  0.09152084  0.87499115  1
  Al  Al3  1  0.45343491  0.08820302  0.32624226  1
  Al  Al4  1  0.55479781  0.20588438  0.07544121  1
  Al  Al5  1  0.11053522  0.09723483  0.87739779  1
  Al  Al6  1  0.20844610  0.21357545  0.64071599  1
  Al  Al7  1  0.78869175  0.08893701  0.39917989  1
  Al  Al8  1  0.88881954  0.20412848  0.13710810  1
  Al  Al9  1  0.44530572  0.08751531  0.82168496  1
  Al  Al10  1  0.56185887  0.20235371  0.59275637  1
  Al  Al11  1  0.11261001  0.42697866  0.38789267  1
  Al  Al12  1  0.21536501  0.54505598  0.13959272  1
  Al  Al13  1  0.77798207  0.42915033  0.87741309  1
  Al  Al14  1  0.88983900  0.53836376  0.63927253  1
  Al  Al15  1  0.45343476  0.42492918  0.32624221  1
  Al  Al16  1  0.54846758  0.54631418  0.06655153  1
  Al  Al17  1  0.10935164  0.42860749  0.89410646  1
  Al  Al18  1  0.20844486  0.54454576  0.64071646  1
  Al  Al19  1  0.78618109  0.41921864  0.39486609  1
  Al  Al20  1  0.88327172  0.54164721  0.13837328  1
  Al  Al21  1  0.44530540  0.43374471  0.82168501  1
  Al  Al22  1  0.55448614  0.53805323  0.58119017  1
  Al  Al23  1  0.10546981  0.76164478  0.39851128  1
  Al  Al24  1  0.23172057  0.86742317  0.06445702  1
  Al  Al25  1  0.77798217  0.75943392  0.87741217  1
  Al  Al26  1  0.44318073  0.76169373  0.32705896  1
  Al  Al27  1  0.54846815  0.87178449  0.06655162  1
  Al  Al28  1  0.11053526  0.75879776  0.87739811  1
  Al  Al29  1  0.21738142  0.87459252  0.59769667  1
  Al  Al30  1  0.78618111  0.76116699  0.39486640  1
  Al  Al31  1  0.88881926  0.87361843  0.13710793  1
  Al  Al32  1  0.55448639  0.87402723  0.58119071  1
  B  B33  1  0.89433578  0.19978934  0.64799819  1
  B  B34  1  0.89433522  0.87244518  0.64799802  1
  B  B35  1  0.44417374  0.76119568  0.81527416  1
  N  N36  1  0.21760816  0.20456755  0.33286270  1
  N  N37  1  0.10768217  0.09776616  0.07158525  1
  N  N38  1  0.88788312  0.20621455  0.80838701  1
  N  N39  1  0.80426107  0.08115272  0.59563438  1
  N  N40  1  0.55846958  0.20404766  0.38131659  1
  N  N41  1  0.44997545  0.08937626  0.12970026  1
  N  N42  1  0.21489712  0.21271232  0.83121773  1
  N  N43  1  0.08217774  0.11171851  0.59440724  1
  N  N44  1  0.88985796  0.20310474  0.32671094  1
  N  N45  1  0.78692156  0.08982393  0.06964491  1
  N  N46  1  0.55131186  0.20762585  0.86946403  1
  N  N47  1  0.44314691  0.09393725  0.63036601  1
  N  N48  1  0.21760789  0.54439345  0.33286231  1
  N  N49  1  0.10914371  0.42871220  0.08328470  1
  N  N50  1  0.89009651  0.53823508  0.82646904  1
  N  N51  1  0.79368059  0.39908899  0.59023657  1
  N  N52  1  0.55389868  0.54261112  0.38869222  1
  N  N53  1  0.44997501  0.42721367  0.12970004  1
  N  N54  1  0.21489684  0.53895920  0.83121817  1
  N  N55  1  0.10834881  0.42911005  0.57594439  1
  N  N56  1  0.88602129  0.54027331  0.33120177  1
  N  N57  1  0.78158309  0.42391462  0.07231239  1
  N  N58  1  0.53797531  0.56791601  0.87246161  1
  N  N59  1  0.44314620  0.42948222  0.63036602  1
  N  N60  1  0.22912386  0.86872234  0.39677105  1
  N  N61  1  0.10768122  0.76112004  0.07158465  1
  N  N62  1  0.88788299  0.87246942  0.80838694  1
  N  N63  1  0.79367987  0.77379831  0.59023658  1
  N  N64  1  0.55389893  0.87005485  0.38869281  1
  N  N65  1  0.44354189  0.76151159  0.13749896  1
  N  N66  1  0.24833106  0.85911828  0.86241721  1
  N  N67  1  0.08217664  0.77267237  0.59440679  1
  N  N68  1  0.88985817  0.87360527  0.32671059  1
  N  N69  1  0.78158341  0.76107094  0.07231175  1
  N  N70  1  0.53797596  0.86067217  0.87246180  1
  N  N71  1  0.44808932  0.75923826  0.65371082  1
