# generated using pymatgen
data_Al11BN12
_symmetry_space_group_name_H-M   'P 1'
_cell_length_a   9.26708738
_cell_length_b   9.33062380
_cell_length_c   9.98973604
_cell_angle_alpha   90.24049040
_cell_angle_beta   89.74420132
_cell_angle_gamma   60.04574790
_symmetry_Int_Tables_number   1
_chemical_formula_structural   Al11BN12
_chemical_formula_sum   'Al33 B3 N36'
_cell_volume   748.38026455
_cell_formula_units_Z   3
loop_
 _symmetry_equiv_pos_site_id
 _symmetry_equiv_pos_as_xyz
  1  'x, y, z'
loop_
 _atom_site_type_symbol
 _atom_site_label
 _atom_site_symmetry_multiplicity
 _atom_site_fract_x
 _atom_site_fract_y
 _atom_site_fract_z
 _atom_site_occupancy
  Al  Al0  1  0.10277253  0.10182619  0.39921641  1
  Al  Al1  1  0.22159949  0.20259299  0.14029638  1
  Al  Al2  1  0.77986277  0.09163571  0.87416832  1
  Al  Al3  1  0.44608339  0.09521113  0.39255905  1
  Al  Al4  1  0.55956058  0.20380296  0.13866094  1
  Al  Al5  1  0.10889397  0.09880031  0.87368007  1
  Al  Al6  1  0.21775109  0.20841253  0.64139122  1
  Al  Al7  1  0.78153226  0.09937048  0.39946854  1
  Al  Al8  1  0.89208985  0.20196851  0.13543934  1
  Al  Al9  1  0.44328606  0.09021891  0.89135228  1
  Al  Al10  1  0.56175976  0.20902811  0.64027073  1
  Al  Al11  1  0.11120335  0.42691062  0.38907649  1
  Al  Al12  1  0.22166169  0.54197280  0.14038236  1
  Al  Al13  1  0.77206087  0.43181992  0.88555624  1
  Al  Al14  1  0.89242400  0.53297641  0.64311763  1
  Al  Al15  1  0.44449402  0.42784692  0.39186733  1
  Al  Al16  1  0.56034554  0.53241589  0.14201254  1
  Al  Al17  1  0.11123499  0.42607591  0.89448962  1
  Al  Al18  1  0.21892823  0.53596007  0.64302303  1
  Al  Al19  1  0.78042774  0.42336169  0.39623164  1
  Al  Al20  1  0.88776440  0.53901288  0.14205783  1
  Al  Al21  1  0.44447091  0.43205996  0.89113095  1
  Al  Al22  1  0.55843689  0.53303049  0.64185403  1
  Al  Al23  1  0.10188301  0.76093278  0.39896505  1
  Al  Al24  1  0.23764829  0.86589566  0.05902710  1
  Al  Al25  1  0.77095847  0.75746817  0.89010299  1
  Al  Al26  1  0.43605063  0.76483515  0.33086716  1
  Al  Al27  1  0.56048361  0.87482304  0.14389051  1
  Al  Al28  1  0.11320885  0.75468088  0.87854991  1
  Al  Al29  1  0.20776562  0.87963215  0.59708581  1
  Al  Al30  1  0.78206059  0.76435171  0.39653254  1
  Al  Al31  1  0.89199449  0.87442485  0.13925173  1
  Al  Al32  1  0.55954908  0.87864330  0.64478839  1
  B  B33  1  0.88353310  0.20774529  0.64412652  1
  B  B34  1  0.90732216  0.82812844  0.65837012  1
  B  B35  1  0.43963751  0.76335551  0.80523780  1
  N  N36  1  0.22220873  0.20221396  0.33236450  1
  N  N37  1  0.11028112  0.09703640  0.06864181  1
  N  N38  1  0.88416356  0.20934097  0.80966730  1
  N  N39  1  0.78473050  0.12461369  0.58696593  1
  N  N40  1  0.55825922  0.20516877  0.33135355  1
  N  N41  1  0.44587093  0.09330844  0.08200659  1
  N  N42  1  0.22350515  0.20777755  0.82950496  1
  N  N43  1  0.07935031  0.11662748  0.59500731  1
  N  N44  1  0.89102269  0.20589803  0.32475128  1
  N  N45  1  0.78176423  0.09117576  0.06924385  1
  N  N46  1  0.55329751  0.20605369  0.83071296  1
  N  N47  1  0.44537639  0.09694448  0.58264077  1
  N  N48  1  0.22022298  0.54250698  0.33197866  1
  N  N49  1  0.11232068  0.42649891  0.08471532  1
  N  N50  1  0.89038239  0.53696744  0.83204466  1
  N  N51  1  0.78622577  0.41366207  0.58854944  1
  N  N52  1  0.56046346  0.53272726  0.33688710  1
  N  N53  1  0.44561731  0.42687075  0.08147923  1
  N  N54  1  0.22353397  0.53328631  0.83088663  1
  N  N55  1  0.11152684  0.42616142  0.57874264  1
  N  N56  1  0.88643042  0.54164077  0.33480291  1
  N  N57  1  0.77987209  0.42533511  0.07691175  1
  N  N58  1  0.54393246  0.55957967  0.83377092  1
  N  N59  1  0.43820506  0.43345884  0.58149857  1
  N  N60  1  0.22330885  0.87008819  0.40032765  1
  N  N61  1  0.11056316  0.75970253  0.07177331  1
  N  N62  1  0.88817800  0.86366086  0.81016766  1
  N  N63  1  0.79339258  0.76905620  0.59279109  1
  N  N64  1  0.56130171  0.87336163  0.34009742  1
  N  N65  1  0.44064724  0.76349331  0.13692487  1
  N  N66  1  0.24917866  0.85794949  0.85925104  1
  N  N67  1  0.07963831  0.76554940  0.59722583  1
  N  N68  1  0.88767859  0.87780329  0.33040640  1
  N  N69  1  0.78079796  0.76086442  0.08000367  1
  N  N70  1  0.54495935  0.86272985  0.83543444  1
  N  N71  1  0.43612884  0.76714548  0.64190190  1
