# generated using pymatgen
data_Al11BN12
_symmetry_space_group_name_H-M   'P 1'
_cell_length_a   9.26708737
_cell_length_b   9.33061942
_cell_length_c   9.98973582
_cell_angle_alpha   90.24042994
_cell_angle_beta   89.74408377
_cell_angle_gamma   60.04579539
_symmetry_Int_Tables_number   1
_chemical_formula_structural   Al11BN12
_chemical_formula_sum   'Al33 B3 N36'
_cell_volume   748.38024626
_cell_formula_units_Z   3
loop_
 _symmetry_equiv_pos_site_id
 _symmetry_equiv_pos_as_xyz
  1  'x, y, z'
loop_
 _atom_site_type_symbol
 _atom_site_label
 _atom_site_symmetry_multiplicity
 _atom_site_fract_x
 _atom_site_fract_y
 _atom_site_fract_z
 _atom_site_occupancy
  Al  Al0  1  0.10280444  0.10180963  0.39478823  1
  Al  Al1  1  0.22163068  0.20257566  0.13586151  1
  Al  Al2  1  0.77989211  0.09162204  0.86973504  1
  Al  Al3  1  0.44611374  0.09519581  0.38812800  1
  Al  Al4  1  0.55958974  0.20378804  0.13422386  1
  Al  Al5  1  0.10892156  0.09878773  0.86924305  1
  Al  Al6  1  0.21778070  0.20839927  0.63695604  1
  Al  Al7  1  0.78156281  0.09935388  0.39503262  1
  Al  Al8  1  0.89212201  0.20195173  0.13101392  1
  Al  Al9  1  0.44331545  0.09020448  0.88691646  1
  Al  Al10  1  0.56179142  0.20901192  0.63583324  1
  Al  Al11  1  0.11123429  0.42689589  0.38463852  1
  Al  Al12  1  0.22169277  0.54195899  0.13594661  1
  Al  Al13  1  0.77208997  0.43180493  0.88113299  1
  Al  Al14  1  0.89245535  0.53295897  0.63868877  1
  Al  Al15  1  0.44452304  0.42783241  0.38743593  1
  Al  Al16  1  0.56037442  0.53240058  0.13758659  1
  Al  Al17  1  0.11126443  0.42606031  0.89006337  1
  Al  Al18  1  0.21895754  0.53594335  0.63859345  1
  Al  Al19  1  0.78045769  0.42334719  0.39179990  1
  Al  Al20  1  0.88779316  0.53899942  0.13762990  1
  Al  Al21  1  0.44450140  0.43204465  0.88669593  1
  Al  Al22  1  0.55846928  0.53301338  0.63742394  1
  Al  Al23  1  0.10191328  0.76091803  0.39453533  1
  Al  Al24  1  0.23768136  0.86587976  0.05458919  1
  Al  Al25  1  0.77098793  0.75745307  0.88566723  1
  Al  Al26  1  0.43607810  0.76482224  0.32643468  1
  Al  Al27  1  0.56051353  0.87480803  0.13945955  1
  Al  Al28  1  0.11323778  0.75466601  0.87411463  1
  Al  Al29  1  0.20779650  0.87961615  0.59265791  1
  Al  Al30  1  0.78209123  0.76433710  0.39209678  1
  Al  Al31  1  0.89202545  0.87440859  0.13481354  1
  Al  Al32  1  0.55958037  0.87862671  0.64035585  1
  B  B33  1  0.88356135  0.20773311  0.63969303  1
  B  B34  1  0.90735193  0.82811288  0.65393632  1
  B  B35  1  0.43966865  0.76334020  0.80080400  1
  N  N36  1  0.22223980  0.20219705  0.32793038  1
  N  N37  1  0.11031089  0.09702071  0.06420664  1
  N  N38  1  0.88419075  0.20932848  0.80523519  1
  N  N39  1  0.78476141  0.12459772  0.58252961  1
  N  N40  1  0.55828875  0.20515430  0.32691802  1
  N  N41  1  0.44590121  0.09329232  0.07757081  1
  N  N42  1  0.22353424  0.20776439  0.82507055  1
  N  N43  1  0.07938172  0.11661170  0.59057728  1
  N  N44  1  0.89105498  0.20588247  0.32032202  1
  N  N45  1  0.78179497  0.09116177  0.06481085  1
  N  N46  1  0.55332767  0.20603864  0.82627688  1
  N  N47  1  0.44540691  0.09692831  0.57820821  1
  N  N48  1  0.22025384  0.54249363  0.32754332  1
  N  N49  1  0.11235029  0.42648378  0.08028673  1
  N  N50  1  0.89041263  0.53695048  0.82761583  1
  N  N51  1  0.78625685  0.41364549  0.58411671  1
  N  N52  1  0.56049214  0.53271414  0.33245792  1
  N  N53  1  0.44564837  0.42685604  0.07704453  1
  N  N54  1  0.22356328  0.53327049  0.82645619  1
  N  N55  1  0.11155670  0.42614703  0.57430609  1
  N  N56  1  0.88645981  0.54162638  0.33037152  1
  N  N57  1  0.77990188  0.42531939  0.07248657  1
  N  N58  1  0.54396283  0.55956601  0.82934013  1
  N  N59  1  0.43823455  0.43344426  0.57706710  1
  N  N60  1  0.22333951  0.87007290  0.39589908  1
  N  N61  1  0.11059428  0.75968786  0.06733622  1
  N  N62  1  0.88820691  0.86364654  0.80573473  1
  N  N63  1  0.79342332  0.76904007  0.58835752  1
  N  N64  1  0.56133123  0.87334689  0.33566418  1
  N  N65  1  0.44067423  0.76347921  0.13249182  1
  N  N66  1  0.24920783  0.85793545  0.85481290  1
  N  N67  1  0.07966929  0.76553290  0.59279531  1
  N  N68  1  0.88771105  0.87778674  0.32596945  1
  N  N69  1  0.78082704  0.76084908  0.07556869  1
  N  N70  1  0.54498809  0.86271446  0.83100076  1
  N  N71  1  0.43616197  0.76712788  0.63746885  1
