# generated using pymatgen
data_Al11BN12
_symmetry_space_group_name_H-M   'P 1'
_cell_length_a   9.26804894
_cell_length_b   9.32219788
_cell_length_c   9.96223722
_cell_angle_alpha   90.24526285
_cell_angle_beta   89.66119211
_cell_angle_gamma   60.06539293
_symmetry_Int_Tables_number   1
_chemical_formula_structural   Al11BN12
_chemical_formula_sum   'Al33 B3 N36'
_cell_volume   745.85985099
_cell_formula_units_Z   3
loop_
 _symmetry_equiv_pos_site_id
 _symmetry_equiv_pos_as_xyz
  1  'x, y, z'
loop_
 _atom_site_type_symbol
 _atom_site_label
 _atom_site_symmetry_multiplicity
 _atom_site_fract_x
 _atom_site_fract_y
 _atom_site_fract_z
 _atom_site_occupancy
  Al  Al0  1  0.10057388  0.10370039  0.40002803  1
  Al  Al1  1  0.22171191  0.20291633  0.14489019  1
  Al  Al2  1  0.78035109  0.09154924  0.87933553  1
  Al  Al3  1  0.44583765  0.09603190  0.39787451  1
  Al  Al4  1  0.55846015  0.20428908  0.14295292  1
  Al  Al5  1  0.11103019  0.09692364  0.88036623  1
  Al  Al6  1  0.21807358  0.20780972  0.64551882  1
  Al  Al7  1  0.78115884  0.09895470  0.40361849  1
  Al  Al8  1  0.88901940  0.20430319  0.13992377  1
  Al  Al9  1  0.44238705  0.09042188  0.89528251  1
  Al  Al10  1  0.56285502  0.20809699  0.64495364  1
  Al  Al11  1  0.11059761  0.42728901  0.39362177  1
  Al  Al12  1  0.22168753  0.54149743  0.14522308  1
  Al  Al13  1  0.77335139  0.43166936  0.88945678  1
  Al  Al14  1  0.89304578  0.53294825  0.64707109  1
  Al  Al15  1  0.44435450  0.42741683  0.39740213  1
  Al  Al16  1  0.55762639  0.53611550  0.15120991  1
  Al  Al17  1  0.11123116  0.42621146  0.89907881  1
  Al  Al18  1  0.21903701  0.53674011  0.64710100  1
  Al  Al19  1  0.78010729  0.42281006  0.40182095  1
  Al  Al20  1  0.88572696  0.54003953  0.14626208  1
  Al  Al21  1  0.44340103  0.43262177  0.89550980  1
  Al  Al22  1  0.55583318  0.54123306  0.64076649  1
  Al  Al23  1  0.09948531  0.76162023  0.39962874  1
  Al  Al24  1  0.23345568  0.86763970  0.07956979  1
  Al  Al25  1  0.77199073  0.75685485  0.89342018  1
  Al  Al26  1  0.44355290  0.76163955  0.37067927  1
  Al  Al27  1  0.55773428  0.87377253  0.15252366  1
  Al  Al28  1  0.11480749  0.75472430  0.88495543  1
  Al  Al29  1  0.21271620  0.87733740  0.59098888  1
  Al  Al30  1  0.78146662  0.76516645  0.40183376  1
  Al  Al31  1  0.88871206  0.87504161  0.14343348  1
  Al  Al32  1  0.55680517  0.87306898  0.64295536  1
  B  B33  1  0.88521523  0.20621102  0.64851808  1
  B  B34  1  0.90773139  0.83173089  0.66167405  1
  B  B35  1  0.44413334  0.76046063  0.85022036  1
  N  N36  1  0.22213548  0.20323652  0.33687863  1
  N  N37  1  0.10849317  0.09800639  0.07460828  1
  N  N38  1  0.88600018  0.20800245  0.81476443  1
  N  N39  1  0.78727238  0.12030665  0.59236613  1
  N  N40  1  0.55758204  0.20564181  0.33626307  1
  N  N41  1  0.44583893  0.09232803  0.08561140  1
  N  N42  1  0.22329783  0.20752252  0.83439930  1
  N  N43  1  0.08203827  0.11442183  0.59816167  1
  N  N44  1  0.88834523  0.20774637  0.32900699  1
  N  N45  1  0.78075705  0.09176401  0.07393850  1
  N  N46  1  0.55388315  0.20583118  0.83570834  1
  N  N47  1  0.44604681  0.09624274  0.58916544  1
  N  N48  1  0.22030423  0.54164658  0.33679436  1
  N  N49  1  0.11117744  0.42705796  0.08941092  1
  N  N50  1  0.89100412  0.53675645  0.83626668  1
  N  N51  1  0.78757231  0.41077972  0.59536501  1
  N  N52  1  0.56166476  0.52982038  0.34244978  1
  N  N53  1  0.44551665  0.42791322  0.08554243  1
  N  N54  1  0.22334833  0.53388744  0.83572516  1
  N  N55  1  0.11217940  0.42594894  0.58361671  1
  N  N56  1  0.88549188  0.54199099  0.34000528  1
  N  N57  1  0.77714704  0.42688805  0.08058713  1
  N  N58  1  0.53987251  0.56905233  0.83756484  1
  N  N59  1  0.43962294  0.43304577  0.58836879  1
  N  N60  1  0.21251240  0.87569131  0.39054888  1
  N  N61  1  0.10853219  0.76018594  0.07758289  1
  N  N62  1  0.88959171  0.86408212  0.81518047  1
  N  N63  1  0.79406757  0.76970828  0.59867215  1
  N  N64  1  0.56262067  0.87579098  0.34447604  1
  N  N65  1  0.44214149  0.76257300  0.14078680  1
  N  N66  1  0.25549875  0.85469546  0.86553422  1
  N  N67  1  0.08191030  0.76576937  0.60028465  1
  N  N68  1  0.88513704  0.87816439  0.33408934  1
  N  N69  1  0.77803279  0.76193035  0.08321095  1
  N  N70  1  0.54057831  0.85701511  0.83808022  1
  N  N71  1  0.45040664  0.76026864  0.58290065  1
