# generated using pymatgen
data_Al11BN12
_symmetry_space_group_name_H-M   'P 1'
_cell_length_a   9.31068386
_cell_length_b   9.31245234
_cell_length_c   10.02293140
_cell_angle_alpha   90.05645271
_cell_angle_beta   90.40820070
_cell_angle_gamma   60.01221119
_symmetry_Int_Tables_number   1
_chemical_formula_structural   Al11BN12
_chemical_formula_sum   'Al33 B3 N36'
_cell_volume   752.68197724
_cell_formula_units_Z   3
loop_
 _symmetry_equiv_pos_site_id
 _symmetry_equiv_pos_as_xyz
  1  'x, y, z'
loop_
 _atom_site_type_symbol
 _atom_site_label
 _atom_site_symmetry_multiplicity
 _atom_site_fract_x
 _atom_site_fract_y
 _atom_site_fract_z
 _atom_site_occupancy
  Al  Al0  1  0.10587397  0.10053644  0.39975928  1
  Al  Al1  1  0.21682742  0.20543853  0.14109367  1
  Al  Al2  1  0.78187628  0.09255096  0.87552502  1
  Al  Al3  1  0.45507499  0.08842297  0.32636891  1
  Al  Al4  1  0.55385968  0.20602041  0.06945132  1
  Al  Al5  1  0.10971270  0.09724840  0.87827011  1
  Al  Al6  1  0.20864796  0.21142213  0.64253479  1
  Al  Al7  1  0.79067981  0.08901544  0.39905494  1
  Al  Al8  1  0.88948778  0.20370480  0.13715268  1
  Al  Al9  1  0.44671246  0.08794981  0.82155073  1
  Al  Al10  1  0.55849297  0.20357401  0.57994804  1
  Al  Al11  1  0.11070542  0.42488321  0.38931416  1
  Al  Al12  1  0.22561734  0.53823373  0.07587349  1
  Al  Al13  1  0.77571765  0.42956023  0.87853126  1
  Al  Al14  1  0.88861871  0.53885091  0.64067895  1
  Al  Al15  1  0.44674632  0.42825721  0.32574985  1
  Al  Al16  1  0.54901222  0.54622489  0.06861885  1
  Al  Al17  1  0.10555031  0.42446827  0.89083674  1
  Al  Al18  1  0.21811164  0.54040439  0.59136648  1
  Al  Al19  1  0.78490203  0.41975216  0.39524387  1
  Al  Al20  1  0.88439537  0.54138332  0.13948105  1
  Al  Al21  1  0.44251444  0.43338744  0.82086690  1
  Al  Al22  1  0.55474710  0.53743833  0.58205728  1
  Al  Al23  1  0.10441573  0.76664397  0.39736985  1
  Al  Al24  1  0.23202706  0.86835421  0.06433538  1
  Al  Al25  1  0.77722853  0.75964983  0.87930681  1
  Al  Al26  1  0.44322447  0.76184898  0.32807445  1
  Al  Al27  1  0.54900483  0.87245205  0.06821986  1
  Al  Al28  1  0.10907425  0.76279275  0.87001394  1
  Al  Al29  1  0.21747272  0.87568020  0.59971460  1
  Al  Al30  1  0.78663096  0.76093790  0.39572717  1
  Al  Al31  1  0.88989025  0.87353344  0.13737668  1
  Al  Al32  1  0.55502659  0.87425063  0.58197529  1
  B  B33  1  0.89271914  0.19970262  0.64787156  1
  B  B34  1  0.89309752  0.87360933  0.64892158  1
  B  B35  1  0.44414438  0.76137913  0.81633338  1
  N  N36  1  0.21887872  0.20404735  0.33351828  1
  N  N37  1  0.10863555  0.09813634  0.07184006  1
  N  N38  1  0.88638370  0.20663166  0.80857996  1
  N  N39  1  0.80316147  0.08197410  0.59524022  1
  N  N40  1  0.55697082  0.20614875  0.38730912  1
  N  N41  1  0.45235688  0.08967417  0.13238285  1
  N  N42  1  0.21587130  0.20974690  0.83121392  1
  N  N43  1  0.08139837  0.11160072  0.59486763  1
  N  N44  1  0.89020905  0.20370217  0.32665734  1
  N  N45  1  0.78705667  0.09014045  0.07023250  1
  N  N46  1  0.54791036  0.20938490  0.87774759  1
  N  N47  1  0.44440716  0.09444027  0.63149311  1
  N  N48  1  0.22559155  0.53996389  0.37959768  1
  N  N49  1  0.10768818  0.42566825  0.08338747  1
  N  N50  1  0.88700626  0.53922516  0.82687398  1
  N  N51  1  0.79276783  0.39886697  0.59030307  1
  N  N52  1  0.55271380  0.54238311  0.38917897  1
  N  N53  1  0.44803832  0.42698927  0.13290767  1
  N  N54  1  0.22225564  0.53487221  0.86771950  1
  N  N55  1  0.10520786  0.42531070  0.58035239  1
  N  N56  1  0.88554269  0.54045883  0.33163605  1
  N  N57  1  0.78168298  0.42383143  0.07323061  1
  N  N58  1  0.53659177  0.56776954  0.87395387  1
  N  N59  1  0.44433509  0.42715693  0.63448164  1
  N  N60  1  0.22935111  0.87059175  0.39816169  1
  N  N61  1  0.10595740  0.76690918  0.07221643  1
  N  N62  1  0.88426188  0.87414923  0.80845290  1
  N  N63  1  0.79450528  0.77349436  0.59013797  1
  N  N64  1  0.55391115  0.87077780  0.38968145  1
  N  N65  1  0.44416415  0.76182753  0.13852702  1
  N  N66  1  0.24831632  0.86020354  0.86163876  1
  N  N67  1  0.08230507  0.77483442  0.60051504  1
  N  N68  1  0.88932928  0.87411573  0.32688958  1
  N  N69  1  0.78261312  0.76055782  0.07323344  1
  N  N70  1  0.53741595  0.86162902  0.87402675  1
  N  N71  1  0.44924236  0.75872265  0.65473103  1
