# generated using pymatgen
data_Al11BN12
_symmetry_space_group_name_H-M   'P 1'
_cell_length_a   9.25919231
_cell_length_b   9.25703050
_cell_length_c   9.89671580
_cell_angle_alpha   90.00015165
_cell_angle_beta   90.07530470
_cell_angle_gamma   60.00757411
_symmetry_Int_Tables_number   1
_chemical_formula_structural   Al11BN12
_chemical_formula_sum   'Al33 B3 N36'
_cell_volume   734.68161442
_cell_formula_units_Z   3
loop_
 _symmetry_equiv_pos_site_id
 _symmetry_equiv_pos_as_xyz
  1  'x, y, z'
loop_
 _atom_site_type_symbol
 _atom_site_label
 _atom_site_symmetry_multiplicity
 _atom_site_fract_x
 _atom_site_fract_y
 _atom_site_fract_z
 _atom_site_occupancy
  Al  Al0  1  0.11059239  0.09318167  0.30826352  1
  Al  Al1  1  0.22134351  0.20455918  0.05287330  1
  Al  Al2  1  0.78280417  0.09193115  0.79358870  1
  Al  Al3  1  0.44521960  0.09307564  0.30256196  1
  Al  Al4  1  0.55950938  0.20357845  0.05340857  1
  Al  Al5  1  0.10952350  0.09407280  0.79859619  1
  Al  Al6  1  0.21642274  0.20754880  0.55174394  1
  Al  Al7  1  0.78062453  0.09302105  0.31705080  1
  Al  Al8  1  0.88825093  0.20417121  0.05503226  1
  Al  Al9  1  0.44259868  0.09092051  0.80272269  1
  Al  Al10  1  0.56080783  0.20292908  0.55323809  1
  Al  Al11  1  0.11079894  0.42793345  0.30176203  1
  Al  Al12  1  0.22134372  0.54076299  0.05287335  1
  Al  Al13  1  0.77666806  0.42677209  0.79862402  1
  Al  Al14  1  0.89029947  0.53818309  0.55307700  1
  Al  Al15  1  0.44521964  0.42837102  0.30256204  1
  Al  Al16  1  0.55471124  0.54321450  0.04862672  1
  Al  Al17  1  0.11018696  0.42823966  0.80289368  1
  Al  Al18  1  0.21642248  0.54269494  0.55174381  1
  Al  Al19  1  0.77793843  0.42564396  0.30994616  1
  Al  Al20  1  0.88683594  0.53991485  0.05332217  1
  Al  Al21  1  0.44259866  0.43314762  0.80272254  1
  Al  Al22  1  0.55781292  0.53543760  0.55830050  1
  Al  Al23  1  0.11059248  0.76289207  0.30826354  1
  Al  Al24  1  0.22594861  0.87035843  0.04837079  1
  Al  Al25  1  0.77666782  0.76322599  0.79862411  1
  Al  Al26  1  0.44494156  0.76086259  0.30447885  1
  Al  Al27  1  0.55471143  0.86874026  0.04862675  1
  Al  Al28  1  0.10952330  0.76307020  0.79859615  1
  Al  Al29  1  0.21414782  0.87625942  0.55850524  1
  Al  Al30  1  0.77793866  0.76308375  0.30994626  1
  Al  Al31  1  0.88825089  0.87424432  0.05503229  1
  Al  Al32  1  0.55781321  0.87341549  0.55830059  1
  B  B33  1  0.89503244  0.19849902  0.54712959  1
  B  B34  1  0.89503247  0.87313583  0.54712960  1
  B  B35  1  0.44579008  0.76043813  0.79746337  1
  N  N36  1  0.22241126  0.20566889  0.36085773  1
  N  N37  1  0.11084156  0.09239840  0.11446399  1
  N  N38  1  0.88779431  0.20456811  0.86450854  1
  N  N39  1  0.79988354  0.08339125  0.59840936  1
  N  N40  1  0.55432437  0.20617077  0.36257531  1
  N  N41  1  0.44595181  0.09226529  0.10911533  1
  N  N42  1  0.22010009  0.20503633  0.86102141  1
  N  N43  1  0.08562587  0.10745641  0.60518767  1
  N  N44  1  0.89127746  0.20464229  0.38368335  1
  N  N45  1  0.77989114  0.09338800  0.12266639  1
  N  N46  1  0.55903016  0.20381826  0.85901580  1
  N  N47  1  0.44129900  0.09674782  0.61229072  1
  N  N48  1  0.22241118  0.53858572  0.36085762  1
  N  N49  1  0.11059129  0.42803759  0.11039560  1
  N  N50  1  0.88615927  0.54025329  0.85951261  1
  N  N51  1  0.78981974  0.40157690  0.60568878  1
  N  N52  1  0.55458584  0.54018896  0.36665724  1
  N  N53  1  0.44595182  0.42844966  0.10911549  1
  N  N54  1  0.22010014  0.54152971  0.86102139  1
  N  N55  1  0.11052360  0.42807161  0.61248068  1
  N  N56  1  0.88926259  0.53870165  0.36278709  1
  N  N57  1  0.77684216  0.42676001  0.11517856  1
  N  N58  1  0.54498184  0.56302504  0.85294715  1
  N  N59  1  0.44129893  0.42861993  0.61229056  1
  N  N60  1  0.22505711  0.87080446  0.36772598  1
  N  N61  1  0.11084157  0.76342640  0.11446403  1
  N  N62  1  0.88779407  0.87430392  0.86450854  1
  N  N63  1  0.78981966  0.77526942  0.60568895  1
  N  N64  1  0.55458603  0.87189132  0.36665725  1
  N  N65  1  0.44424323  0.76121176  0.11447019  1
  N  N66  1  0.24482233  0.86092193  0.85071336  1
  N  N67  1  0.08562592  0.77358462  0.60518764  1
  N  N68  1  0.89127753  0.87074652  0.38368332  1
  N  N69  1  0.77684241  0.76306439  0.11517853  1
  N  N70  1  0.54498167  0.85865939  0.85294719  1
  N  N71  1  0.44469936  0.76098359  0.63183301  1
