# generated using pymatgen
data_Al11BN12
_symmetry_space_group_name_H-M   'P 1'
_cell_length_a   9.31149263
_cell_length_b   9.30864716
_cell_length_c   10.01424714
_cell_angle_alpha   90.04886251
_cell_angle_beta   90.40670009
_cell_angle_gamma   60.01405599
_symmetry_Int_Tables_number   1
_chemical_formula_structural   Al11BN12
_chemical_formula_sum   'Al33 B3 N36'
_cell_volume   751.80162720
_cell_formula_units_Z   3
loop_
 _symmetry_equiv_pos_site_id
 _symmetry_equiv_pos_as_xyz
  1  'x, y, z'
loop_
 _atom_site_type_symbol
 _atom_site_label
 _atom_site_symmetry_multiplicity
 _atom_site_fract_x
 _atom_site_fract_y
 _atom_site_fract_z
 _atom_site_occupancy
  Al  Al0  1  0.10592591  0.10027609  0.39946614  1
  Al  Al1  1  0.21691115  0.20513616  0.14102966  1
  Al  Al2  1  0.78198497  0.09247022  0.87521306  1
  Al  Al3  1  0.45484379  0.08849907  0.32644663  1
  Al  Al4  1  0.55416019  0.20555572  0.06909073  1
  Al  Al5  1  0.10968381  0.09746198  0.87799947  1
  Al  Al6  1  0.20856023  0.21164129  0.64211923  1
  Al  Al7  1  0.79118279  0.08843049  0.39900011  1
  Al  Al8  1  0.88941807  0.20368478  0.13720323  1
  Al  Al9  1  0.44643261  0.08802046  0.82142696  1
  Al  Al10  1  0.55819644  0.20382142  0.57947685  1
  Al  Al11  1  0.11227217  0.42615714  0.38959534  1
  Al  Al12  1  0.22244604  0.54015187  0.10087354  1
  Al  Al13  1  0.77614301  0.42953583  0.87838907  1
  Al  Al14  1  0.88836041  0.53869161  0.64026966  1
  Al  Al15  1  0.44825860  0.42737087  0.32614466  1
  Al  Al16  1  0.54938745  0.54624004  0.06826957  1
  Al  Al17  1  0.10668743  0.42594476  0.89077130  1
  Al  Al18  1  0.21324881  0.54225536  0.62061847  1
  Al  Al19  1  0.78526749  0.41968851  0.39508094  1
  Al  Al20  1  0.88419534  0.54138981  0.13954479  1
  Al  Al21  1  0.44455395  0.43261049  0.82134286  1
  Al  Al22  1  0.55456618  0.53754831  0.58154299  1
  Al  Al23  1  0.10597763  0.76312305  0.39880832  1
  Al  Al24  1  0.23241075  0.86811881  0.06380889  1
  Al  Al25  1  0.77727448  0.75965376  0.87893299  1
  Al  Al26  1  0.44294686  0.76191499  0.32816305  1
  Al  Al27  1  0.54904376  0.87238955  0.06822837  1
  Al  Al28  1  0.10918715  0.76200503  0.87155861  1
  Al  Al29  1  0.21757259  0.87561582  0.59903959  1
  Al  Al30  1  0.78679003  0.76088233  0.39547315  1
  Al  Al31  1  0.88968634  0.87358769  0.13752361  1
  Al  Al32  1  0.55497709  0.87426129  0.58187744  1
  B  B33  1  0.89270031  0.19977110  0.64782844  1
  B  B34  1  0.89256271  0.87437816  0.64863908  1
  B  B35  1  0.44404368  0.76151897  0.81623742  1
  N  N36  1  0.21862773  0.20427158  0.33354429  1
  N  N37  1  0.10855779  0.09794538  0.07189394  1
  N  N38  1  0.88631909  0.20671934  0.80855797  1
  N  N39  1  0.80312861  0.08179591  0.59529048  1
  N  N40  1  0.55742251  0.20561073  0.38704573  1
  N  N41  1  0.45225823  0.08972015  0.13223259  1
  N  N42  1  0.21563337  0.21030653  0.83122929  1
  N  N43  1  0.08132863  0.11175280  0.59486801  1
  N  N44  1  0.89016911  0.20362901  0.32661587  1
  N  N45  1  0.78745619  0.08975415  0.07001001  1
  N  N46  1  0.54790080  0.20920872  0.87765916  1
  N  N47  1  0.44423827  0.09455426  0.63131625  1
  N  N48  1  0.22257584  0.54128313  0.35896811  1
  N  N49  1  0.10839855  0.42598885  0.08178701  1
  N  N50  1  0.88722907  0.53909569  0.82676920  1
  N  N51  1  0.79291800  0.39885771  0.59022374  1
  N  N52  1  0.55308243  0.54234889  0.38891556  1
  N  N53  1  0.45066232  0.42565468  0.13140397  1
  N  N54  1  0.21805205  0.53690834  0.84649471  1
  N  N55  1  0.10605252  0.42642853  0.57930960  1
  N  N56  1  0.88589367  0.54015387  0.33165989  1
  N  N57  1  0.78207164  0.42375239  0.07313233  1
  N  N58  1  0.53673206  0.56789859  0.87403238  1
  N  N59  1  0.44545396  0.42676058  0.63320007  1
  N  N60  1  0.22921797  0.87013026  0.39823598  1
  N  N61  1  0.10655096  0.76504165  0.07001759  1
  N  N62  1  0.88443897  0.87428737  0.80838770  1
  N  N63  1  0.79430670  0.77359199  0.59017110  1
  N  N64  1  0.55395237  0.87068383  0.38952339  1
  N  N65  1  0.44404569  0.76172310  0.13845134  1
  N  N66  1  0.24821192  0.86020509  0.86182926  1
  N  N67  1  0.08198253  0.77491908  0.59888738  1
  N  N68  1  0.88996418  0.87379126  0.32691512  1
  N  N69  1  0.78267634  0.76049898  0.07318194  1
  N  N70  1  0.53740675  0.86165030  0.87398899  1
  N  N71  1  0.44909907  0.75877459  0.65470220  1
