# generated using pymatgen
data_Al11BN12
_symmetry_space_group_name_H-M   'P 1'
_cell_length_a   9.32351416
_cell_length_b   9.31071019
_cell_length_c   9.99336640
_cell_angle_alpha   90.00007214
_cell_angle_beta   90.19298226
_cell_angle_gamma   60.04552480
_symmetry_Int_Tables_number   1
_chemical_formula_structural   Al11BN12
_chemical_formula_sum   'Al33 B3 N36'
_cell_volume   751.62401966
_cell_formula_units_Z   3
loop_
 _symmetry_equiv_pos_site_id
 _symmetry_equiv_pos_as_xyz
  1  'x, y, z'
loop_
 _atom_site_type_symbol
 _atom_site_label
 _atom_site_symmetry_multiplicity
 _atom_site_fract_x
 _atom_site_fract_y
 _atom_site_fract_z
 _atom_site_occupancy
  Al  Al0  1  0.10501933  0.09936481  0.39848605  1
  Al  Al1  1  0.21468674  0.20634390  0.13896020  1
  Al  Al2  1  0.78246324  0.09205198  0.87662240  1
  Al  Al3  1  0.45150892  0.08688178  0.32721544  1
  Al  Al4  1  0.56118988  0.20268785  0.11179411  1
  Al  Al5  1  0.11045271  0.09715740  0.87703628  1
  Al  Al6  1  0.20845749  0.21360355  0.64010761  1
  Al  Al7  1  0.78552918  0.09051903  0.39934782  1
  Al  Al8  1  0.88923091  0.20435321  0.13725290  1
  Al  Al9  1  0.44444253  0.08632862  0.82256280  1
  Al  Al10  1  0.56720080  0.19968363  0.62628206  1
  Al  Al11  1  0.11243729  0.42706479  0.38785366  1
  Al  Al12  1  0.21468630  0.54553750  0.13896013  1
  Al  Al13  1  0.77822563  0.42891179  0.87716878  1
  Al  Al14  1  0.88981037  0.53837761  0.63926348  1
  Al  Al15  1  0.45150806  0.42817680  0.32721531  1
  Al  Al16  1  0.54843365  0.54676778  0.06587488  1
  Al  Al17  1  0.10942693  0.42857003  0.89403081  1
  Al  Al18  1  0.20845641  0.54450724  0.64010757  1
  Al  Al19  1  0.78644706  0.41892685  0.39472087  1
  Al  Al20  1  0.88304695  0.54175970  0.13835337  1
  Al  Al21  1  0.44444141  0.43579569  0.82256299  1
  Al  Al22  1  0.55441592  0.53819669  0.58080060  1
  Al  Al23  1  0.10501908  0.76218405  0.39848588  1
  Al  Al24  1  0.23176762  0.86740053  0.06433013  1
  Al  Al25  1  0.77822553  0.75942913  0.87716869  1
  Al  Al26  1  0.44324849  0.76165945  0.32682736  1
  Al  Al27  1  0.54843437  0.87136411  0.06587506  1
  Al  Al28  1  0.11045198  0.75895783  0.87703651  1
  Al  Al29  1  0.21739491  0.87458650  0.59777855  1
  Al  Al30  1  0.78644711  0.76119282  0.39472096  1
  Al  Al31  1  0.88923093  0.87298289  0.13725302  1
  Al  Al32  1  0.55441631  0.87395345  0.58080068  1
  B  B33  1  0.89455264  0.20047138  0.64794173  1
  B  B34  1  0.89455241  0.87154229  0.64794181  1
  B  B35  1  0.44449885  0.76103386  0.81483829  1
  N  N36  1  0.21691881  0.20474175  0.33275555  1
  N  N37  1  0.10720454  0.09765122  0.07135205  1
  N  N38  1  0.88811942  0.20585113  0.80856505  1
  N  N39  1  0.80318669  0.08169018  0.59409769  1
  N  N40  1  0.56305644  0.20175541  0.35256652  1
  N  N41  1  0.44748251  0.08819854  0.12695776  1
  N  N42  1  0.21487277  0.21273078  0.83113041  1
  N  N43  1  0.08190204  0.11178855  0.59447465  1
  N  N44  1  0.88999457  0.20290669  0.32684131  1
  N  N45  1  0.78513286  0.09071673  0.06942882  1
  N  N46  1  0.55682549  0.20487081  0.84452469  1
  N  N47  1  0.44172207  0.09359046  0.62751911  1
  N  N48  1  0.21691808  0.54490734  0.33275571  1
  N  N49  1  0.10866697  0.42894992  0.08328998  1
  N  N50  1  0.89021922  0.53817371  0.82657140  1
  N  N51  1  0.79369929  0.39912499  0.59038329  1
  N  N52  1  0.55437597  0.54296505  0.38844751  1
  N  N53  1  0.44748224  0.43088445  0.12695743  1
  N  N54  1  0.21487159  0.53896459  0.83113048  1
  N  N55  1  0.10799118  0.42928766  0.57597006  1
  N  N56  1  0.88600156  0.54028268  0.33124707  1
  N  N57  1  0.78146264  0.42389142  0.07229428  1
  N  N58  1  0.53838322  0.56824839  0.87196597  1
  N  N59  1  0.44172092  0.43125459  0.62751926  1
  N  N60  1  0.22923188  0.86866827  0.39672837  1
  N  N61  1  0.10720454  0.76171240  0.07135227  1
  N  N62  1  0.88811874  0.87259659  0.80856506  1
  N  N63  1  0.79369950  0.77374149  0.59038343  1
  N  N64  1  0.55437624  0.86922633  0.38844759  1
  N  N65  1  0.44351284  0.76152690  0.13721081  1
  N  N66  1  0.24848755  0.85903992  0.86225985  1
  N  N67  1  0.08190162  0.77287710  0.59447456  1
  N  N68  1  0.88999389  0.87366619  0.32684147  1
  N  N69  1  0.78146297  0.76121205  0.07229438  1
  N  N70  1  0.53838340  0.85993481  0.87196609  1
  N  N71  1  0.44810548  0.75923051  0.65343345  1
