# generated using pymatgen
data_Al11BN12
_symmetry_space_group_name_H-M   'P 1'
_cell_length_a   9.29668872
_cell_length_b   9.34747353
_cell_length_c   9.94808491
_cell_angle_alpha   90.38032751
_cell_angle_beta   90.07471970
_cell_angle_gamma   60.09019917
_symmetry_Int_Tables_number   1
_chemical_formula_structural   Al11BN12
_chemical_formula_sum   'Al33 B3 N36'
_cell_volume   749.33485564
_cell_formula_units_Z   3
loop_
 _symmetry_equiv_pos_site_id
 _symmetry_equiv_pos_as_xyz
  1  'x, y, z'
loop_
 _atom_site_type_symbol
 _atom_site_label
 _atom_site_symmetry_multiplicity
 _atom_site_fract_x
 _atom_site_fract_y
 _atom_site_fract_z
 _atom_site_occupancy
  Al  Al0  1  0.10364969  0.09998451  0.39599822  1
  Al  Al1  1  0.22239836  0.20212338  0.13668090  1
  Al  Al2  1  0.78059748  0.09198395  0.87148479  1
  Al  Al3  1  0.44470205  0.09726567  0.39027498  1
  Al  Al4  1  0.55890107  0.20261856  0.13500231  1
  Al  Al5  1  0.10927661  0.09781647  0.87172680  1
  Al  Al6  1  0.21605022  0.20985016  0.63834921  1
  Al  Al7  1  0.78152845  0.09927018  0.39664305  1
  Al  Al8  1  0.89030222  0.20342494  0.13280813  1
  Al  Al9  1  0.44063610  0.09640426  0.88010178  1
  Al  Al10  1  0.56247483  0.21072582  0.63747933  1
  Al  Al11  1  0.11228074  0.42572770  0.38483245  1
  Al  Al12  1  0.22120707  0.54142481  0.13787323  1
  Al  Al13  1  0.77328467  0.43084324  0.87993437  1
  Al  Al14  1  0.89436088  0.53206354  0.63877246  1
  Al  Al15  1  0.44482964  0.42845973  0.38881761  1
  Al  Al16  1  0.55878291  0.53436618  0.13271378  1
  Al  Al17  1  0.11115312  0.42610353  0.89212466  1
  Al  Al18  1  0.21902370  0.53582555  0.63957079  1
  Al  Al19  1  0.78034182  0.42329791  0.39294389  1
  Al  Al20  1  0.88693370  0.53983737  0.13762864  1
  Al  Al21  1  0.44387836  0.43245789  0.88689571  1
  Al  Al22  1  0.55803633  0.53633089  0.63766821  1
  Al  Al23  1  0.10333259  0.76096244  0.39578384  1
  Al  Al24  1  0.23121867  0.86821137  0.06126746  1
  Al  Al25  1  0.77772481  0.75488701  0.87864239  1
  Al  Al26  1  0.44085437  0.76566841  0.32833731  1
  Al  Al27  1  0.55035308  0.86672531  0.06680654  1
  Al  Al28  1  0.11443607  0.75430443  0.87694321  1
  Al  Al29  1  0.21010658  0.87910922  0.59677608  1
  Al  Al30  1  0.78757635  0.76002817  0.39252514  1
  Al  Al31  1  0.88840064  0.87474702  0.13619269  1
  Al  Al32  1  0.55713556  0.87423510  0.58798622  1
  B  B33  1  0.88418128  0.20683910  0.64168940  1
  B  B34  1  0.91082352  0.82632979  0.65612723  1
  B  B35  1  0.44225103  0.76499266  0.80892123  1
  N  N36  1  0.22306455  0.20055272  0.32915586  1
  N  N37  1  0.10831174  0.09825094  0.06754126  1
  N  N38  1  0.88536273  0.20831129  0.80701055  1
  N  N39  1  0.78431014  0.12617129  0.58408998  1
  N  N40  1  0.55804876  0.20414499  0.32853256  1
  N  N41  1  0.44340161  0.09683371  0.07552865  1
  N  N42  1  0.22039922  0.20923551  0.82645418  1
  N  N43  1  0.07972110  0.11586296  0.59228488  1
  N  N44  1  0.89100058  0.20556730  0.32243593  1
  N  N45  1  0.78090999  0.09158190  0.06685167  1
  N  N46  1  0.55490982  0.20744335  0.82754895  1
  N  N47  1  0.44149212  0.10526724  0.58471068  1
  N  N48  1  0.22041444  0.54201180  0.32972344  1
  N  N49  1  0.11155065  0.42651502  0.08253165  1
  N  N50  1  0.89242282  0.53474386  0.82741510  1
  N  N51  1  0.78641275  0.41449621  0.58633571  1
  N  N52  1  0.55999283  0.53393414  0.33589214  1
  N  N53  1  0.44407683  0.42706123  0.07821341  1
  N  N54  1  0.22255234  0.53339232  0.82842877  1
  N  N55  1  0.11168346  0.42628426  0.57473604  1
  N  N56  1  0.88772395  0.53991318  0.33051639  1
  N  N57  1  0.77938220  0.42603846  0.07244131  1
  N  N58  1  0.54391985  0.55954960  0.83392504  1
  N  N59  1  0.43790730  0.43556365  0.57970826  1
  N  N60  1  0.22597580  0.86832952  0.39730678  1
  N  N61  1  0.10835203  0.75981021  0.07139718  1
  N  N62  1  0.89069846  0.86465473  0.80740981  1
  N  N63  1  0.79928552  0.76638037  0.59271372  1
  N  N64  1  0.55820730  0.86545039  0.38962829  1
  N  N65  1  0.43940792  0.76691794  0.13601131  1
  N  N66  1  0.24799029  0.85787032  0.85973411  1
  N  N67  1  0.08187431  0.76559369  0.59483826  1
  N  N68  1  0.88737275  0.87742111  0.32778417  1
  N  N69  1  0.78220400  0.75950347  0.07363832  1
  N  N70  1  0.54040997  0.85741251  0.86594086  1
  N  N71  1  0.43883621  0.77189577  0.64799515  1
