# generated using pymatgen
data_Al11BN12
_symmetry_space_group_name_H-M   'P 1'
_cell_length_a   9.30732514
_cell_length_b   9.29862254
_cell_length_c   9.89610876
_cell_angle_alpha   90.22839568
_cell_angle_beta   90.24895322
_cell_angle_gamma   59.86321536
_symmetry_Int_Tables_number   1
_chemical_formula_structural   Al11BN12
_chemical_formula_sum   'Al33 B3 N36'
_cell_volume   740.68456872
_cell_formula_units_Z   3
loop_
 _symmetry_equiv_pos_site_id
 _symmetry_equiv_pos_as_xyz
  1  'x, y, z'
loop_
 _atom_site_type_symbol
 _atom_site_label
 _atom_site_symmetry_multiplicity
 _atom_site_fract_x
 _atom_site_fract_y
 _atom_site_fract_z
 _atom_site_occupancy
  Al  Al0  1  0.11188589  0.09225062  0.31715559  1
  Al  Al1  1  0.21941834  0.20611745  0.06319698  1
  Al  Al2  1  0.78261322  0.09222737  0.80335657  1
  Al  Al3  1  0.44833214  0.08986369  0.31063051  1
  Al  Al4  1  0.55908327  0.20303878  0.06291688  1
  Al  Al5  1  0.10871096  0.09503583  0.80855009  1
  Al  Al6  1  0.21807522  0.20559682  0.56009217  1
  Al  Al7  1  0.78105655  0.09339555  0.32288087  1
  Al  Al8  1  0.88778949  0.20496412  0.06500837  1
  Al  Al9  1  0.44028271  0.09318859  0.81351737  1
  Al  Al10  1  0.56092362  0.20196579  0.56264990  1
  Al  Al11  1  0.12055497  0.42303258  0.31759624  1
  Al  Al12  1  0.21992453  0.54108455  0.06236304  1
  Al  Al13  1  0.77261248  0.42384747  0.80835895  1
  Al  Al14  1  0.89037093  0.53396181  0.60871717  1
  Al  Al15  1  0.44656000  0.42768383  0.31099791  1
  Al  Al16  1  0.55460589  0.54337527  0.05894166  1
  Al  Al17  1  0.11366838  0.42667258  0.81064927  1
  Al  Al18  1  0.21798441  0.54385718  0.56047535  1
  Al  Al19  1  0.77624845  0.42194266  0.32710146  1
  Al  Al20  1  0.88259908  0.54656393  0.13131326  1
  Al  Al21  1  0.44173987  0.43306107  0.81299849  1
  Al  Al22  1  0.55624790  0.53402633  0.56792839  1
  Al  Al23  1  0.11309200  0.76298158  0.31533267  1
  Al  Al24  1  0.22548555  0.87067991  0.05810004  1
  Al  Al25  1  0.77258794  0.76648521  0.81382770  1
  Al  Al26  1  0.44656198  0.76056017  0.31394839  1
  Al  Al27  1  0.55353489  0.86863898  0.05658389  1
  Al  Al28  1  0.10949005  0.76359982  0.80820366  1
  Al  Al29  1  0.21409421  0.87691628  0.56730253  1
  Al  Al30  1  0.78117465  0.76361611  0.37347785  1
  Al  Al31  1  0.88693026  0.87360168  0.06242204  1
  Al  Al32  1  0.54957998  0.87608171  0.57378875  1
  B  B33  1  0.89411927  0.19881687  0.55592476  1
  B  B34  1  0.90015022  0.88313984  0.55656942  1
  B  B35  1  0.44293213  0.76142374  0.80707093  1
  N  N36  1  0.22633623  0.20124139  0.37013073  1
  N  N37  1  0.11029178  0.09304826  0.12361622  1
  N  N38  1  0.88735409  0.20423320  0.87455054  1
  N  N39  1  0.80184787  0.08174149  0.60800445  1
  N  N40  1  0.55564261  0.20491833  0.37138981  1
  N  N41  1  0.44466044  0.09280383  0.11759780  1
  N  N42  1  0.21843460  0.20635836  0.87132985  1
  N  N43  1  0.08620192  0.10783570  0.61476228  1
  N  N44  1  0.89322679  0.20153773  0.39296963  1
  N  N45  1  0.77998740  0.09359313  0.13004912  1
  N  N46  1  0.55879926  0.20370138  0.86822074  1
  N  N47  1  0.44054756  0.09837900  0.62353863  1
  N  N48  1  0.22519420  0.54010617  0.37038104  1
  N  N49  1  0.11372575  0.42714088  0.12316046  1
  N  N50  1  0.88427231  0.53939795  0.81888370  1
  N  N51  1  0.78732566  0.39384136  0.61191636  1
  N  N52  1  0.55315152  0.54068969  0.37721692  1
  N  N53  1  0.44534259  0.42866299  0.11783864  1
  N  N54  1  0.21924174  0.54199274  0.87032445  1
  N  N55  1  0.11936440  0.42425844  0.61640081  1
  N  N56  1  0.89165867  0.53694908  0.34987810  1
  N  N57  1  0.77359421  0.42455724  0.12879228  1
  N  N58  1  0.54347871  0.56285937  0.86336124  1
  N  N59  1  0.44176378  0.42754572  0.62236308  1
  N  N60  1  0.22667531  0.87039552  0.37650083  1
  N  N61  1  0.11010926  0.76423621  0.12244105  1
  N  N62  1  0.88814998  0.87522099  0.87037452  1
  N  N63  1  0.78557249  0.77751659  0.60242640  1
  N  N64  1  0.55140752  0.87295021  0.38116690  1
  N  N65  1  0.44365375  0.76170143  0.12404904  1
  N  N66  1  0.24377896  0.86160261  0.86056586  1
  N  N67  1  0.08664108  0.77522963  0.61511528  1
  N  N68  1  0.89802005  0.87594247  0.39521589  1
  N  N69  1  0.77254415  0.76841897  0.10892469  1
  N  N70  1  0.54012281  0.86093814  0.85967523  1
  N  N71  1  0.44262219  0.75927536  0.64220163  1
