# generated using pymatgen
data_Al11BN12
_symmetry_space_group_name_H-M   'P 1'
_cell_length_a   9.32370126
_cell_length_b   9.31143127
_cell_length_c   9.99667662
_cell_angle_alpha   90.00034907
_cell_angle_beta   90.19287790
_cell_angle_gamma   60.04348743
_symmetry_Int_Tables_number   1
_chemical_formula_structural   Al11BN12
_chemical_formula_sum   'Al33 B3 N36'
_cell_volume   751.93091244
_cell_formula_units_Z   3
loop_
 _symmetry_equiv_pos_site_id
 _symmetry_equiv_pos_as_xyz
  1  'x, y, z'
loop_
 _atom_site_type_symbol
 _atom_site_label
 _atom_site_symmetry_multiplicity
 _atom_site_fract_x
 _atom_site_fract_y
 _atom_site_fract_z
 _atom_site_occupancy
  Al  Al0  1  0.10487957  0.09937058  0.39854243  1
  Al  Al1  1  0.21483015  0.20631220  0.13868095  1
  Al  Al2  1  0.78189903  0.09233440  0.87758761  1
  Al  Al3  1  0.45072117  0.08622645  0.32736200  1
  Al  Al4  1  0.56327036  0.20164781  0.12327594  1
  Al  Al5  1  0.11039148  0.09714726  0.87693072  1
  Al  Al6  1  0.20853391  0.21359626  0.63996051  1
  Al  Al7  1  0.78531096  0.09062834  0.39918398  1
  Al  Al8  1  0.88933230  0.20434811  0.13711007  1
  Al  Al9  1  0.44436102  0.08621818  0.82278331  1
  Al  Al10  1  0.56812679  0.19922051  0.63203358  1
  Al  Al11  1  0.11221945  0.42717355  0.38789298  1
  Al  Al12  1  0.21482966  0.54542600  0.13868098  1
  Al  Al13  1  0.77828297  0.42884823  0.87717864  1
  Al  Al14  1  0.88981478  0.53837534  0.63933568  1
  Al  Al15  1  0.45072038  0.42961950  0.32736208  1
  Al  Al16  1  0.54837046  0.54663621  0.06574500  1
  Al  Al17  1  0.10947090  0.42854819  0.89403089  1
  Al  Al18  1  0.20853288  0.54443784  0.63996030  1
  Al  Al19  1  0.78655951  0.41890656  0.39475330  1
  Al  Al20  1  0.88299542  0.54178551  0.13828111  1
  Al  Al21  1  0.44435968  0.43598834  0.82278337  1
  Al  Al22  1  0.55439717  0.53817774  0.58086230  1
  Al  Al23  1  0.10487915  0.76231794  0.39854239  1
  Al  Al24  1  0.23184976  0.86735957  0.06423497  1
  Al  Al25  1  0.77828276  0.75943584  0.87717868  1
  Al  Al26  1  0.44326235  0.76165249  0.32667142  1
  Al  Al27  1  0.54837108  0.87155884  0.06574514  1
  Al  Al28  1  0.11039058  0.75902940  0.87693098  1
  Al  Al29  1  0.21735472  0.87460651  0.59782932  1
  Al  Al30  1  0.78655952  0.76110089  0.39475341  1
  Al  Al31  1  0.88933232  0.87288670  0.13711024  1
  Al  Al32  1  0.55439762  0.87399068  0.58086231  1
  B  B33  1  0.89441658  0.20075431  0.64786137  1
  B  B34  1  0.89441658  0.87139494  0.64786153  1
  B  B35  1  0.44454121  0.76101269  0.81474770  1
  N  N36  1  0.21667029  0.20489307  0.33279370  1
  N  N37  1  0.10717459  0.09763740  0.07122851  1
  N  N38  1  0.88800403  0.20572733  0.80855219  1
  N  N39  1  0.80247261  0.08204742  0.59330472  1
  N  N40  1  0.56453780  0.20101499  0.34424041  1
  N  N41  1  0.44717694  0.08803715  0.12662680  1
  N  N42  1  0.21490667  0.21271438  0.83100550  1
  N  N43  1  0.08176987  0.11184104  0.59445769  1
  N  N44  1  0.88996725  0.20295131  0.32678770  1
  N  N45  1  0.78429537  0.09113550  0.06978523  1
  N  N46  1  0.55794028  0.20431386  0.83970836  1
  N  N47  1  0.44157082  0.09378269  0.62665731  1
  N  N48  1  0.21666972  0.54500377  0.33279390  1
  N  N49  1  0.10855744  0.42900499  0.08324031  1
  N  N50  1  0.89025723  0.53815457  0.82656432  1
  N  N51  1  0.79372055  0.39915487  0.59038484  1
  N  N52  1  0.55451641  0.54305231  0.38856390  1
  N  N53  1  0.44717653  0.43135257  0.12662679  1
  N  N54  1  0.21490556  0.53894667  0.83100540  1
  N  N55  1  0.10786972  0.42934832  0.57593399  1
  N  N56  1  0.88594189  0.54031220  0.33119257  1
  N  N57  1  0.78147588  0.42389521  0.07223151  1
  N  N58  1  0.53846369  0.56825374  0.87180847  1
  N  N59  1  0.44156970  0.43121394  0.62665721  1
  N  N60  1  0.22926840  0.86864943  0.39674253  1
  N  N61  1  0.10717501  0.76175610  0.07122897  1
  N  N62  1  0.88800344  0.87283567  0.80855227  1
  N  N63  1  0.79372117  0.77369009  0.59038500  1
  N  N64  1  0.55451676  0.86899833  0.38856388  1
  N  N65  1  0.44360194  0.76148248  0.13712565  1
  N  N66  1  0.24852171  0.85902251  0.86219334  1
  N  N67  1  0.08176977  0.77295649  0.59445756  1
  N  N68  1  0.88996681  0.87364827  0.32678790  1
  N  N69  1  0.78147645  0.76119487  0.07223170  1
  N  N70  1  0.53846381  0.85984919  0.87180860  1
  N  N71  1  0.44808733  0.75923953  0.65340621  1
