# generated using pymatgen
data_Al11BN12
_symmetry_space_group_name_H-M   'P 1'
_cell_length_a   9.32048079
_cell_length_b   9.36244203
_cell_length_c   9.93106063
_cell_angle_alpha   90.10402062
_cell_angle_beta   90.09924594
_cell_angle_gamma   60.05192990
_symmetry_Int_Tables_number   1
_chemical_formula_structural   Al11BN12
_chemical_formula_sum   'Al33 B3 N36'
_cell_volume   750.89606664
_cell_formula_units_Z   3
loop_
 _symmetry_equiv_pos_site_id
 _symmetry_equiv_pos_as_xyz
  1  'x, y, z'
loop_
 _atom_site_type_symbol
 _atom_site_label
 _atom_site_symmetry_multiplicity
 _atom_site_fract_x
 _atom_site_fract_y
 _atom_site_fract_z
 _atom_site_occupancy
  Al  Al0  1  0.10374989  0.09883816  0.39748733  1
  Al  Al1  1  0.22086115  0.20337366  0.13736220  1
  Al  Al2  1  0.78203463  0.09097435  0.87315021  1
  Al  Al3  1  0.44699455  0.09315291  0.36727967  1
  Al  Al4  1  0.55996285  0.20467513  0.13495010  1
  Al  Al5  1  0.10957166  0.09731766  0.87354778  1
  Al  Al6  1  0.21214887  0.21090554  0.63677185  1
  Al  Al7  1  0.78273575  0.09920058  0.39797469  1
  Al  Al8  1  0.88925996  0.20473819  0.13326012  1
  Al  Al9  1  0.44424680  0.08945565  0.84276143  1
  Al  Al10  1  0.56528839  0.21017072  0.63714241  1
  Al  Al11  1  0.11137224  0.42730510  0.38550675  1
  Al  Al12  1  0.22205820  0.54111234  0.13811125  1
  Al  Al13  1  0.77726352  0.42818272  0.87475552  1
  Al  Al14  1  0.89447519  0.53242228  0.63969317  1
  Al  Al15  1  0.44203295  0.42805821  0.39036944  1
  Al  Al16  1  0.55152577  0.54964666  0.06945257  1
  Al  Al17  1  0.11086301  0.42583052  0.89387934  1
  Al  Al18  1  0.21742218  0.53577613  0.64101945  1
  Al  Al19  1  0.78573703  0.42113012  0.39316862  1
  Al  Al20  1  0.88540608  0.54068875  0.13738474  1
  Al  Al21  1  0.44071005  0.42941662  0.88382270  1
  Al  Al22  1  0.55607679  0.54112391  0.58590400  1
  Al  Al23  1  0.10346518  0.76181048  0.39644884  1
  Al  Al24  1  0.23000882  0.86925763  0.06390505  1
  Al  Al25  1  0.77794732  0.75483119  0.88008573  1
  Al  Al26  1  0.44290786  0.76147912  0.32784566  1
  Al  Al27  1  0.54775923  0.87363980  0.06684599  1
  Al  Al28  1  0.11402252  0.75479227  0.87782395  1
  Al  Al29  1  0.21203339  0.87683285  0.60001971  1
  Al  Al30  1  0.78732299  0.76082176  0.39304337  1
  Al  Al31  1  0.88792811  0.87480647  0.13657189  1
  Al  Al32  1  0.55647743  0.87208742  0.58704523  1
  B  B33  1  0.88492210  0.20715140  0.64277837  1
  B  B34  1  0.91033166  0.82668691  0.65624307  1
  B  B35  1  0.44456287  0.75885185  0.81276223  1
  N  N36  1  0.21910100  0.20324861  0.33259825  1
  N  N37  1  0.10814039  0.09814394  0.06941041  1
  N  N38  1  0.88681026  0.20622263  0.80795083  1
  N  N39  1  0.78602900  0.12506524  0.58482269  1
  N  N40  1  0.56011735  0.20699766  0.33138232  1
  N  N41  1  0.44499176  0.09465716  0.09879148  1
  N  N42  1  0.21685490  0.21108751  0.82726238  1
  N  N43  1  0.08086621  0.11320331  0.59310062  1
  N  N44  1  0.89091977  0.20601584  0.32300285  1
  N  N45  1  0.78170676  0.09182257  0.06787693  1
  N  N46  1  0.55786000  0.20696080  0.82870527  1
  N  N47  1  0.44367013  0.09881165  0.60529513  1
  N  N48  1  0.22003018  0.54292678  0.33012399  1
  N  N49  1  0.11054054  0.42778518  0.08395701  1
  N  N50  1  0.89264216  0.53578751  0.82781648  1
  N  N51  1  0.79266618  0.40875665  0.59077374  1
  N  N52  1  0.55617726  0.54424968  0.38468866  1
  N  N53  1  0.44346153  0.42717677  0.07877024  1
  N  N54  1  0.22020238  0.53422483  0.82947090  1
  N  N55  1  0.11062236  0.42725545  0.57505345  1
  N  N56  1  0.88695823  0.54138590  0.33055722  1
  N  N57  1  0.78212477  0.42474353  0.07181613  1
  N  N58  1  0.53887440  0.56861351  0.86738811  1
  N  N59  1  0.43469739  0.43178902  0.58441781  1
  N  N60  1  0.22699986  0.86798683  0.39763548  1
  N  N61  1  0.10812323  0.76021302  0.07238427  1
  N  N62  1  0.89021958  0.86457166  0.80779323  1
  N  N63  1  0.79917343  0.76600149  0.59250385  1
  N  N64  1  0.55695893  0.86657835  0.39055710  1
  N  N65  1  0.44194415  0.76415098  0.13694969  1
  N  N66  1  0.24691643  0.85866513  0.85999730  1
  N  N67  1  0.08169630  0.76542628  0.59551535  1
  N  N68  1  0.88708379  0.87803363  0.32842631  1
  N  N69  1  0.78112528  0.76055187  0.07399178  1
  N  N70  1  0.54032143  0.85785395  0.86699835  1
  N  N71  1  0.44433545  0.76167653  0.65224968  1
