# generated using pymatgen
data_Al11BN12
_symmetry_space_group_name_H-M   'P 1'
_cell_length_a   9.29117489
_cell_length_b   9.30170206
_cell_length_c   10.07910684
_cell_angle_alpha   90.02299204
_cell_angle_beta   90.66278568
_cell_angle_gamma   59.96814171
_symmetry_Int_Tables_number   1
_chemical_formula_structural   Al11BN12
_chemical_formula_sum   'Al33 B3 N36'
_cell_volume   754.06496119
_cell_formula_units_Z   3
loop_
 _symmetry_equiv_pos_site_id
 _symmetry_equiv_pos_as_xyz
  1  'x, y, z'
loop_
 _atom_site_type_symbol
 _atom_site_label
 _atom_site_symmetry_multiplicity
 _atom_site_fract_x
 _atom_site_fract_y
 _atom_site_fract_z
 _atom_site_occupancy
  Al  Al0  1  0.11318700  0.09034666  0.34806888  1
  Al  Al1  1  0.22486621  0.19906861  0.07428816  1
  Al  Al2  1  0.77887093  0.09444779  0.87972103  1
  Al  Al3  1  0.45064664  0.09034537  0.32651366  1
  Al  Al4  1  0.55188900  0.20729369  0.07082142  1
  Al  Al5  1  0.11436169  0.09084990  0.83159920  1
  Al  Al6  1  0.21820603  0.20346236  0.57914347  1
  Al  Al7  1  0.79259958  0.08536563  0.40384504  1
  Al  Al8  1  0.88615324  0.20530895  0.13816471  1
  Al  Al9  1  0.44047183  0.09213187  0.82184812  1
  Al  Al10  1  0.55723708  0.20531425  0.58265606  1
  Al  Al11  1  0.10716572  0.42987803  0.38626248  1
  Al  Al12  1  0.22522332  0.54267603  0.07701426  1
  Al  Al13  1  0.77572344  0.43022652  0.88102583  1
  Al  Al14  1  0.89206242  0.53773030  0.64315540  1
  Al  Al15  1  0.45139799  0.42431237  0.32637727  1
  Al  Al16  1  0.54908319  0.54591540  0.06892086  1
  Al  Al17  1  0.10288153  0.43373221  0.89178308  1
  Al  Al18  1  0.21739226  0.54943139  0.57216907  1
  Al  Al19  1  0.78580283  0.41845366  0.39959596  1
  Al  Al20  1  0.88484680  0.54037112  0.14149190  1
  Al  Al21  1  0.43808527  0.43637242  0.82245321  1
  Al  Al22  1  0.55464352  0.53774383  0.58549731  1
  Al  Al23  1  0.11907813  0.75932387  0.32142052  1
  Al  Al24  1  0.22731414  0.86780137  0.06509381  1
  Al  Al25  1  0.77451564  0.76119320  0.88089809  1
  Al  Al26  1  0.44826023  0.75923544  0.32773927  1
  Al  Al27  1  0.54783769  0.87149239  0.06877843  1
  Al  Al28  1  0.11491800  0.76020109  0.81889144  1
  Al  Al29  1  0.21289611  0.87545945  0.58338923  1
  Al  Al30  1  0.78714252  0.76207509  0.40009847  1
  Al  Al31  1  0.88154718  0.87660737  0.13917977  1
  Al  Al32  1  0.55441276  0.87425562  0.58521887  1
  B  B33  1  0.89161827  0.19978338  0.65251309  1
  B  B34  1  0.88824250  0.87728317  0.65295245  1
  B  B35  1  0.44254070  0.76125535  0.81885275  1
  N  N36  1  0.22776125  0.19865666  0.38349878  1
  N  N37  1  0.11236148  0.08916799  0.10907507  1
  N  N38  1  0.87855520  0.21070505  0.81206527  1
  N  N39  1  0.80465156  0.08022498  0.59776482  1
  N  N40  1  0.55698363  0.20449742  0.39090810  1
  N  N41  1  0.44917924  0.09069347  0.13538124  1
  N  N42  1  0.22229546  0.20476756  0.87942832  1
  N  N43  1  0.09004563  0.10427120  0.62660861  1
  N  N44  1  0.88416522  0.20565877  0.32881156  1
  N  N45  1  0.78558937  0.09016855  0.07090026  1
  N  N46  1  0.54392528  0.21239394  0.87975280  1
  N  N47  1  0.44228484  0.09593812  0.63641425  1
  N  N48  1  0.22726734  0.54104074  0.38024317  1
  N  N49  1  0.10709800  0.42986745  0.08974024  1
  N  N50  1  0.88620127  0.54053145  0.82778164  1
  N  N51  1  0.79527822  0.39704639  0.59229831  1
  N  N52  1  0.55277889  0.54186099  0.39297820  1
  N  N53  1  0.45013682  0.42589939  0.13558229  1
  N  N54  1  0.22052520  0.54599106  0.88483439  1
  N  N55  1  0.10594796  0.43216025  0.58320963  1
  N  N56  1  0.88280327  0.54166526  0.33282507  1
  N  N57  1  0.78227042  0.42370169  0.07331619  1
  N  N58  1  0.53625735  0.56832431  0.87420778  1
  N  N59  1  0.43973596  0.43052219  0.63631650  1
  N  N60  1  0.22620874  0.86766778  0.39306684  1
  N  N61  1  0.11725982  0.76144988  0.13081283  1
  N  N62  1  0.87655994  0.87864321  0.81304987  1
  N  N63  1  0.79480952  0.77504603  0.59285525  1
  N  N64  1  0.55317599  0.87137845  0.39306366  1
  N  N65  1  0.44598207  0.75979694  0.13928202  1
  N  N66  1  0.24485594  0.85851832  0.87182874  1
  N  N67  1  0.09070908  0.77136175  0.63089448  1
  N  N68  1  0.88459358  0.87546177  0.32851690  1
  N  N69  1  0.78197238  0.75979215  0.07278830  1
  N  N70  1  0.53482670  0.86254963  0.87448357  1
  N  N71  1  0.44370261  0.76133435  0.65543900  1
