# generated using pymatgen
data_Al11BN12
_symmetry_space_group_name_H-M   'P 1'
_cell_length_a   9.24544876
_cell_length_b   9.25397434
_cell_length_c   10.15476705
_cell_angle_alpha   89.99976195
_cell_angle_beta   90.58017558
_cell_angle_gamma   59.96918039
_symmetry_Int_Tables_number   1
_chemical_formula_structural   Al11BN12
_chemical_formula_sum   'Al33 B3 N36'
_cell_volume   752.12878029
_cell_formula_units_Z   3
loop_
 _symmetry_equiv_pos_site_id
 _symmetry_equiv_pos_as_xyz
  1  'x, y, z'
loop_
 _atom_site_type_symbol
 _atom_site_label
 _atom_site_symmetry_multiplicity
 _atom_site_fract_x
 _atom_site_fract_y
 _atom_site_fract_z
 _atom_site_occupancy
  Al  Al0  1  0.12061187  0.08828274  0.31980279  1
  Al  Al1  1  0.22100955  0.20611423  0.07147776  1
  Al  Al2  1  0.77862176  0.09400979  0.87793256  1
  Al  Al3  1  0.45199861  0.09059349  0.32542876  1
  Al  Al4  1  0.55175468  0.20745300  0.06903424  1
  Al  Al5  1  0.11544180  0.09087233  0.81703444  1
  Al  Al6  1  0.21411805  0.20766848  0.56957527  1
  Al  Al7  1  0.79578476  0.08545370  0.40329964  1
  Al  Al8  1  0.88266060  0.20748178  0.13844078  1
  Al  Al9  1  0.43842905  0.09171087  0.82073789  1
  Al  Al10  1  0.55669313  0.20498278  0.58109197  1
  Al  Al11  1  0.11813914  0.42428283  0.32141992  1
  Al  Al12  1  0.22100974  0.53955616  0.07147776  1
  Al  Al13  1  0.77599863  0.43060677  0.88025779  1
  Al  Al14  1  0.88394781  0.54135790  0.63987078  1
  Al  Al15  1  0.45200635  0.42408262  0.32543113  1
  Al  Al16  1  0.54712629  0.54639633  0.06691274  1
  Al  Al17  1  0.11599437  0.42532945  0.82040289  1
  Al  Al18  1  0.21411824  0.54488270  0.56957339  1
  Al  Al19  1  0.78879644  0.41659551  0.39907841  1
  Al  Al20  1  0.87892519  0.54387526  0.13943660  1
  Al  Al21  1  0.43842914  0.43649457  0.82074106  1
  Al  Al22  1  0.55273572  0.53852549  0.58304966  1
  Al  Al23  1  0.12060442  0.75780670  0.31979881  1
  Al  Al24  1  0.22679005  0.86994421  0.06541691  1
  Al  Al25  1  0.77599425  0.76003840  0.88024955  1
  Al  Al26  1  0.44992975  0.75836799  0.32588094  1
  Al  Al27  1  0.54712437  0.87313815  0.06691010  1
  Al  Al28  1  0.11543720  0.76033893  0.81703275  1
  Al  Al29  1  0.21102410  0.87781737  0.57594697  1
  Al  Al30  1  0.78878038  0.76130306  0.39907172  1
  Al  Al31  1  0.88265425  0.87653453  0.13843760  1
  Al  Al32  1  0.55272530  0.87539300  0.58304362  1
  B  B33  1  0.88955035  0.20001835  0.65106606  1
  B  B34  1  0.88954560  0.87708808  0.65106046  1
  B  B35  1  0.44165751  0.76248675  0.81886818  1
  N  N36  1  0.22476266  0.20379425  0.38271924  1
  N  N37  1  0.11902045  0.08834959  0.12932161  1
  N  N38  1  0.87634005  0.21187999  0.81001308  1
  N  N39  1  0.80583559  0.08041903  0.59612420  1
  N  N40  1  0.55840812  0.20413397  0.39082499  1
  N  N41  1  0.44858793  0.09172612  0.13460690  1
  N  N42  1  0.21721679  0.20671677  0.88422173  1
  N  N43  1  0.09217385  0.10396354  0.62918338  1
  N  N44  1  0.88513397  0.20577863  0.32619275  1
  N  N45  1  0.78754198  0.08956441  0.06744100  1
  N  N46  1  0.54235827  0.21213613  0.87934044  1
  N  N47  1  0.43925060  0.09692796  0.63564664  1
  N  N48  1  0.22476758  0.53814479  0.38271649  1
  N  N49  1  0.11527325  0.42570663  0.13260474  1
  N  N50  1  0.88215515  0.54224478  0.82555103  1
  N  N51  1  0.79536006  0.39603096  0.58945117  1
  N  N52  1  0.55299769  0.54158707  0.39241078  1
  N  N53  1  0.44858747  0.42635053  0.13460940  1
  N  N54  1  0.21721459  0.54272176  0.88422317  1
  N  N55  1  0.11645235  0.42510914  0.63043254  1
  N  N56  1  0.88131509  0.54268855  0.33310029  1
  N  N57  1  0.78266520  0.42342096  0.07013739  1
  N  N58  1  0.53396327  0.56966896  0.87416945  1
  N  N59  1  0.43925007  0.43047598  0.63564825  1
  N  N60  1  0.22553670  0.87057640  0.38817678  1
  N  N61  1  0.11901327  0.75931499  0.12931835  1
  N  N62  1  0.87633243  0.87842460  0.81000584  1
  N  N63  1  0.79535088  0.77527638  0.58944435  1
  N  N64  1  0.55298386  0.87209611  0.39240562  1
  N  N65  1  0.44734894  0.75965696  0.13840755  1
  N  N66  1  0.24113329  0.86275670  0.87379874  1
  N  N67  1  0.09216659  0.77052889  0.62918019  1
  N  N68  1  0.88512666  0.87577683  0.32618861  1
  N  N69  1  0.78266472  0.76058537  0.07012886  1
  N  N70  1  0.53396255  0.86300071  0.87416609  1
  N  N71  1  0.44213338  0.76225472  0.65475758  1
