# generated using pymatgen
data_Al11BN12
_symmetry_space_group_name_H-M   'P 1'
_cell_length_a   9.30972409
_cell_length_b   9.29843878
_cell_length_c   9.90343301
_cell_angle_alpha   90.23960179
_cell_angle_beta   90.26202513
_cell_angle_gamma   59.85329421
_symmetry_Int_Tables_number   1
_chemical_formula_structural   Al11BN12
_chemical_formula_sum   'Al33 B3 N36'
_cell_volume   741.33371710
_cell_formula_units_Z   3
loop_
 _symmetry_equiv_pos_site_id
 _symmetry_equiv_pos_as_xyz
  1  'x, y, z'
loop_
 _atom_site_type_symbol
 _atom_site_label
 _atom_site_symmetry_multiplicity
 _atom_site_fract_x
 _atom_site_fract_y
 _atom_site_fract_z
 _atom_site_occupancy
  Al  Al0  1  0.11189251  0.09232868  0.31705315  1
  Al  Al1  1  0.21929780  0.20623399  0.06323338  1
  Al  Al2  1  0.78265414  0.09225395  0.80304944  1
  Al  Al3  1  0.44859775  0.08959260  0.31070988  1
  Al  Al4  1  0.55907918  0.20291303  0.06291478  1
  Al  Al5  1  0.10868752  0.09500190  0.80851931  1
  Al  Al6  1  0.21791115  0.20579466  0.55991998  1
  Al  Al7  1  0.78103869  0.09345875  0.32273852  1
  Al  Al8  1  0.88770842  0.20503626  0.06499966  1
  Al  Al9  1  0.44010579  0.09337757  0.81331011  1
  Al  Al10  1  0.56091265  0.20197689  0.56246659  1
  Al  Al11  1  0.12060722  0.42313781  0.31712294  1
  Al  Al12  1  0.21987243  0.54101048  0.06230074  1
  Al  Al13  1  0.77233308  0.42354489  0.80858175  1
  Al  Al14  1  0.89022924  0.53405067  0.61202799  1
  Al  Al15  1  0.44659123  0.42769826  0.31090181  1
  Al  Al16  1  0.55468979  0.54329166  0.05898561  1
  Al  Al17  1  0.11418749  0.42637275  0.81083005  1
  Al  Al18  1  0.21802280  0.54378446  0.56032790  1
  Al  Al19  1  0.77621228  0.42220802  0.32674277  1
  Al  Al20  1  0.88210231  0.54744736  0.13250509  1
  Al  Al21  1  0.44177618  0.43302657  0.81296255  1
  Al  Al22  1  0.55626071  0.53398050  0.56780017  1
  Al  Al23  1  0.11320908  0.76294528  0.31516602  1
  Al  Al24  1  0.22535583  0.87063689  0.05810735  1
  Al  Al25  1  0.77250624  0.76552941  0.82081144  1
  Al  Al26  1  0.44684151  0.76061410  0.31397329  1
  Al  Al27  1  0.55237653  0.86902717  0.05612725  1
  Al  Al28  1  0.10968187  0.76362474  0.80785691  1
  Al  Al29  1  0.21414854  0.87699316  0.56704537  1
  Al  Al30  1  0.78221031  0.76254270  0.38294865  1
  Al  Al31  1  0.88725936  0.87377759  0.06176193  1
  Al  Al32  1  0.54883135  0.87621314  0.57468583  1
  B  B33  1  0.89418390  0.19911287  0.55579758  1
  B  B34  1  0.90115313  0.88399122  0.55638885  1
  B  B35  1  0.44241584  0.76171687  0.80694297  1
  N  N36  1  0.22631333  0.20136252  0.37010727  1
  N  N37  1  0.11024801  0.09304292  0.12358381  1
  N  N38  1  0.88736694  0.20414229  0.87455293  1
  N  N39  1  0.80196094  0.08171224  0.60784182  1
  N  N40  1  0.55569549  0.20492851  0.37137563  1
  N  N41  1  0.44460987  0.09276406  0.11773820  1
  N  N42  1  0.21846330  0.20625710  0.87138018  1
  N  N43  1  0.08619683  0.10792237  0.61474836  1
  N  N44  1  0.89321427  0.20181697  0.39296357  1
  N  N45  1  0.77999462  0.09342759  0.13005516  1
  N  N46  1  0.55886625  0.20354533  0.86820338  1
  N  N47  1  0.44041576  0.09862792  0.62351311  1
  N  N48  1  0.22524578  0.54008070  0.37039201  1
  N  N49  1  0.11376015  0.42713750  0.12293336  1
  N  N50  1  0.88458498  0.53870651  0.81803707  1
  N  N51  1  0.78731091  0.39389977  0.61198643  1
  N  N52  1  0.55322142  0.54066908  0.37723440  1
  N  N53  1  0.44532397  0.42862237  0.11781971  1
  N  N54  1  0.21928351  0.54205028  0.87026215  1
  N  N55  1  0.11928195  0.42438958  0.61643804  1
  N  N56  1  0.89113803  0.53827766  0.34686565  1
  N  N57  1  0.77354067  0.42447869  0.12867417  1
  N  N58  1  0.54344526  0.56284081  0.86341131  1
  N  N59  1  0.44180432  0.42750967  0.62238362  1
  N  N60  1  0.22679539  0.87042826  0.37641186  1
  N  N61  1  0.11007601  0.76418435  0.12246704  1
  N  N62  1  0.88893174  0.87569533  0.86963057  1
  N  N63  1  0.78550812  0.77637697  0.60018554  1
  N  N64  1  0.55185965  0.87276505  0.38130347  1
  N  N65  1  0.44344459  0.76167619  0.12414488  1
  N  N66  1  0.24368862  0.86156772  0.86055771  1
  N  N67  1  0.08678727  0.77533217  0.61491358  1
  N  N68  1  0.89850045  0.87628358  0.39512796  1
  N  N69  1  0.77301780  0.76671902  0.09913561  1
  N  N70  1  0.53870569  0.86145262  0.85911402  1
  N  N71  1  0.44221735  0.75917683  0.64217212  1
