# generated using pymatgen
data_Al11BN12
_symmetry_space_group_name_H-M   'P 1'
_cell_length_a   9.28826601
_cell_length_b   9.34387872
_cell_length_c   9.95517405
_cell_angle_alpha   90.27681473
_cell_angle_beta   89.85170706
_cell_angle_gamma   60.08247452
_symmetry_Int_Tables_number   1
_chemical_formula_structural   Al11BN12
_chemical_formula_sum   'Al33 B3 N36'
_cell_volume   748.84057185
_cell_formula_units_Z   3
loop_
 _symmetry_equiv_pos_site_id
 _symmetry_equiv_pos_as_xyz
  1  'x, y, z'
loop_
 _atom_site_type_symbol
 _atom_site_label
 _atom_site_symmetry_multiplicity
 _atom_site_fract_x
 _atom_site_fract_y
 _atom_site_fract_z
 _atom_site_occupancy
  Al  Al0  1  0.10283107  0.10093493  0.39492548  1
  Al  Al1  1  0.22149033  0.20235090  0.13689843  1
  Al  Al2  1  0.78049315  0.09213373  0.87079823  1
  Al  Al3  1  0.44586654  0.09444061  0.39169306  1
  Al  Al4  1  0.55928809  0.20262813  0.13542044  1
  Al  Al5  1  0.10906651  0.09838273  0.87123544  1
  Al  Al6  1  0.21599050  0.20996387  0.63809927  1
  Al  Al7  1  0.78116067  0.09880489  0.39634572  1
  Al  Al8  1  0.89091381  0.20231079  0.13258030  1
  Al  Al9  1  0.44191422  0.09455227  0.88078536  1
  Al  Al10  1  0.56185254  0.21181421  0.63725083  1
  Al  Al11  1  0.11178143  0.42587426  0.38512305  1
  Al  Al12  1  0.22146437  0.54120167  0.13759445  1
  Al  Al13  1  0.77247827  0.43163861  0.88198251  1
  Al  Al14  1  0.89378926  0.53191386  0.63911707  1
  Al  Al15  1  0.44462239  0.42760772  0.38827456  1
  Al  Al16  1  0.56027481  0.53141025  0.13958541  1
  Al  Al17  1  0.11149495  0.42621457  0.89141369  1
  Al  Al18  1  0.21973849  0.53579109  0.63934129  1
  Al  Al19  1  0.77971523  0.42360116  0.39274504  1
  Al  Al20  1  0.88764956  0.53851079  0.13841539  1
  Al  Al21  1  0.44478020  0.43305571  0.88845001  1
  Al  Al22  1  0.55804286  0.53500697  0.63954748  1
  Al  Al23  1  0.10210405  0.76045658  0.39495116  1
  Al  Al24  1  0.23376031  0.86681148  0.05903725  1
  Al  Al25  1  0.77557279  0.75584300  0.87965860  1
  Al  Al26  1  0.43922575  0.76614726  0.32927377  1
  Al  Al27  1  0.55522447  0.87004228  0.09605654  1
  Al  Al28  1  0.11476725  0.75436891  0.87603360  1
  Al  Al29  1  0.20798443  0.87984998  0.59310604  1
  Al  Al30  1  0.78378474  0.76187213  0.39449461  1
  Al  Al31  1  0.89004955  0.87432375  0.13623686  1
  Al  Al32  1  0.55870306  0.87721506  0.62062620  1
  B  B33  1  0.88356365  0.20758924  0.64097009  1
  B  B34  1  0.91077197  0.82577399  0.65605059  1
  B  B35  1  0.43986150  0.76539527  0.80407636  1
  N  N36  1  0.22305786  0.20096059  0.32906625  1
  N  N37  1  0.10911145  0.09731775  0.06692443  1
  N  N38  1  0.88486452  0.20931947  0.80679865  1
  N  N39  1  0.78405509  0.12654715  0.58376405  1
  N  N40  1  0.55773616  0.20382474  0.32840469  1
  N  N41  1  0.44370071  0.09589513  0.07480414  1
  N  N42  1  0.22118430  0.20903854  0.82630147  1
  N  N43  1  0.07907930  0.11671680  0.59134001  1
  N  N44  1  0.89031018  0.20574081  0.32191987  1
  N  N45  1  0.78119223  0.09084442  0.06635363  1
  N  N46  1  0.55451965  0.20820961  0.82766795  1
  N  N47  1  0.44242995  0.10396469  0.58410485  1
  N  N48  1  0.22031559  0.54173157  0.32917631  1
  N  N49  1  0.11198547  0.42622177  0.08189263  1
  N  N50  1  0.89203968  0.53499965  0.82808893  1
  N  N51  1  0.78525450  0.41548017  0.58540583  1
  N  N52  1  0.55997687  0.53257114  0.33304736  1
  N  N53  1  0.44511338  0.42662486  0.07917113  1
  N  N54  1  0.22394706  0.53323949  0.82816022  1
  N  N55  1  0.11170122  0.42663277  0.57506517  1
  N  N56  1  0.88726630  0.54038052  0.33097607  1
  N  N57  1  0.77911334  0.42555510  0.07385954  1
  N  N58  1  0.54438617  0.55988644  0.83205371  1
  N  N59  1  0.43836192  0.43558597  0.57840789  1
  N  N60  1  0.22340942  0.86920454  0.39542009  1
  N  N61  1  0.10931877  0.75929323  0.07020564  1
  N  N62  1  0.89073725  0.86434302  0.80725322  1
  N  N63  1  0.79833772  0.76677367  0.59254090  1
  N  N64  1  0.55869236  0.86787613  0.37197830  1
  N  N65  1  0.44013520  0.76421591  0.13442325  1
  N  N66  1  0.24932117  0.85811903  0.85904774  1
  N  N67  1  0.08133835  0.76532662  0.59418596  1
  N  N68  1  0.88689531  0.87690407  0.32745697  1
  N  N69  1  0.78271185  0.75887068  0.07294446  1
  N  N70  1  0.54423009  0.86170700  0.84065053  1
  N  N71  1  0.43473909  0.76946137  0.64263031  1
