# generated using pymatgen
data_Al11BN12
_symmetry_space_group_name_H-M   'P 1'
_cell_length_a   9.32413444
_cell_length_b   9.36873718
_cell_length_c   9.95884333
_cell_angle_alpha   90.16255719
_cell_angle_beta   90.21315488
_cell_angle_gamma   60.06132617
_symmetry_Int_Tables_number   1
_chemical_formula_structural   Al11BN12
_chemical_formula_sum   'Al33 B3 N36'
_cell_volume   753.86551572
_cell_formula_units_Z   3
loop_
 _symmetry_equiv_pos_site_id
 _symmetry_equiv_pos_as_xyz
  1  'x, y, z'
loop_
 _atom_site_type_symbol
 _atom_site_label
 _atom_site_symmetry_multiplicity
 _atom_site_fract_x
 _atom_site_fract_y
 _atom_site_fract_z
 _atom_site_occupancy
  Al  Al0  1  0.10423441  0.09895230  0.39853410  1
  Al  Al1  1  0.21561663  0.20570421  0.13796325  1
  Al  Al2  1  0.78268636  0.09087954  0.87427715  1
  Al  Al3  1  0.45105601  0.08498545  0.32782386  1
  Al  Al4  1  0.56431726  0.20240015  0.13143480  1
  Al  Al5  1  0.10970622  0.09765758  0.87431724  1
  Al  Al6  1  0.21091636  0.21140668  0.63798550  1
  Al  Al7  1  0.78372642  0.09768409  0.39930188  1
  Al  Al8  1  0.88900274  0.20501535  0.13438760  1
  Al  Al9  1  0.44616584  0.08619004  0.82220516  1
  Al  Al10  1  0.56878236  0.20512628  0.63434388  1
  Al  Al11  1  0.11218447  0.42587116  0.38717894  1
  Al  Al12  1  0.21674371  0.54407013  0.13802207  1
  Al  Al13  1  0.77842131  0.42802601  0.87650331  1
  Al  Al14  1  0.89299859  0.53337635  0.64043849  1
  Al  Al15  1  0.44831695  0.43037308  0.33657953  1
  Al  Al16  1  0.54798684  0.54743631  0.06632971  1
  Al  Al17  1  0.11108733  0.42612280  0.89450694  1
  Al  Al18  1  0.21232295  0.53944058  0.64010524  1
  Al  Al19  1  0.78651520  0.42024898  0.39461374  1
  Al  Al20  1  0.88345444  0.54100286  0.13816410  1
  Al  Al21  1  0.44478285  0.43555732  0.82840254  1
  Al  Al22  1  0.55471466  0.54082270  0.58258732  1
  Al  Al23  1  0.10301793  0.76243144  0.39810780  1
  Al  Al24  1  0.23056636  0.86881840  0.06432060  1
  Al  Al25  1  0.77740522  0.75580118  0.88095244  1
  Al  Al26  1  0.44229812  0.76163512  0.32791968  1
  Al  Al27  1  0.54710155  0.87264738  0.06678902  1
  Al  Al28  1  0.11265593  0.75608006  0.87895768  1
  Al  Al29  1  0.21308700  0.87674515  0.60085929  1
  Al  Al30  1  0.78755897  0.76056529  0.39333752  1
  Al  Al31  1  0.88832191  0.87426197  0.13776699  1
  Al  Al32  1  0.55448209  0.87438269  0.58240390  1
  B  B33  1  0.88582746  0.20644108  0.64361449  1
  B  B34  1  0.90841402  0.82984450  0.65617841  1
  B  B35  1  0.44419151  0.76143624  0.81380178  1
  N  N36  1  0.21727682  0.20373946  0.33325224  1
  N  N37  1  0.10766937  0.09768985  0.06961806  1
  N  N38  1  0.88672124  0.20669858  0.80833390  1
  N  N39  1  0.78929000  0.12137047  0.58592023  1
  N  N40  1  0.56440196  0.20175185  0.33577717  1
  N  N41  1  0.44769763  0.08774169  0.12598555  1
  N  N42  1  0.21666850  0.21143139  0.83018683  1
  N  N43  1  0.08120826  0.11297859  0.59395111  1
  N  N44  1  0.89064586  0.20573897  0.32387890  1
  N  N45  1  0.78399692  0.09021181  0.06819927  1
  N  N46  1  0.55943138  0.20431529  0.83510558  1
  N  N47  1  0.44531798  0.09429404  0.62428298  1
  N  N48  1  0.21556904  0.54509955  0.33323431  1
  N  N49  1  0.10929905  0.42804725  0.08408581  1
  N  N50  1  0.89166135  0.53680162  0.82821714  1
  N  N51  1  0.79270053  0.40840957  0.59057902  1
  N  N52  1  0.55421699  0.54411135  0.38832834  1
  N  N53  1  0.44633293  0.43086338  0.11933456  1
  N  N54  1  0.21536149  0.53751278  0.83180635  1
  N  N55  1  0.11016526  0.42696907  0.57603392  1
  N  N56  1  0.88632533  0.54100501  0.33109556  1
  N  N57  1  0.78103562  0.42453999  0.07190716  1
  N  N58  1  0.53850818  0.56992799  0.87039285  1
  N  N59  1  0.43974786  0.43487504  0.62340812  1
  N  N60  1  0.22720546  0.86800648  0.39851333  1
  N  N61  1  0.10732788  0.76149649  0.07265871  1
  N  N62  1  0.88925707  0.86547719  0.80803789  1
  N  N63  1  0.79831484  0.76696060  0.59206037  1
  N  N64  1  0.55575479  0.86818981  0.38977077  1
  N  N65  1  0.44246507  0.76246566  0.13733823  1
  N  N66  1  0.24672288  0.85909072  0.86039764  1
  N  N67  1  0.08056426  0.76757100  0.59582207  1
  N  N68  1  0.88746420  0.87733869  0.32878692  1
  N  N69  1  0.78095501  0.76076432  0.07463912  1
  N  N70  1  0.53837774  0.86023930  0.87135279  1
  N  N71  1  0.44612186  0.76202097  0.65294109  1
