# generated using pymatgen
data_Al11BN12
_symmetry_space_group_name_H-M   'P 1'
_cell_length_a   9.26784131
_cell_length_b   9.33010667
_cell_length_c   9.98636360
_cell_angle_alpha   90.24047185
_cell_angle_beta   89.72570555
_cell_angle_gamma   60.05082911
_symmetry_Int_Tables_number   1
_chemical_formula_structural   Al11BN12
_chemical_formula_sum   'Al33 B3 N36'
_cell_volume   748.18309255
_cell_formula_units_Z   3
loop_
 _symmetry_equiv_pos_site_id
 _symmetry_equiv_pos_as_xyz
  1  'x, y, z'
loop_
 _atom_site_type_symbol
 _atom_site_label
 _atom_site_symmetry_multiplicity
 _atom_site_fract_x
 _atom_site_fract_y
 _atom_site_fract_z
 _atom_site_occupancy
  Al  Al0  1  0.10241622  0.10214998  0.40335430  1
  Al  Al1  1  0.22145848  0.20270353  0.14476418  1
  Al  Al2  1  0.77997745  0.09160436  0.87872083  1
  Al  Al3  1  0.44585801  0.09544095  0.39717662  1
  Al  Al4  1  0.55933391  0.20390624  0.14309144  1
  Al  Al5  1  0.10922881  0.09844667  0.87841801  1
  Al  Al6  1  0.21774880  0.20837112  0.64591069  1
  Al  Al7  1  0.78134745  0.09934949  0.40396123  1
  Al  Al8  1  0.89174985  0.20216450  0.13993279  1
  Al  Al9  1  0.44336879  0.09004387  0.89574923  1
  Al  Al10  1  0.56190102  0.20886055  0.64491276  1
  Al  Al11  1  0.11100936  0.42703459  0.39360497  1
  Al  Al12  1  0.22151233  0.54200964  0.14486851  1
  Al  Al13  1  0.77212461  0.43180432  0.88994875  1
  Al  Al14  1  0.89250988  0.53299776  0.64761733  1
  Al  Al15  1  0.44430258  0.42782923  0.39650428  1
  Al  Al16  1  0.56017089  0.53252168  0.14684317  1
  Al  Al17  1  0.11128834  0.42608326  0.89895614  1
  Al  Al18  1  0.21894786  0.53607132  0.64751204  1
  Al  Al19  1  0.78032149  0.42339825  0.40088076  1
  Al  Al20  1  0.88751592  0.53914144  0.14650688  1
  Al  Al21  1  0.44452687  0.43218453  0.89557431  1
  Al  Al22  1  0.55853734  0.53300014  0.64609206  1
  Al  Al23  1  0.10153438  0.76102549  0.40308371  1
  Al  Al24  1  0.23755806  0.86589534  0.06420942  1
  Al  Al25  1  0.77100610  0.75751170  0.89440950  1
  Al  Al26  1  0.43606346  0.76485813  0.33591075  1
  Al  Al27  1  0.56028900  0.87487558  0.14863840  1
  Al  Al28  1  0.11345494  0.75476777  0.88317640  1
  Al  Al29  1  0.20798484  0.87953576  0.60062720  1
  Al  Al30  1  0.78191824  0.76442377  0.40114564  1
  Al  Al31  1  0.89163795  0.87453219  0.14365763  1
  Al  Al32  1  0.55960430  0.87853121  0.64892774  1
  B  B33  1  0.88392583  0.20732937  0.64871255  1
  B  B34  1  0.90736530  0.82870277  0.66271001  1
  B  B35  1  0.43984603  0.76324066  0.80976722  1
  N  N36  1  0.22206972  0.20239817  0.33685882  1
  N  N37  1  0.11008679  0.09706900  0.07342635  1
  N  N38  1  0.88452546  0.20909511  0.81423798  1
  N  N39  1  0.78512864  0.12387856  0.59166261  1
  N  N40  1  0.55810093  0.20525191  0.33587677  1
  N  N41  1  0.44574609  0.09326168  0.08650167  1
  N  N42  1  0.22355687  0.20768765  0.83408919  1
  N  N43  1  0.07954576  0.11645746  0.59929007  1
  N  N44  1  0.89059457  0.20611787  0.32926261  1
  N  N45  1  0.78155275  0.09129062  0.07378493  1
  N  N46  1  0.55341075  0.20602172  0.83535718  1
  N  N47  1  0.44536178  0.09701765  0.58726256  1
  N  N48  1  0.22012554  0.54248953  0.33650089  1
  N  N49  1  0.11212279  0.42659954  0.08923234  1
  N  N50  1  0.89049636  0.53693953  0.83656068  1
  N  N51  1  0.78647104  0.41333932  0.59317358  1
  N  N52  1  0.56031608  0.53277692  0.34182865  1
  N  N53  1  0.44549172  0.42703516  0.08602121  1
  N  N54  1  0.22359404  0.53336629  0.83544240  1
  N  N55  1  0.11160158  0.42615735  0.58330705  1
  N  N56  1  0.88623494  0.54172888  0.33936548  1
  N  N57  1  0.77957980  0.42548951  0.08141735  1
  N  N58  1  0.54404632  0.55967181  0.83803393  1
  N  N59  1  0.43835404  0.43322219  0.58614997  1
  N  N60  1  0.22265068  0.87046380  0.40393804  1
  N  N61  1  0.11034267  0.75981420  0.07648256  1
  N  N62  1  0.88844889  0.86370327  0.81471002  1
  N  N63  1  0.79354117  0.76913382  0.59730823  1
  N  N64  1  0.56114215  0.87351638  0.34494880  1
  N  N65  1  0.44059304  0.76349364  0.14192133  1
  N  N66  1  0.24978550  0.85766401  0.86421945  1
  N  N67  1  0.07984239  0.76560360  0.60147284  1
  N  N68  1  0.88731229  0.87789987  0.33480114  1
  N  N69  1  0.78047657  0.76098575  0.08443432  1
  N  N70  1  0.54505306  0.86254144  0.83961133  1
  N  N71  1  0.43626961  0.76702579  0.64552869  1
