# generated using pymatgen
data_Al11BN12
_symmetry_space_group_name_H-M   'P 1'
_cell_length_a   9.31839288
_cell_length_b   9.36183624
_cell_length_c   9.92932356
_cell_angle_alpha   90.11224652
_cell_angle_beta   90.10088206
_cell_angle_gamma   60.05752046
_symmetry_Int_Tables_number   1
_chemical_formula_structural   Al11BN12
_chemical_formula_sum   'Al33 B3 N36'
_cell_volume   750.58999787
_cell_formula_units_Z   3
loop_
 _symmetry_equiv_pos_site_id
 _symmetry_equiv_pos_as_xyz
  1  'x, y, z'
loop_
 _atom_site_type_symbol
 _atom_site_label
 _atom_site_symmetry_multiplicity
 _atom_site_fract_x
 _atom_site_fract_y
 _atom_site_fract_z
 _atom_site_occupancy
  Al  Al0  1  0.10390422  0.09883844  0.39730498  1
  Al  Al1  1  0.22154152  0.20306779  0.13733092  1
  Al  Al2  1  0.78196050  0.09096789  0.87298914  1
  Al  Al3  1  0.44617265  0.09460185  0.37682084  1
  Al  Al4  1  0.55957741  0.20437065  0.13499514  1
  Al  Al5  1  0.10958125  0.09730350  0.87334438  1
  Al  Al6  1  0.21297282  0.21059852  0.63692622  1
  Al  Al7  1  0.78258686  0.09918728  0.39780283  1
  Al  Al8  1  0.88923782  0.20475556  0.13319460  1
  Al  Al9  1  0.44341855  0.09088561  0.85347235  1
  Al  Al10  1  0.56486940  0.20993654  0.63721513  1
  Al  Al11  1  0.11147862  0.42715439  0.38532700  1
  Al  Al12  1  0.22206182  0.54111579  0.13807021  1
  Al  Al13  1  0.77723906  0.42819000  0.87473168  1
  Al  Al14  1  0.89457110  0.53230819  0.63961697  1
  Al  Al15  1  0.44210282  0.42791437  0.39015005  1
  Al  Al16  1  0.55151715  0.54954917  0.06948312  1
  Al  Al17  1  0.11082803  0.42584807  0.89378112  1
  Al  Al18  1  0.21743374  0.53574987  0.64091832  1
  Al  Al19  1  0.78573396  0.42112845  0.39313603  1
  Al  Al20  1  0.88553877  0.54053853  0.13740423  1
  Al  Al21  1  0.44076044  0.42942983  0.88365690  1
  Al  Al22  1  0.55604585  0.54109092  0.58580908  1
  Al  Al23  1  0.10348134  0.76179669  0.39643066  1
  Al  Al24  1  0.22991382  0.86934806  0.06386066  1
  Al  Al25  1  0.77794357  0.75480526  0.87989695  1
  Al  Al26  1  0.44299731  0.76157675  0.32793155  1
  Al  Al27  1  0.54826938  0.87273173  0.06720937  1
  Al  Al28  1  0.11405445  0.75478792  0.87779083  1
  Al  Al29  1  0.21197543  0.87690311  0.59994801  1
  Al  Al30  1  0.78719481  0.76084169  0.39295528  1
  Al  Al31  1  0.88798105  0.87484357  0.13659291  1
  Al  Al32  1  0.55669582  0.87186407  0.58776352  1
  B  B33  1  0.88486094  0.20722468  0.64266711  1
  B  B34  1  0.91037133  0.82666969  0.65626418  1
  B  B35  1  0.44463659  0.75889943  0.81266715  1
  N  N36  1  0.22011332  0.20271828  0.33196638  1
  N  N37  1  0.10818967  0.09823536  0.06934073  1
  N  N38  1  0.88676403  0.20624654  0.80790541  1
  N  N39  1  0.78581251  0.12516642  0.58474112  1
  N  N40  1  0.55954629  0.20641111  0.33079407  1
  N  N41  1  0.44425423  0.09593815  0.09048287  1
  N  N42  1  0.21738127  0.21083339  0.82678904  1
  N  N43  1  0.08098458  0.11329397  0.59305758  1
  N  N44  1  0.89092110  0.20600441  0.32295800  1
  N  N45  1  0.78155020  0.09185223  0.06782463  1
  N  N46  1  0.55753957  0.20666944  0.82815177  1
  N  N47  1  0.44309176  0.10007663  0.59840483  1
  N  N48  1  0.22002346  0.54294409  0.33007772  1
  N  N49  1  0.11061752  0.42767883  0.08391017  1
  N  N50  1  0.89270390  0.53570662  0.82779223  1
  N  N51  1  0.79263325  0.40876105  0.59075167  1
  N  N52  1  0.55618035  0.54414276  0.38454253  1
  N  N53  1  0.44351229  0.42705716  0.07872233  1
  N  N54  1  0.22020055  0.53422085  0.82943264  1
  N  N55  1  0.11066627  0.42713008  0.57497014  1
  N  N56  1  0.88707104  0.54126409  0.33053673  1
  N  N57  1  0.78211331  0.42476039  0.07179430  1
  N  N58  1  0.53888686  0.56855995  0.86736176  1
  N  N59  1  0.43473516  0.43175010  0.58434446  1
  N  N60  1  0.22699137  0.86800082  0.39759179  1
  N  N61  1  0.10813675  0.76020697  0.07237162  1
  N  N62  1  0.89027506  0.86456773  0.80782708  1
  N  N63  1  0.79920464  0.76599348  0.59260646  1
  N  N64  1  0.55722597  0.86621387  0.39016063  1
  N  N65  1  0.44185578  0.76418215  0.13695625  1
  N  N66  1  0.24692662  0.85869039  0.85999471  1
  N  N67  1  0.08171135  0.76542534  0.59552231  1
  N  N68  1  0.88714673  0.87798449  0.32841274  1
  N  N69  1  0.78121211  0.76048367  0.07402795  1
  N  N70  1  0.54053742  0.85752411  0.86642993  1
  N  N71  1  0.44422327  0.76166774  0.65219570  1
