# generated using pymatgen
data_Al11BN12
_symmetry_space_group_name_H-M   'P 1'
_cell_length_a   9.33695843
_cell_length_b   9.35022278
_cell_length_c   9.95311808
_cell_angle_alpha   90.04074752
_cell_angle_beta   90.50045631
_cell_angle_gamma   59.96165673
_symmetry_Int_Tables_number   1
_chemical_formula_structural   Al11BN12
_chemical_formula_sum   'Al33 B3 N36'
_cell_volume   752.19214114
_cell_formula_units_Z   3
loop_
 _symmetry_equiv_pos_site_id
 _symmetry_equiv_pos_as_xyz
  1  'x, y, z'
loop_
 _atom_site_type_symbol
 _atom_site_label
 _atom_site_symmetry_multiplicity
 _atom_site_fract_x
 _atom_site_fract_y
 _atom_site_fract_z
 _atom_site_occupancy
  Al  Al0  1  0.10567838  0.09790440  0.40165730  1
  Al  Al1  1  0.22322945  0.20297368  0.09083842  1
  Al  Al2  1  0.78057052  0.09290102  0.87709689  1
  Al  Al3  1  0.44686522  0.09210187  0.32722369  1
  Al  Al4  1  0.55404074  0.20692568  0.07198356  1
  Al  Al5  1  0.10803996  0.09484705  0.86845008  1
  Al  Al6  1  0.21549647  0.20793947  0.61971680  1
  Al  Al7  1  0.78959653  0.08915851  0.39786614  1
  Al  Al8  1  0.89063461  0.20312547  0.13769434  1
  Al  Al9  1  0.44691119  0.08808633  0.82234678  1
  Al  Al10  1  0.55987751  0.20329713  0.57988764  1
  Al  Al11  1  0.10992401  0.42566412  0.39206196  1
  Al  Al12  1  0.22562931  0.53927494  0.07066545  1
  Al  Al13  1  0.77486749  0.43009539  0.88000680  1
  Al  Al14  1  0.88683942  0.54034459  0.64089410  1
  Al  Al15  1  0.44555661  0.42852871  0.32665842  1
  Al  Al16  1  0.54864256  0.54623266  0.07055509  1
  Al  Al17  1  0.10333250  0.43024293  0.88233863  1
  Al  Al18  1  0.22056514  0.54090885  0.58759493  1
  Al  Al19  1  0.78546705  0.41904096  0.39459331  1
  Al  Al20  1  0.88557100  0.54042608  0.14015202  1
  Al  Al21  1  0.44375882  0.43285190  0.82112852  1
  Al  Al22  1  0.55644844  0.53647398  0.58210702  1
  Al  Al23  1  0.10372698  0.76778354  0.39849098  1
  Al  Al24  1  0.23106192  0.86761339  0.06231726  1
  Al  Al25  1  0.77543373  0.76088741  0.88047246  1
  Al  Al26  1  0.44233032  0.76235080  0.32905696  1
  Al  Al27  1  0.54932050  0.87094078  0.07037704  1
  Al  Al28  1  0.10867234  0.76301200  0.86596947  1
  Al  Al29  1  0.21837713  0.87388152  0.60457550  1
  Al  Al30  1  0.78588974  0.76180123  0.39455379  1
  Al  Al31  1  0.89058427  0.87315298  0.13740499  1
  Al  Al32  1  0.55624324  0.87393312  0.58144007  1
  B  B33  1  0.89151163  0.19974885  0.64946836  1
  B  B34  1  0.89254136  0.87308719  0.64955205  1
  B  B35  1  0.44608740  0.76007337  0.81573750  1
  N  N36  1  0.22405006  0.20131712  0.36808425  1
  N  N37  1  0.10591111  0.09521748  0.06832383  1
  N  N38  1  0.88244420  0.20852076  0.80978592  1
  N  N39  1  0.80305350  0.08228559  0.59528748  1
  N  N40  1  0.55648914  0.20552304  0.38548373  1
  N  N41  1  0.44885997  0.09110184  0.13144826  1
  N  N42  1  0.22047913  0.20761187  0.84829837  1
  N  N43  1  0.08178767  0.10906443  0.60254686  1
  N  N44  1  0.89112173  0.20268962  0.32783485  1
  N  N45  1  0.78608312  0.09052470  0.07276169  1
  N  N46  1  0.54768213  0.20980802  0.87882153  1
  N  N47  1  0.44766016  0.09310999  0.63364011  1
  N  N48  1  0.22563111  0.54050314  0.38481470  1
  N  N49  1  0.10602229  0.42949103  0.08157429  1
  N  N50  1  0.88324639  0.54158612  0.82777862  1
  N  N51  1  0.79392801  0.39826479  0.59042829  1
  N  N52  1  0.55320287  0.54188867  0.38810956  1
  N  N53  1  0.44603367  0.42820427  0.13307570  1
  N  N54  1  0.22442299  0.53573087  0.86930866  1
  N  N55  1  0.10447044  0.43047889  0.58923304  1
  N  N56  1  0.88610984  0.54031579  0.33326756  1
  N  N57  1  0.78131798  0.42388426  0.07548081  1
  N  N58  1  0.53669613  0.56778251  0.87439618  1
  N  N59  1  0.44589780  0.42664803  0.63402142  1
  N  N60  1  0.22932230  0.86928494  0.40032180  1
  N  N61  1  0.10541305  0.76725921  0.07130360  1
  N  N62  1  0.88250290  0.87491622  0.80974789  1
  N  N63  1  0.79439630  0.77437383  0.59018469  1
  N  N64  1  0.55393604  0.87118451  0.38781682  1
  N  N65  1  0.44240392  0.76226436  0.13823474  1
  N  N66  1  0.24833987  0.85896810  0.85735504  1
  N  N67  1  0.08270387  0.77455652  0.60372767  1
  N  N68  1  0.88982417  0.87386066  0.32759597  1
  N  N69  1  0.78188191  0.76086767  0.07557731  1
  N  N70  1  0.53704745  0.86145163  0.87484064  1
  N  N71  1  0.45218035  0.75734801  0.65400367  1
