# generated using pymatgen
data_Al11BN12
_symmetry_space_group_name_H-M   'P 1'
_cell_length_a   9.27019026
_cell_length_b   9.27938925
_cell_length_c   10.12144764
_cell_angle_alpha   90.00573881
_cell_angle_beta   90.44577211
_cell_angle_gamma   59.95526955
_symmetry_Int_Tables_number   1
_chemical_formula_structural   Al11BN12
_chemical_formula_sum   'Al33 B3 N36'
_cell_volume   753.64714509
_cell_formula_units_Z   3
loop_
 _symmetry_equiv_pos_site_id
 _symmetry_equiv_pos_as_xyz
  1  'x, y, z'
loop_
 _atom_site_type_symbol
 _atom_site_label
 _atom_site_symmetry_multiplicity
 _atom_site_fract_x
 _atom_site_fract_y
 _atom_site_fract_z
 _atom_site_occupancy
  Al  Al0  1  0.12142261  0.08799493  0.32006465  1
  Al  Al1  1  0.22091858  0.20660477  0.07176309  1
  Al  Al2  1  0.77175017  0.09746690  0.84133551  1
  Al  Al3  1  0.45120118  0.09002809  0.32345049  1
  Al  Al4  1  0.55639080  0.20513000  0.06747528  1
  Al  Al5  1  0.11723046  0.09037801  0.81862419  1
  Al  Al6  1  0.21471142  0.20766976  0.56963672  1
  Al  Al7  1  0.79037244  0.08815009  0.39064708  1
  Al  Al8  1  0.88223783  0.20788354  0.13827995  1
  Al  Al9  1  0.43864339  0.09131514  0.82056928  1
  Al  Al10  1  0.55555197  0.20554509  0.57829245  1
  Al  Al11  1  0.11854577  0.42406445  0.32197102  1
  Al  Al12  1  0.22092071  0.53913677  0.07176387  1
  Al  Al13  1  0.77625135  0.43190089  0.88332567  1
  Al  Al14  1  0.88451168  0.54107661  0.64159019  1
  Al  Al15  1  0.45120144  0.42543601  0.32345192  1
  Al  Al16  1  0.54607841  0.54685293  0.06765941  1
  Al  Al17  1  0.11669035  0.42499517  0.82111675  1
  Al  Al18  1  0.21470931  0.54427477  0.56963787  1
  Al  Al19  1  0.78944512  0.41696408  0.40053286  1
  Al  Al20  1  0.87832451  0.54416885  0.14143589  1
  Al  Al21  1  0.43864172  0.43671245  0.82056871  1
  Al  Al22  1  0.55221824  0.53893605  0.58371339  1
  Al  Al23  1  0.12142233  0.75725434  0.32006644  1
  Al  Al24  1  0.22598269  0.87033829  0.06620408  1
  Al  Al25  1  0.77624946  0.75853433  0.88332635  1
  Al  Al26  1  0.45076708  0.75794898  0.32654779  1
  Al  Al27  1  0.54607504  0.87371900  0.06765881  1
  Al  Al28  1  0.11722424  0.75907334  0.81862301  1
  Al  Al29  1  0.20937977  0.87863591  0.57603125  1
  Al  Al30  1  0.78944491  0.76026493  0.40053317  1
  Al  Al31  1  0.88223928  0.87653521  0.13828112  1
  Al  Al32  1  0.55222070  0.87549334  0.58370995  1
  B  B33  1  0.89158899  0.20624227  0.65252855  1
  B  B34  1  0.89157984  0.86885796  0.65252368  1
  B  B35  1  0.44188563  0.76238813  0.81885630  1
  N  N36  1  0.22544198  0.20348658  0.38239953  1
  N  N37  1  0.11882095  0.08894300  0.12894432  1
  N  N38  1  0.88001262  0.21549854  0.81166313  1
  N  N39  1  0.79849469  0.08407557  0.60700276  1
  N  N40  1  0.55645878  0.20509471  0.38805924  1
  N  N41  1  0.44739708  0.09276616  0.13265601  1
  N  N42  1  0.21855116  0.20659911  0.88395453  1
  N  N43  1  0.09184909  0.10496589  0.62920820  1
  N  N44  1  0.88761211  0.20681316  0.32864969  1
  N  N45  1  0.78373808  0.09146852  0.08048301  1
  N  N46  1  0.54393740  0.21135795  0.87633539  1
  N  N47  1  0.43921759  0.09709682  0.63473330  1
  N  N48  1  0.22544340  0.53772489  0.38240054  1
  N  N49  1  0.11424936  0.42622442  0.13266587  1
  N  N50  1  0.88346163  0.54159285  0.82767029  1
  N  N51  1  0.79529888  0.39766890  0.59120562  1
  N  N52  1  0.55390906  0.54076493  0.39238122  1
  N  N53  1  0.44739832  0.42652034  0.13265676  1
  N  N54  1  0.21855103  0.54151378  0.88395526  1
  N  N55  1  0.11650638  0.42509082  0.63045930  1
  N  N56  1  0.88245644  0.54209142  0.33552381  1
  N  N57  1  0.78115581  0.42527521  0.07267051  1
  N  N58  1  0.53455751  0.56943118  0.87391184  1
  N  N59  1  0.43921911  0.43036508  0.63473162  1
  N  N60  1  0.22627278  0.87019134  0.38809504  1
  N  N61  1  0.11882279  0.75893116  0.12894666  1
  N  N62  1  0.88001227  0.87114023  0.81166464  1
  N  N63  1  0.79529868  0.77370370  0.59120098  1
  N  N64  1  0.55390914  0.87197512  0.39237918  1
  N  N65  1  0.44623010  0.76022663  0.13870764  1
  N  N66  1  0.24205936  0.86230079  0.87385226  1
  N  N67  1  0.09184796  0.76987053  0.62920770  1
  N  N68  1  0.88761233  0.87221079  0.32864949  1
  N  N69  1  0.78115241  0.76024692  0.07267114  1
  N  N70  1  0.53455470  0.86266694  0.87391599  1
  N  N71  1  0.44106061  0.76280878  0.65457067  1
