# generated using pymatgen
data_Al11BN12
_symmetry_space_group_name_H-M   'P 1'
_cell_length_a   9.31209125
_cell_length_b   9.31068238
_cell_length_c   10.01430182
_cell_angle_alpha   90.05056267
_cell_angle_beta   90.40923472
_cell_angle_gamma   60.01354775
_symmetry_Int_Tables_number   1
_chemical_formula_structural   Al11BN12
_chemical_formula_sum   'Al33 B3 N36'
_cell_volume   752.01438222
_cell_formula_units_Z   3
loop_
 _symmetry_equiv_pos_site_id
 _symmetry_equiv_pos_as_xyz
  1  'x, y, z'
loop_
 _atom_site_type_symbol
 _atom_site_label
 _atom_site_symmetry_multiplicity
 _atom_site_fract_x
 _atom_site_fract_y
 _atom_site_fract_z
 _atom_site_occupancy
  Al  Al0  1  0.10591005  0.10034003  0.39951570  1
  Al  Al1  1  0.21689346  0.20518852  0.14108657  1
  Al  Al2  1  0.78193491  0.09251335  0.87529458  1
  Al  Al3  1  0.45489235  0.08850071  0.32645935  1
  Al  Al4  1  0.55415007  0.20559126  0.06921174  1
  Al  Al5  1  0.10969043  0.09739854  0.87806739  1
  Al  Al6  1  0.20858478  0.21149604  0.64225132  1
  Al  Al7  1  0.79106548  0.08856550  0.39898619  1
  Al  Al8  1  0.88944708  0.20367802  0.13719707  1
  Al  Al9  1  0.44650740  0.08800771  0.82147984  1
  Al  Al10  1  0.55829660  0.20371329  0.57955438  1
  Al  Al11  1  0.11193231  0.42584407  0.38958231  1
  Al  Al12  1  0.22365787  0.53936185  0.09144079  1
  Al  Al13  1  0.77601564  0.42954641  0.87842126  1
  Al  Al14  1  0.88830811  0.53875607  0.64040010  1
  Al  Al15  1  0.44756188  0.42775591  0.32609315  1
  Al  Al16  1  0.54934905  0.54625973  0.06838601  1
  Al  Al17  1  0.10625457  0.42544276  0.89064107  1
  Al  Al18  1  0.21462810  0.54181819  0.61187410  1
  Al  Al19  1  0.78517834  0.41969610  0.39508975  1
  Al  Al20  1  0.88424466  0.54140181  0.13958081  1
  Al  Al21  1  0.44404794  0.43280535  0.82126606  1
  Al  Al22  1  0.55463376  0.53753328  0.58162100  1
  Al  Al23  1  0.10563304  0.76397109  0.39847438  1
  Al  Al24  1  0.23232334  0.86822406  0.06395308  1
  Al  Al25  1  0.77724730  0.75966374  0.87902443  1
  Al  Al26  1  0.44299666  0.76188161  0.32816644  1
  Al  Al27  1  0.54904496  0.87240013  0.06824272  1
  Al  Al28  1  0.10904850  0.76243939  0.87101043  1
  Al  Al29  1  0.21755869  0.87570824  0.59920565  1
  Al  Al30  1  0.78676792  0.76088433  0.39551973  1
  Al  Al31  1  0.88975063  0.87355783  0.13754338  1
  Al  Al32  1  0.55499175  0.87426131  0.58189401  1
  B  B33  1  0.89269825  0.19977186  0.64784930  1
  B  B34  1  0.89259298  0.87432199  0.64878357  1
  B  B35  1  0.44407778  0.76148361  0.81626032  1
  N  N36  1  0.21869024  0.20421137  0.33357844  1
  N  N37  1  0.10857364  0.09799863  0.07189864  1
  N  N38  1  0.88633548  0.20669965  0.80858467  1
  N  N39  1  0.80311135  0.08183809  0.59529992  1
  N  N40  1  0.55735962  0.20573168  0.38706318  1
  N  N41  1  0.45226688  0.08971292  0.13225208  1
  N  N42  1  0.21572545  0.21008231  0.83124489  1
  N  N43  1  0.08131609  0.11172171  0.59487758  1
  N  N44  1  0.89018833  0.20363824  0.32663869  1
  N  N45  1  0.78736145  0.08984745  0.07009681  1
  N  N46  1  0.54792992  0.20922477  0.87768364  1
  N  N47  1  0.44426217  0.09453981  0.63133602  1
  N  N48  1  0.22364983  0.54075951  0.36614545  1
  N  N49  1  0.10810946  0.42581171  0.08223250  1
  N  N50  1  0.88709472  0.53915962  0.82681463  1
  N  N51  1  0.79285051  0.39884795  0.59025645  1
  N  N52  1  0.55303231  0.54232792  0.38893218  1
  N  N53  1  0.44989644  0.42604040  0.13180071  1
  N  N54  1  0.21931727  0.53630756  0.85323572  1
  N  N55  1  0.10562798  0.42599642  0.57981522  1
  N  N56  1  0.88583229  0.54020817  0.33169805  1
  N  N57  1  0.78198268  0.42376236  0.07318524  1
  N  N58  1  0.53672627  0.56787406  0.87401908  1
  N  N59  1  0.44532190  0.42678084  0.63368654  1
  N  N60  1  0.22922921  0.87028071  0.39825002  1
  N  N61  1  0.10626664  0.76579993  0.07061168  1
  N  N62  1  0.88429963  0.87431397  0.80844217  1
  N  N63  1  0.79435028  0.77357261  0.59018386  1
  N  N64  1  0.55394982  0.87069799  0.38953783  1
  N  N65  1  0.44407639  0.76175435  0.13846039  1
  N  N66  1  0.24825174  0.86023734  0.86177183  1
  N  N67  1  0.08191673  0.77517404  0.59957506  1
  N  N68  1  0.88984047  0.87385522  0.32695821  1
  N  N69  1  0.78267082  0.76050944  0.07321836  1
  N  N70  1  0.53741294  0.86164604  0.87398166  1
  N  N71  1  0.44913248  0.75875163  0.65469106  1
