# generated using pymatgen
data_Al11BN12
_symmetry_space_group_name_H-M   'P 1'
_cell_length_a   9.31936238
_cell_length_b   9.30450687
_cell_length_c   9.99553733
_cell_angle_alpha   89.99896238
_cell_angle_beta   90.19854320
_cell_angle_gamma   60.05214468
_symmetry_Int_Tables_number   1
_chemical_formula_structural   Al11BN12
_chemical_formula_sum   'Al33 B3 N36'
_cell_volume   751.00149963
_cell_formula_units_Z   3
loop_
 _symmetry_equiv_pos_site_id
 _symmetry_equiv_pos_as_xyz
  1  'x, y, z'
loop_
 _atom_site_type_symbol
 _atom_site_label
 _atom_site_symmetry_multiplicity
 _atom_site_fract_x
 _atom_site_fract_y
 _atom_site_fract_z
 _atom_site_occupancy
  Al  Al0  1  0.10532306  0.09941396  0.39846976  1
  Al  Al1  1  0.21505260  0.20623204  0.13944301  1
  Al  Al2  1  0.78338682  0.09158995  0.87534772  1
  Al  Al3  1  0.45299246  0.08797517  0.32656670  1
  Al  Al4  1  0.55628436  0.20514072  0.08318127  1
  Al  Al5  1  0.11052642  0.09720474  0.87727545  1
  Al  Al6  1  0.20838279  0.21361502  0.64052804  1
  Al  Al7  1  0.78747260  0.08954696  0.39921026  1
  Al  Al8  1  0.88896204  0.20421149  0.13724764  1
  Al  Al9  1  0.44501882  0.08713175  0.82198121  1
  Al  Al10  1  0.56367403  0.20144625  0.60206111  1
  Al  Al11  1  0.11261063  0.42697850  0.38784076  1
  Al  Al12  1  0.21505238  0.54528179  0.13944284  1
  Al  Al13  1  0.77806537  0.42907208  0.87730822  1
  Al  Al14  1  0.88982307  0.53837154  0.63924681  1
  Al  Al15  1  0.45299220  0.42559989  0.32656657  1
  Al  Al16  1  0.54848016  0.54653473  0.06633199  1
  Al  Al17  1  0.10937234  0.42859741  0.89406313  1
  Al  Al18  1  0.20838157  0.54456930  0.64052835  1
  Al  Al19  1  0.78624085  0.41910782  0.39478360  1
  Al  Al20  1  0.88318980  0.54168804  0.13837761  1
  Al  Al21  1  0.44501832  0.43441566  0.82198140  1
  Al  Al22  1  0.55448414  0.53815324  0.58100638  1
  Al  Al23  1  0.10532361  0.76183149  0.39846946  1
  Al  Al24  1  0.23170929  0.86742878  0.06442421  1
  Al  Al25  1  0.77806541  0.75942937  0.87730751  1
  Al  Al26  1  0.44320145  0.76168342  0.32701481  1
  Al  Al27  1  0.54848071  0.87155080  0.06633207  1
  Al  Al28  1  0.11052631  0.75883703  0.87727579  1
  Al  Al29  1  0.21738869  0.87458877  0.59771880  1
  Al  Al30  1  0.78624101  0.76121843  0.39478386  1
  Al  Al31  1  0.88896195  0.87339261  0.13724751  1
  Al  Al32  1  0.55448453  0.87392877  0.58100682  1
  B  B33  1  0.89450311  0.19997435  0.64804895  1
  B  B34  1  0.89450271  0.87209231  0.64804879  1
  B  B35  1  0.44430079  0.76113220  0.81512789  1
  N  N36  1  0.21738453  0.20458859  0.33281596  1
  N  N37  1  0.10751929  0.09772327  0.07151951  1
  N  N38  1  0.88802129  0.20610986  0.80847914  1
  N  N39  1  0.80423928  0.08116370  0.59544551  1
  N  N40  1  0.55959410  0.20348543  0.37443862  1
  N  N41  1  0.44918072  0.08899263  0.12890497  1
  N  N42  1  0.21486468  0.21272508  0.83120914  1
  N  N43  1  0.08211431  0.11173069  0.59444631  1
  N  N44  1  0.88992973  0.20300980  0.32681014  1
  N  N45  1  0.78668571  0.08994171  0.06965914  1
  N  N46  1  0.55288055  0.20684156  0.86324603  1
  N  N47  1  0.44265979  0.09369495  0.62970397  1
  N  N48  1  0.21738425  0.54459504  0.33281569  1
  N  N49  1  0.10898949  0.42878946  0.08329652  1
  N  N50  1  0.89013819  0.53821399  0.82651370  1
  N  N51  1  0.79367751  0.39908534  0.59031186  1
  N  N52  1  0.55403384  0.54274191  0.38856960  1
  N  N53  1  0.44918034  0.42839267  0.12890467  1
  N  N54  1  0.21486426  0.53897809  0.83120954  1
  N  N55  1  0.10824183  0.42916340  0.57596589  1
  N  N56  1  0.88602325  0.54027199  0.33124039  1
  N  N57  1  0.78152913  0.42390013  0.07232288  1
  N  N58  1  0.53811342  0.56804704  0.87230029  1
  N  N59  1  0.44265885  0.43021282  0.62970398  1
  N  N60  1  0.22915308  0.86870728  0.39675579  1
  N  N61  1  0.10751876  0.76132626  0.07151907  1
  N  N62  1  0.88802108  0.87243552  0.80847906  1
  N  N63  1  0.79367707  0.77380474  0.59031178  1
  N  N64  1  0.55403410  0.86978895  0.38857013  1
  N  N65  1  0.44349555  0.76153518  0.13739252  1
  N  N66  1  0.24838516  0.85909096  0.86234828  1
  N  N67  1  0.08211343  0.77272373  0.59444583  1
  N  N68  1  0.88992980  0.87362779  0.32680989  1
  N  N69  1  0.78152947  0.76113929  0.07232241  1
  N  N70  1  0.53811390  0.86040337  0.87230059  1
  N  N71  1  0.44809150  0.75923752  0.65359705  1
