# generated using pymatgen
data_Al11BN12
_symmetry_space_group_name_H-M   'P 1'
_cell_length_a   9.30975893
_cell_length_b   9.29090218
_cell_length_c   9.93221675
_cell_angle_alpha   90.23408978
_cell_angle_beta   90.29945971
_cell_angle_gamma   59.84572212
_symmetry_Int_Tables_number   1
_chemical_formula_structural   Al11BN12
_chemical_formula_sum   'Al33 B3 N36'
_cell_volume   742.82982687
_cell_formula_units_Z   3
loop_
 _symmetry_equiv_pos_site_id
 _symmetry_equiv_pos_as_xyz
  1  'x, y, z'
loop_
 _atom_site_type_symbol
 _atom_site_label
 _atom_site_symmetry_multiplicity
 _atom_site_fract_x
 _atom_site_fract_y
 _atom_site_fract_z
 _atom_site_occupancy
  Al  Al0  1  0.11172816  0.09265600  0.31697079  1
  Al  Al1  1  0.21902995  0.20640629  0.06283657  1
  Al  Al2  1  0.78268804  0.09137591  0.80191412  1
  Al  Al3  1  0.44839031  0.08990630  0.31155465  1
  Al  Al4  1  0.55887989  0.20299720  0.06268186  1
  Al  Al5  1  0.10859876  0.09475509  0.80821571  1
  Al  Al6  1  0.21725191  0.20637585  0.55973081  1
  Al  Al7  1  0.78109605  0.09399457  0.32320641  1
  Al  Al8  1  0.88748220  0.20509502  0.06448887  1
  Al  Al9  1  0.44055776  0.09272968  0.81243250  1
  Al  Al10  1  0.56108910  0.20198554  0.56218537  1
  Al  Al11  1  0.12027284  0.42388447  0.31578367  1
  Al  Al12  1  0.22026223  0.54061804  0.06182329  1
  Al  Al13  1  0.77199204  0.42279340  0.80836369  1
  Al  Al14  1  0.88860579  0.53908445  0.61943285  1
  Al  Al15  1  0.44659162  0.42779340  0.31088138  1
  Al  Al16  1  0.55458130  0.54280276  0.05869228  1
  Al  Al17  1  0.11549268  0.42543628  0.81086112  1
  Al  Al18  1  0.21796835  0.54362702  0.56007458  1
  Al  Al19  1  0.77603794  0.42319815  0.32582356  1
  Al  Al20  1  0.88169934  0.54774292  0.13323819  1
  Al  Al21  1  0.44192864  0.43280881  0.81261475  1
  Al  Al22  1  0.55649426  0.53413051  0.56762405  1
  Al  Al23  1  0.11353563  0.76302394  0.31541770  1
  Al  Al24  1  0.22484244  0.87047377  0.05774311  1
  Al  Al25  1  0.77401718  0.75926351  0.85696862  1
  Al  Al26  1  0.44688641  0.76082066  0.31448892  1
  Al  Al27  1  0.54658255  0.87153995  0.05641251  1
  Al  Al28  1  0.10961468  0.76343202  0.80652031  1
  Al  Al29  1  0.21415477  0.87706165  0.56668447  1
  Al  Al30  1  0.78380784  0.76128974  0.39271808  1
  Al  Al31  1  0.88942467  0.87558813  0.06106668  1
  Al  Al32  1  0.55090321  0.87550611  0.57608685  1
  B  B33  1  0.89426195  0.19972791  0.55576738  1
  B  B34  1  0.90043863  0.88206460  0.55601759  1
  B  B35  1  0.44176796  0.76234195  0.80686982  1
  N  N36  1  0.22561006  0.20231206  0.37017062  1
  N  N37  1  0.11012881  0.09295826  0.12355091  1
  N  N38  1  0.88726834  0.20369783  0.87438851  1
  N  N39  1  0.80158779  0.08198858  0.60732401  1
  N  N40  1  0.55569659  0.20518145  0.37148205  1
  N  N41  1  0.44462644  0.09283401  0.11873825  1
  N  N42  1  0.21897224  0.20558698  0.87141967  1
  N  N43  1  0.08608744  0.10806826  0.61475621  1
  N  N44  1  0.89314295  0.20302946  0.39301249  1
  N  N45  1  0.77961637  0.09316371  0.13060195  1
  N  N46  1  0.55896973  0.20301948  0.86843953  1
  N  N47  1  0.44036755  0.09871824  0.62322486  1
  N  N48  1  0.22535622  0.53990026  0.37045663  1
  N  N49  1  0.11398804  0.42715236  0.12190481  1
  N  N50  1  0.88523034  0.53774023  0.81788951  1
  N  N51  1  0.78750496  0.39531491  0.61213161  1
  N  N52  1  0.55340539  0.54063797  0.37731940  1
  N  N53  1  0.44526767  0.42846050  0.11804722  1
  N  N54  1  0.21954132  0.54193852  0.87028582  1
  N  N55  1  0.11838221  0.42501469  0.61671192  1
  N  N56  1  0.88921095  0.54251293  0.33766593  1
  N  N57  1  0.77306821  0.42425715  0.12793158  1
  N  N58  1  0.54354401  0.56261207  0.86364256  1
  N  N59  1  0.44190956  0.42755043  0.62243991  1
  N  N60  1  0.22696226  0.87072988  0.37644849  1
  N  N61  1  0.11024830  0.76358283  0.12308997  1
  N  N62  1  0.89107393  0.87645573  0.86951538  1
  N  N63  1  0.78823491  0.77554877  0.59091420  1
  N  N64  1  0.55267539  0.87256457  0.38006159  1
  N  N65  1  0.44283065  0.76112371  0.12484465  1
  N  N66  1  0.24338491  0.86122774  0.86049733  1
  N  N67  1  0.08725287  0.77494334  0.61425555  1
  N  N68  1  0.89925130  0.87685916  0.39300038  1
  N  N69  1  0.77453329  0.76149188  0.07307389  1
  N  N70  1  0.53547130  0.86228868  0.85969112  1
  N  N71  1  0.44240364  0.75931916  0.64216172  1
