# generated using pymatgen
data_Al11BN12
_symmetry_space_group_name_H-M   'P 1'
_cell_length_a   9.30084645
_cell_length_b   9.33503221
_cell_length_c   10.15166108
_cell_angle_alpha   90.03730714
_cell_angle_beta   90.39805205
_cell_angle_gamma   59.53464363
_symmetry_Int_Tables_number   1
_chemical_formula_structural   Al11BN12
_chemical_formula_sum   'Al33 B3 N36'
_cell_volume   759.69186596
_cell_formula_units_Z   3
loop_
 _symmetry_equiv_pos_site_id
 _symmetry_equiv_pos_as_xyz
  1  'x, y, z'
loop_
 _atom_site_type_symbol
 _atom_site_label
 _atom_site_symmetry_multiplicity
 _atom_site_fract_x
 _atom_site_fract_y
 _atom_site_fract_z
 _atom_site_occupancy
  Al  Al0  1  0.11987226  0.08759438  0.32107506  1
  Al  Al1  1  0.22057939  0.20775611  0.07188129  1
  Al  Al2  1  0.77790187  0.08739475  0.81237085  1
  Al  Al3  1  0.44873379  0.08990031  0.32165940  1
  Al  Al4  1  0.55532252  0.20586115  0.06792322  1
  Al  Al5  1  0.12249284  0.08843445  0.82292603  1
  Al  Al6  1  0.21815876  0.20950513  0.56746657  1
  Al  Al7  1  0.77484817  0.09020224  0.31961264  1
  Al  Al8  1  0.88398247  0.21376213  0.13949393  1
  Al  Al9  1  0.44327063  0.09052562  0.82062910  1
  Al  Al10  1  0.56143359  0.19302909  0.57243904  1
  Al  Al11  1  0.11870851  0.42532300  0.32187232  1
  Al  Al12  1  0.22277031  0.53851211  0.07117503  1
  Al  Al13  1  0.77562983  0.43807487  0.88442561  1
  Al  Al14  1  0.88900691  0.54545763  0.64200165  1
  Al  Al15  1  0.44979369  0.42639059  0.32474140  1
  Al  Al16  1  0.54505842  0.54698785  0.06759478  1
  Al  Al17  1  0.12001634  0.42511494  0.82186287  1
  Al  Al18  1  0.21739899  0.54309111  0.57049645  1
  Al  Al19  1  0.79148393  0.41447149  0.40140611  1
  Al  Al20  1  0.87770911  0.54356396  0.14459504  1
  Al  Al21  1  0.44395980  0.43259081  0.82038294  1
  Al  Al22  1  0.55159126  0.53873169  0.58536311  1
  Al  Al23  1  0.11425008  0.75991896  0.31749616  1
  Al  Al24  1  0.22755214  0.86893548  0.06585158  1
  Al  Al25  1  0.77811651  0.75973551  0.89224643  1
  Al  Al26  1  0.44789251  0.75695292  0.32829098  1
  Al  Al27  1  0.54349292  0.87346833  0.07015714  1
  Al  Al28  1  0.10945542  0.76277103  0.82510018  1
  Al  Al29  1  0.20060951  0.88314808  0.57738604  1
  Al  Al30  1  0.78602186  0.75924988  0.39175103  1
  Al  Al31  1  0.89043038  0.87352719  0.09384223  1
  Al  Al32  1  0.54926085  0.87479514  0.58136451  1
  B  B33  1  0.91138201  0.23928362  0.66414154  1
  B  B34  1  0.88224301  0.86815056  0.61102109  1
  B  B35  1  0.44112681  0.76290426  0.81873961  1
  N  N36  1  0.22375725  0.20398825  0.38116486  1
  N  N37  1  0.11875173  0.08885972  0.12677847  1
  N  N38  1  0.88144402  0.22185082  0.80972885  1
  N  N39  1  0.78088190  0.04708581  0.63005996  1
  N  N40  1  0.55574647  0.20363154  0.38457916  1
  N  N41  1  0.44544714  0.09361541  0.13173153  1
  N  N42  1  0.22113695  0.20698280  0.88442826  1
  N  N43  1  0.09172141  0.11374845  0.63138808  1
  N  N44  1  0.88853853  0.20799373  0.32967898  1
  N  N45  1  0.77102545  0.10029874  0.12687399  1
  N  N46  1  0.55525287  0.20611859  0.87878279  1
  N  N47  1  0.43667926  0.09538678  0.63426249  1
  N  N48  1  0.22463758  0.53906704  0.38354434  1
  N  N49  1  0.11451990  0.42752540  0.13243182  1
  N  N50  1  0.88526061  0.54562785  0.82766158  1
  N  N51  1  0.80107552  0.40303680  0.59377342  1
  N  N52  1  0.55526101  0.53887286  0.39537286  1
  N  N53  1  0.44731113  0.42750265  0.13318036  1
  N  N54  1  0.22307119  0.53946499  0.88262394  1
  N  N55  1  0.12002013  0.42485394  0.63136755  1
  N  N56  1  0.88293799  0.53802006  0.33593328  1
  N  N57  1  0.78120861  0.42653352  0.07131994  1
  N  N58  1  0.53532853  0.56989384  0.87314497  1
  N  N59  1  0.44616942  0.42272346  0.63397078  1
  N  N60  1  0.22252147  0.87029937  0.39019844  1
  N  N61  1  0.12291439  0.75767633  0.12835608  1
  N  N62  1  0.89376953  0.87845030  0.89182779  1
  N  N63  1  0.79457444  0.76665781  0.58639617  1
  N  N64  1  0.54994439  0.87223007  0.39103704  1
  N  N65  1  0.44495827  0.75937743  0.14016575  1
  N  N66  1  0.24393806  0.86091825  0.87242486  1
  N  N67  1  0.07864878  0.77412209  0.63221153  1
  N  N68  1  0.88888446  0.86584299  0.33313210  1
  N  N69  1  0.77454849  0.75699543  0.08089670  1
  N  N70  1  0.53562286  0.86284198  0.87442310  1
  N  N71  1  0.43753458  0.76346254  0.65432987  1
