# generated using pymatgen
data_Al11BN12
_symmetry_space_group_name_H-M   'P 1'
_cell_length_a   9.24810561
_cell_length_b   9.29866718
_cell_length_c   9.90378150
_cell_angle_alpha   90.24853646
_cell_angle_beta   89.85457899
_cell_angle_gamma   60.07326015
_symmetry_Int_Tables_number   1
_chemical_formula_structural   Al11BN12
_chemical_formula_sum   'Al33 B3 N36'
_cell_volume   738.09934256
_cell_formula_units_Z   3
loop_
 _symmetry_equiv_pos_site_id
 _symmetry_equiv_pos_as_xyz
  1  'x, y, z'
loop_
 _atom_site_type_symbol
 _atom_site_label
 _atom_site_symmetry_multiplicity
 _atom_site_fract_x
 _atom_site_fract_y
 _atom_site_fract_z
 _atom_site_occupancy
  Al  Al0  1  0.10454501  0.09737467  0.39928167  1
  Al  Al1  1  0.22157191  0.20378408  0.14529137  1
  Al  Al2  1  0.78105795  0.09107472  0.87844189  1
  Al  Al3  1  0.44583931  0.09434963  0.39525302  1
  Al  Al4  1  0.55911446  0.20397897  0.14301480  1
  Al  Al5  1  0.11392615  0.09129853  0.88775710  1
  Al  Al6  1  0.21806584  0.20601415  0.64516155  1
  Al  Al7  1  0.78117853  0.09855503  0.40438738  1
  Al  Al8  1  0.88848442  0.20470252  0.14069018  1
  Al  Al9  1  0.44290448  0.09052090  0.89551780  1
  Al  Al10  1  0.56184933  0.20808943  0.64429168  1
  Al  Al11  1  0.11075258  0.42753113  0.39438657  1
  Al  Al12  1  0.22141718  0.54064189  0.14564281  1
  Al  Al13  1  0.77417027  0.43016330  0.88887996  1
  Al  Al14  1  0.89246075  0.53360146  0.64653307  1
  Al  Al15  1  0.44435056  0.42946268  0.39490590  1
  Al  Al16  1  0.55558501  0.54096570  0.14083540  1
  Al  Al17  1  0.11127612  0.42635946  0.89791155  1
  Al  Al18  1  0.21882821  0.53831098  0.64697961  1
  Al  Al19  1  0.77852992  0.42438519  0.39948606  1
  Al  Al20  1  0.88675652  0.53948713  0.14595588  1
  Al  Al21  1  0.44381442  0.43209519  0.89571795  1
  Al  Al22  1  0.55464300  0.54213549  0.64728222  1
  Al  Al23  1  0.10363328  0.76510261  0.39952310  1
  Al  Al24  1  0.22288452  0.87219595  0.13999602  1
  Al  Al25  1  0.77325950  0.75774037  0.89246492  1
  Al  Al26  1  0.44423143  0.76177761  0.39337488  1
  Al  Al27  1  0.55547074  0.87067074  0.14190057  1
  Al  Al28  1  0.11758823  0.75824239  0.89102143  1
  Al  Al29  1  0.21454261  0.87618274  0.64625379  1
  Al  Al30  1  0.78014878  0.76547490  0.39948965  1
  Al  Al31  1  0.88794926  0.87491008  0.14384107  1
  Al  Al32  1  0.55576181  0.87304119  0.64886175  1
  B  B33  1  0.88632308  0.20298344  0.64878601  1
  B  B34  1  0.90704100  0.83661022  0.65979114  1
  B  B35  1  0.44372332  0.76096884  0.89141840  1
  N  N36  1  0.22154874  0.20365715  0.33797186  1
  N  N37  1  0.11060689  0.09384133  0.07990110  1
  N  N38  1  0.88911697  0.20604546  0.81465027  1
  N  N39  1  0.78824874  0.11661717  0.59413429  1
  N  N40  1  0.55805258  0.20565843  0.33703506  1
  N  N41  1  0.44529634  0.09352032  0.08671226  1
  N  N42  1  0.22225853  0.20614208  0.83543675  1
  N  N43  1  0.08621917  0.10591159  0.59419795  1
  N  N44  1  0.88817767  0.20742534  0.33064977  1
  N  N45  1  0.78087378  0.09168831  0.07385710  1
  N  N46  1  0.55363099  0.20599021  0.83541030  1
  N  N47  1  0.44670525  0.09410923  0.58767914  1
  N  N48  1  0.21966733  0.54278170  0.33808206  1
  N  N49  1  0.11119886  0.42687542  0.08928440  1
  N  N50  1  0.89054192  0.53697618  0.83596391  1
  N  N51  1  0.78565415  0.41147346  0.59408666  1
  N  N52  1  0.55660569  0.53987975  0.33440468  1
  N  N53  1  0.44496972  0.42720257  0.08667228  1
  N  N54  1  0.22236784  0.53642451  0.83685471  1
  N  N55  1  0.11226111  0.42566272  0.58483756  1
  N  N56  1  0.88563598  0.54201199  0.33999349  1
  N  N57  1  0.77888763  0.42587870  0.08089801  1
  N  N58  1  0.54124064  0.56574548  0.84096668  1
  N  N59  1  0.44044324  0.43387754  0.58708626  1
  N  N60  1  0.21938161  0.87329941  0.33812551  1
  N  N61  1  0.10997313  0.76136870  0.08206659  1
  N  N62  1  0.89214714  0.86357671  0.81492170  1
  N  N63  1  0.79279408  0.77110817  0.59731043  1
  N  N64  1  0.55785834  0.87127441  0.33610111  1
  N  N65  1  0.44453746  0.76098269  0.07050176  1
  N  N66  1  0.24741074  0.85884991  0.83871017  1
  N  N67  1  0.08478881  0.76964222  0.59707919  1
  N  N68  1  0.88557860  0.87851655  0.33531155  1
  N  N69  1  0.77947493  0.76101586  0.08337243  1
  N  N70  1  0.54207253  0.85906227  0.84146055  1
  N  N71  1  0.44283514  0.76376584  0.58275153  1
