# generated using pymatgen
data_Al11BN12
_symmetry_space_group_name_H-M   'P 1'
_cell_length_a   9.29308851
_cell_length_b   9.30460752
_cell_length_c   10.07560205
_cell_angle_alpha   90.02689793
_cell_angle_beta   90.65764095
_cell_angle_gamma   59.96757708
_symmetry_Int_Tables_number   1
_chemical_formula_structural   Al11BN12
_chemical_formula_sum   'Al33 B3 N36'
_cell_volume   754.19060033
_cell_formula_units_Z   3
loop_
 _symmetry_equiv_pos_site_id
 _symmetry_equiv_pos_as_xyz
  1  'x, y, z'
loop_
 _atom_site_type_symbol
 _atom_site_label
 _atom_site_symmetry_multiplicity
 _atom_site_fract_x
 _atom_site_fract_y
 _atom_site_fract_z
 _atom_site_occupancy
  Al  Al0  1  0.11105485  0.09146361  0.35922545  1
  Al  Al1  1  0.22497080  0.19931140  0.07413187  1
  Al  Al2  1  0.77896700  0.09450369  0.87962480  1
  Al  Al3  1  0.45054105  0.09028991  0.32643514  1
  Al  Al4  1  0.55195578  0.20729174  0.07081104  1
  Al  Al5  1  0.11357495  0.09106180  0.83891190  1
  Al  Al6  1  0.21850168  0.20405001  0.58031381  1
  Al  Al7  1  0.79222812  0.08530983  0.40364783  1
  Al  Al8  1  0.88731964  0.20465031  0.13790124  1
  Al  Al9  1  0.44077710  0.09203463  0.82168683  1
  Al  Al10  1  0.55733224  0.20531901  0.58264147  1
  Al  Al11  1  0.10716849  0.42994110  0.38621065  1
  Al  Al12  1  0.22521828  0.54265609  0.07704694  1
  Al  Al13  1  0.77583770  0.43009213  0.88093948  1
  Al  Al14  1  0.89195781  0.53778395  0.64310652  1
  Al  Al15  1  0.45130124  0.42436406  0.32631500  1
  Al  Al16  1  0.54919829  0.54580379  0.06893645  1
  Al  Al17  1  0.10289720  0.43397089  0.89158065  1
  Al  Al18  1  0.21739643  0.54947789  0.57211510  1
  Al  Al19  1  0.78553538  0.41876821  0.39937293  1
  Al  Al20  1  0.88480130  0.54034072  0.14140972  1
  Al  Al21  1  0.43808904  0.43636955  0.82247319  1
  Al  Al22  1  0.55469829  0.53769060  0.58545108  1
  Al  Al23  1  0.11904111  0.75936675  0.32140110  1
  Al  Al24  1  0.22760863  0.86712217  0.06491208  1
  Al  Al25  1  0.77448064  0.76121130  0.88088293  1
  Al  Al26  1  0.44817465  0.75936067  0.32767695  1
  Al  Al27  1  0.54780383  0.87150263  0.06873632  1
  Al  Al28  1  0.11490323  0.76008646  0.81881945  1
  Al  Al29  1  0.21339198  0.87471082  0.58434708  1
  Al  Al30  1  0.78714088  0.76206161  0.40006225  1
  Al  Al31  1  0.88151379  0.87667418  0.13909564  1
  Al  Al32  1  0.55451049  0.87419497  0.58517286  1
  B  B33  1  0.89226483  0.19950229  0.65203800  1
  B  B34  1  0.88817600  0.87729622  0.65289540  1
  B  B35  1  0.44253852  0.76111305  0.81869153  1
  N  N36  1  0.22790940  0.19891536  0.38328274  1
  N  N37  1  0.11053405  0.08996862  0.09981954  1
  N  N38  1  0.87942029  0.21024351  0.81143146  1
  N  N39  1  0.80449104  0.08011399  0.59762652  1
  N  N40  1  0.55689395  0.20456572  0.39076066  1
  N  N41  1  0.44907854  0.09070215  0.13531096  1
  N  N42  1  0.22287456  0.20561636  0.87826740  1
  N  N43  1  0.08887030  0.10484012  0.62208089  1
  N  N44  1  0.88466464  0.20535229  0.32858565  1
  N  N45  1  0.78545793  0.09024817  0.07100803  1
  N  N46  1  0.54414070  0.21240733  0.87964437  1
  N  N47  1  0.44264799  0.09578886  0.63626603  1
  N  N48  1  0.22721597  0.54106889  0.38017570  1
  N  N49  1  0.10707046  0.42991876  0.08974172  1
  N  N50  1  0.88615861  0.54057460  0.82778823  1
  N  N51  1  0.79512210  0.39727147  0.59214006  1
  N  N52  1  0.55272587  0.54186759  0.39281382  1
  N  N53  1  0.45007727  0.42592121  0.13552433  1
  N  N54  1  0.22054522  0.54607747  0.88486419  1
  N  N55  1  0.10586696  0.43243359  0.58324171  1
  N  N56  1  0.88281561  0.54166825  0.33282208  1
  N  N57  1  0.78223060  0.42363657  0.07343473  1
  N  N58  1  0.53647721  0.56809584  0.87414387  1
  N  N59  1  0.43970683  0.43055145  0.63624239  1
  N  N60  1  0.22661818  0.86692688  0.39326453  1
  N  N61  1  0.11724869  0.76140139  0.13085965  1
  N  N62  1  0.87656844  0.87865997  0.81306948  1
  N  N63  1  0.79481166  0.77501373  0.59285322  1
  N  N64  1  0.55318258  0.87137513  0.39298831  1
  N  N65  1  0.44591942  0.75984050  0.13925440  1
  N  N66  1  0.24564831  0.85748691  0.87112285  1
  N  N67  1  0.09062679  0.77124562  0.63088559  1
  N  N68  1  0.88459706  0.87543511  0.32850706  1
  N  N69  1  0.78194740  0.75979445  0.07282590  1
  N  N70  1  0.53482717  0.86256793  0.87444745  1
  N  N71  1  0.44401353  0.76115642  0.65535035  1
