# generated using pymatgen
data_Al11BN12
_symmetry_space_group_name_H-M   'P 1'
_cell_length_a   9.28371760
_cell_length_b   9.27064183
_cell_length_c   10.03095040
_cell_angle_alpha   89.99427373
_cell_angle_beta   90.39532982
_cell_angle_gamma   60.04746769
_symmetry_Int_Tables_number   1
_chemical_formula_structural   Al11BN12
_chemical_formula_sum   'Al33 B3 N36'
_cell_volume   747.99379774
_cell_formula_units_Z   3
loop_
 _symmetry_equiv_pos_site_id
 _symmetry_equiv_pos_as_xyz
  1  'x, y, z'
loop_
 _atom_site_type_symbol
 _atom_site_label
 _atom_site_symmetry_multiplicity
 _atom_site_fract_x
 _atom_site_fract_y
 _atom_site_fract_z
 _atom_site_occupancy
  Al  Al0  1  0.11441518  0.09039645  0.31481181  1
  Al  Al1  1  0.21837390  0.20724170  0.06101400  1
  Al  Al2  1  0.78308019  0.09155292  0.79946286  1
  Al  Al3  1  0.44758352  0.09136309  0.31163375  1
  Al  Al4  1  0.55787496  0.20438913  0.06185080  1
  Al  Al5  1  0.10866254  0.09438466  0.80518351  1
  Al  Al6  1  0.21670758  0.20762426  0.55921853  1
  Al  Al7  1  0.78143714  0.09278704  0.32137046  1
  Al  Al8  1  0.89001268  0.19972916  0.06114834  1
  Al  Al9  1  0.44205757  0.09142542  0.81136255  1
  Al  Al10  1  0.56233374  0.20221490  0.56077637  1
  Al  Al11  1  0.11910615  0.42385458  0.31109544  1
  Al  Al12  1  0.21845763  0.54096206  0.06103155  1
  Al  Al13  1  0.77431195  0.43359419  0.87190874  1
  Al  Al14  1  0.88501985  0.54115276  0.63161826  1
  Al  Al15  1  0.44770706  0.42788602  0.31160768  1
  Al  Al16  1  0.54350838  0.54880501  0.05790321  1
  Al  Al17  1  0.11802384  0.42423111  0.81134445  1
  Al  Al18  1  0.21676186  0.54234934  0.55915383  1
  Al  Al19  1  0.78494620  0.42389590  0.39033834  1
  Al  Al20  1  0.87641851  0.54497303  0.13280094  1
  Al  Al21  1  0.44196963  0.43292652  0.81130914  1
  Al  Al22  1  0.55287094  0.53821522  0.57396127  1
  Al  Al23  1  0.11453821  0.76196714  0.31477377  1
  Al  Al24  1  0.22311647  0.87172222  0.05619121  1
  Al  Al25  1  0.77431575  0.75838715  0.87295022  1
  Al  Al26  1  0.44819070  0.75924609  0.31470850  1
  Al  Al27  1  0.54329059  0.87441882  0.05829322  1
  Al  Al28  1  0.10858429  0.76338444  0.80518891  1
  Al  Al29  1  0.21491776  0.87589457  0.56495775  1
  Al  Al30  1  0.78494653  0.75810034  0.38976308  1
  Al  Al31  1  0.89004945  0.87694904  0.06144210  1
  Al  Al32  1  0.55301548  0.87569154  0.57366278  1
  B  B33  1  0.90078443  0.18953016  0.55382087  1
  B  B34  1  0.90071291  0.87620298  0.55362031  1
  B  B35  1  0.43980483  0.76339113  0.80779027  1
  N  N36  1  0.22465368  0.20371626  0.37066507  1
  N  N37  1  0.11031085  0.09299143  0.12351054  1
  N  N38  1  0.89104978  0.19851051  0.87028660  1
  N  N39  1  0.80278966  0.08195446  0.60586725  1
  N  N40  1  0.55677559  0.20502918  0.37174033  1
  N  N41  1  0.44335152  0.09460662  0.12013076  1
  N  N42  1  0.22011961  0.20432131  0.87100824  1
  N  N43  1  0.08770800  0.10585791  0.61350980  1
  N  N44  1  0.90011648  0.19209160  0.39082149  1
  N  N45  1  0.77861145  0.09409298  0.13068324  1
  N  N46  1  0.55943413  0.20349011  0.86889423  1
  N  N47  1  0.44175526  0.09820165  0.62304668  1
  N  N48  1  0.22472782  0.53840008  0.37060417  1
  N  N49  1  0.11174005  0.42744790  0.12005775  1
  N  N50  1  0.88580995  0.54048882  0.82013961  1
  N  N51  1  0.79143896  0.40319430  0.58401995  1
  N  N52  1  0.55283518  0.54092334  0.37903745  1
  N  N53  1  0.44348089  0.42870325  0.12006014  1
  N  N54  1  0.22012797  0.54199495  0.87103806  1
  N  N55  1  0.11649032  0.42512637  0.61951423  1
  N  N56  1  0.88474581  0.54096677  0.32593308  1
  N  N57  1  0.77402809  0.43087388  0.07082625  1
  N  N58  1  0.53503814  0.56885947  0.86242322  1
  N  N59  1  0.44170768  0.42673587  0.62303676  1
  N  N60  1  0.22865709  0.86910201  0.37636449  1
  N  N61  1  0.11039073  0.76325937  0.12353058  1
  N  N62  1  0.89103543  0.87674023  0.87053821  1
  N  N63  1  0.79159765  0.77234336  0.58342732  1
  N  N64  1  0.55281014  0.87307040  0.37876562  1
  N  N65  1  0.44022543  0.76308220  0.12653777  1
  N  N66  1  0.24172074  0.86234480  0.86019425  1
  N  N67  1  0.08771325  0.77307127  0.61345548  1
  N  N68  1  0.90019323  0.87469293  0.39053471  1
  N  N69  1  0.77391479  0.76181989  0.07139433  1
  N  N70  1  0.53506595  0.86251876  0.86279013  1
  N  N71  1  0.44151327  0.76272673  0.64297263  1
