# generated using pymatgen
data_Al11BN12
_symmetry_space_group_name_H-M   'P 1'
_cell_length_a   9.28008686
_cell_length_b   9.28930114
_cell_length_c   10.10378585
_cell_angle_alpha   90.01336072
_cell_angle_beta   90.66377802
_cell_angle_gamma   59.96869514
_symmetry_Int_Tables_number   1
_chemical_formula_structural   Al11BN12
_chemical_formula_sum   'Al33 B3 N36'
_cell_volume   754.00572990
_cell_formula_units_Z   3
loop_
 _symmetry_equiv_pos_site_id
 _symmetry_equiv_pos_as_xyz
  1  'x, y, z'
loop_
 _atom_site_type_symbol
 _atom_site_label
 _atom_site_symmetry_multiplicity
 _atom_site_fract_x
 _atom_site_fract_y
 _atom_site_fract_z
 _atom_site_occupancy
  Al  Al0  1  0.11811037  0.08804758  0.32556852  1
  Al  Al1  1  0.22495933  0.19848370  0.07552512  1
  Al  Al2  1  0.77856582  0.09428314  0.87969216  1
  Al  Al3  1  0.45110342  0.09046344  0.32687762  1
  Al  Al4  1  0.55180415  0.20727555  0.07072372  1
  Al  Al5  1  0.11548152  0.09046483  0.82116638  1
  Al  Al6  1  0.21751154  0.20162933  0.57496935  1
  Al  Al7  1  0.79410843  0.08556289  0.40444741  1
  Al  Al8  1  0.88272130  0.20730540  0.13935833  1
  Al  Al9  1  0.43901528  0.09249343  0.82221531  1
  Al  Al10  1  0.55686611  0.20523572  0.58262427  1
  Al  Al11  1  0.10737729  0.42939839  0.38614402  1
  Al  Al12  1  0.22529314  0.54281790  0.07684619  1
  Al  Al13  1  0.77537363  0.43058263  0.88095559  1
  Al  Al14  1  0.89255835  0.53737282  0.64333478  1
  Al  Al15  1  0.45183084  0.42411654  0.32667666  1
  Al  Al16  1  0.54880077  0.54623945  0.06874648  1
  Al  Al17  1  0.10282493  0.43279221  0.89266293  1
  Al  Al18  1  0.21733771  0.54921833  0.57219913  1
  Al  Al19  1  0.78695738  0.41719081  0.40034305  1
  Al  Al20  1  0.88490158  0.54057547  0.14194985  1
  Al  Al21  1  0.43789994  0.43640801  0.82232724  1
  Al  Al22  1  0.55433004  0.53806718  0.58558750  1
  Al  Al23  1  0.11935417  0.75933807  0.32145493  1
  Al  Al24  1  0.22682431  0.86925206  0.06607712  1
  Al  Al25  1  0.77471447  0.76109198  0.88091319  1
  Al  Al26  1  0.44855188  0.75887422  0.32806126  1
  Al  Al27  1  0.54816802  0.87139420  0.06879171  1
  Al  Al28  1  0.11505261  0.76071452  0.81893464  1
  Al  Al29  1  0.21140622  0.87740399  0.57977686  1
  Al  Al30  1  0.78726664  0.76206645  0.40043249  1
  Al  Al31  1  0.88158188  0.87646627  0.13961769  1
  Al  Al32  1  0.55403326  0.87443811  0.58537461  1
  B  B33  1  0.88990022  0.20047846  0.65325153  1
  B  B34  1  0.88843672  0.87728212  0.65309979  1
  B  B35  1  0.44223356  0.76197748  0.81940860  1
  N  N36  1  0.22739863  0.19773988  0.38250183  1
  N  N37  1  0.11667684  0.08739288  0.12816427  1
  N  N38  1  0.87727663  0.21135014  0.81287419  1
  N  N39  1  0.80492276  0.08063252  0.59817374  1
  N  N40  1  0.55750652  0.20425979  0.39154699  1
  N  N41  1  0.44978828  0.09043507  0.13580754  1
  N  N42  1  0.22067292  0.20231968  0.88305599  1
  N  N43  1  0.09152241  0.10355143  0.63128190  1
  N  N44  1  0.88405661  0.20593431  0.32865461  1
  N  N45  1  0.78633731  0.08983546  0.07023246  1
  N  N46  1  0.54309681  0.21233816  0.88023994  1
  N  N47  1  0.44086237  0.09646762  0.63691058  1
  N  N48  1  0.22746322  0.54101455  0.38053747  1
  N  N49  1  0.10719568  0.42965786  0.08986692  1
  N  N50  1  0.88645867  0.54031973  0.82762333  1
  N  N51  1  0.79544222  0.39658066  0.59279778  1
  N  N52  1  0.55315709  0.54170138  0.39364101  1
  N  N53  1  0.45044138  0.42579296  0.13592284  1
  N  N54  1  0.22024845  0.54585241  0.88492251  1
  N  N55  1  0.10627940  0.43105390  0.58267491  1
  N  N56  1  0.88276674  0.54168475  0.33273349  1
  N  N57  1  0.78266971  0.42377567  0.07259946  1
  N  N58  1  0.53544387  0.56907054  0.87455946  1
  N  N59  1  0.43976766  0.43041543  0.63671086  1
  N  N60  1  0.22523799  0.86991968  0.39122465  1
  N  N61  1  0.11730344  0.76173530  0.13085340  1
  N  N62  1  0.87649642  0.87857719  0.81280241  1
  N  N63  1  0.79490417  0.77508574  0.59286957  1
  N  N64  1  0.55324050  0.87136693  0.39353447  1
  N  N65  1  0.44632166  0.75975981  0.13952108  1
  N  N66  1  0.24255511  0.86143540  0.87401884  1
  N  N67  1  0.09106251  0.77176223  0.63097115  1
  N  N68  1  0.88454398  0.87558958  0.32848897  1
  N  N69  1  0.78228118  0.75969785  0.07249380  1
  N  N70  1  0.53476108  0.86252118  0.87472972  1
  N  N71  1  0.44245957  0.76206996  0.65578839  1
