# generated using pymatgen
data_Al11BN12
_symmetry_space_group_name_H-M   'P 1'
_cell_length_a   9.25919065
_cell_length_b   9.25702957
_cell_length_c   9.89671677
_cell_angle_alpha   90.00012875
_cell_angle_beta   90.07527692
_cell_angle_gamma   60.00759635
_symmetry_Int_Tables_number   1
_chemical_formula_structural   Al11BN12
_chemical_formula_sum   'Al33 B3 N36'
_cell_volume   734.68164543
_cell_formula_units_Z   3
loop_
 _symmetry_equiv_pos_site_id
 _symmetry_equiv_pos_as_xyz
  1  'x, y, z'
loop_
 _atom_site_type_symbol
 _atom_site_label
 _atom_site_symmetry_multiplicity
 _atom_site_fract_x
 _atom_site_fract_y
 _atom_site_fract_z
 _atom_site_occupancy
  Al  Al0  1  0.11058201  0.09318712  0.30985366  1
  Al  Al1  1  0.22133363  0.20456415  0.05446774  1
  Al  Al2  1  0.78279464  0.09193591  0.79518115  1
  Al  Al3  1  0.44520975  0.09308119  0.30415521  1
  Al  Al4  1  0.55949922  0.20358352  0.05500211  1
  Al  Al5  1  0.10951367  0.09407759  0.80018835  1
  Al  Al6  1  0.21641277  0.20755399  0.55333702  1
  Al  Al7  1  0.78061416  0.09302622  0.31864175  1
  Al  Al8  1  0.88824085  0.20417632  0.05662509  1
  Al  Al9  1  0.44258852  0.09092514  0.80431766  1
  Al  Al10  1  0.56079781  0.20293410  0.55483384  1
  Al  Al11  1  0.11078848  0.42793866  0.30335535  1
  Al  Al12  1  0.22133385  0.54076791  0.05446777  1
  Al  Al13  1  0.77665773  0.42677693  0.80021619  1
  Al  Al14  1  0.89028971  0.53818794  0.55467210  1
  Al  Al15  1  0.44520977  0.42837529  0.30415532  1
  Al  Al16  1  0.55470102  0.54321997  0.05021957  1
  Al  Al17  1  0.11017731  0.42824443  0.80448949  1
  Al  Al18  1  0.21641249  0.54269973  0.55333688  1
  Al  Al19  1  0.77792909  0.42564881  0.31153725  1
  Al  Al20  1  0.88682583  0.53991990  0.05491508  1
  Al  Al21  1  0.44258849  0.43315307  0.80431746  1
  Al  Al22  1  0.55780292  0.53544228  0.55989089  1
  Al  Al23  1  0.11058210  0.76289700  0.30985367  1
  Al  Al24  1  0.22593930  0.87036309  0.04996330  1
  Al  Al25  1  0.77665750  0.76323141  0.80021628  1
  Al  Al26  1  0.44493159  0.76086756  0.30607259  1
  Al  Al27  1  0.55470119  0.86874496  0.05021963  1
  Al  Al28  1  0.10951345  0.76307517  0.80018831  1
  Al  Al29  1  0.21413741  0.87626464  0.56009473  1
  Al  Al30  1  0.77792932  0.76308820  0.31153733  1
  Al  Al31  1  0.88824079  0.87424928  0.05662511  1
  Al  Al32  1  0.55780320  0.87342082  0.55989099  1
  B  B33  1  0.89502261  0.19850390  0.54872163  1
  B  B34  1  0.89502265  0.87314065  0.54872162  1
  B  B35  1  0.44577982  0.76044322  0.79905573  1
  N  N36  1  0.22240122  0.20567376  0.36244958  1
  N  N37  1  0.11083136  0.09240325  0.11605499  1
  N  N38  1  0.88778442  0.20457306  0.86610063  1
  N  N39  1  0.79987410  0.08339599  0.60000147  1
  N  N40  1  0.55431459  0.20617567  0.36416915  1
  N  N41  1  0.44594207  0.09227014  0.11070784  1
  N  N42  1  0.22008995  0.20504094  0.86261525  1
  N  N43  1  0.08561606  0.10746113  0.60677911  1
  N  N44  1  0.89126751  0.20464718  0.38527427  1
  N  N45  1  0.77988102  0.09339301  0.12425766  1
  N  N46  1  0.55902044  0.20382309  0.86060850  1
  N  N47  1  0.44128891  0.09675231  0.61388411  1
  N  N48  1  0.22240110  0.53859091  0.36244944  1
  N  N49  1  0.11058087  0.42804278  0.11198825  1
  N  N50  1  0.88614869  0.54025856  0.86110470  1
  N  N51  1  0.78980945  0.40158170  0.60728061  1
  N  N52  1  0.55457624  0.54019350  0.36824762  1
  N  N53  1  0.44594207  0.42845444  0.11070800  1
  N  N54  1  0.22008998  0.54153518  0.86261519  1
  N  N55  1  0.11051401  0.42807636  0.61407475  1
  N  N56  1  0.88925244  0.53870671  0.36438026  1
  N  N57  1  0.77683228  0.42676498  0.11676986  1
  N  N58  1  0.54497187  0.56303022  0.85453997  1
  N  N59  1  0.44128883  0.42862549  0.61388390  1
  N  N60  1  0.22504651  0.87080979  0.36931536  1
  N  N61  1  0.11083138  0.76343169  0.11605500  1
  N  N62  1  0.88778418  0.87430883  0.86610063  1
  N  N63  1  0.78980941  0.77527485  0.60728071  1
  N  N64  1  0.55457642  0.87189639  0.36824766  1
  N  N65  1  0.44423324  0.76121668  0.11606309  1
  N  N66  1  0.24481254  0.86092679  0.85230554  1
  N  N67  1  0.08561610  0.77358966  0.60677903  1
  N  N68  1  0.89126756  0.87075159  0.38527420  1
  N  N69  1  0.77683250  0.76306922  0.11676982  1
  N  N70  1  0.54497170  0.85866409  0.85454004  1
  N  N71  1  0.44468948  0.76098849  0.63342394  1
