# generated using pymatgen
data_Al11BN12
_symmetry_space_group_name_H-M   'P 1'
_cell_length_a   9.27262838
_cell_length_b   9.28590772
_cell_length_c   10.03497694
_cell_angle_alpha   89.79284879
_cell_angle_beta   90.35476763
_cell_angle_gamma   60.09719278
_symmetry_Int_Tables_number   1
_chemical_formula_structural   Al11BN12
_chemical_formula_sum   'Al33 B3 N36'
_cell_volume   748.99243017
_cell_formula_units_Z   3
loop_
 _symmetry_equiv_pos_site_id
 _symmetry_equiv_pos_as_xyz
  1  'x, y, z'
loop_
 _atom_site_type_symbol
 _atom_site_label
 _atom_site_symmetry_multiplicity
 _atom_site_fract_x
 _atom_site_fract_y
 _atom_site_fract_z
 _atom_site_occupancy
  Al  Al0  1  0.11353913  0.09068870  0.32662929  1
  Al  Al1  1  0.21894609  0.20660192  0.07226962  1
  Al  Al2  1  0.78229532  0.09482801  0.81046492  1
  Al  Al3  1  0.44722366  0.09174060  0.32322470  1
  Al  Al4  1  0.55799510  0.20462316  0.07368391  1
  Al  Al5  1  0.10855175  0.09476220  0.81665425  1
  Al  Al6  1  0.21734947  0.20666737  0.57100671  1
  Al  Al7  1  0.78170725  0.09176761  0.33440667  1
  Al  Al8  1  0.88996057  0.19981274  0.07366956  1
  Al  Al9  1  0.44293337  0.09183970  0.82259638  1
  Al  Al10  1  0.56261853  0.20497714  0.57269537  1
  Al  Al11  1  0.11929758  0.42296392  0.32180513  1
  Al  Al12  1  0.21858845  0.54082499  0.07197258  1
  Al  Al13  1  0.77455444  0.43421906  0.88454807  1
  Al  Al14  1  0.88618658  0.53964109  0.64296721  1
  Al  Al15  1  0.44801747  0.42742420  0.32270511  1
  Al  Al16  1  0.54305520  0.54942544  0.06945586  1
  Al  Al17  1  0.11877130  0.42381098  0.82307063  1
  Al  Al18  1  0.21803780  0.54031221  0.56997223  1
  Al  Al19  1  0.78445667  0.42380142  0.40111027  1
  Al  Al20  1  0.87709220  0.54422755  0.14305232  1
  Al  Al21  1  0.44182249  0.43413448  0.82284244  1
  Al  Al22  1  0.55238845  0.54014928  0.58487047  1
  Al  Al23  1  0.11520533  0.76074751  0.32489380  1
  Al  Al24  1  0.22273428  0.87205277  0.06692054  1
  Al  Al25  1  0.77441757  0.75867166  0.88463391  1
  Al  Al26  1  0.44676576  0.75969216  0.32576517  1
  Al  Al27  1  0.54324455  0.87470548  0.06958743  1
  Al  Al28  1  0.10740984  0.76362968  0.81610176  1
  Al  Al29  1  0.21297181  0.87676234  0.57622239  1
  Al  Al30  1  0.78358987  0.75645146  0.39707985  1
  Al  Al31  1  0.88968033  0.87775925  0.07216619  1
  Al  Al32  1  0.55384325  0.87619077  0.58423662  1
  B  B33  1  0.89753095  0.19077245  0.56654931  1
  B  B34  1  0.90503313  0.86147109  0.56149482  1
  B  B35  1  0.43961416  0.76406602  0.81874050  1
  N  N36  1  0.22440302  0.20343162  0.38234723  1
  N  N37  1  0.11081889  0.09242507  0.13521802  1
  N  N38  1  0.89150948  0.19958296  0.88314308  1
  N  N39  1  0.79871632  0.09350936  0.61869664  1
  N  N40  1  0.55648112  0.20503314  0.38338488  1
  N  N41  1  0.44388612  0.09409906  0.13179786  1
  N  N42  1  0.22086402  0.20391766  0.88237275  1
  N  N43  1  0.08710972  0.10596818  0.62527936  1
  N  N44  1  0.89906041  0.19265140  0.40211124  1
  N  N45  1  0.77895271  0.09328626  0.14308628  1
  N  N46  1  0.55878703  0.20504021  0.88099032  1
  N  N47  1  0.44379281  0.09797014  0.63423326  1
  N  N48  1  0.22469659  0.53757024  0.38139333  1
  N  N49  1  0.11246748  0.42645168  0.13072692  1
  N  N50  1  0.88604533  0.54125092  0.83161800  1
  N  N51  1  0.79070858  0.40653229  0.59419430  1
  N  N52  1  0.55188164  0.54156004  0.38983913  1
  N  N53  1  0.44361233  0.42859639  0.13141584  1
  N  N54  1  0.21965454  0.54268990  0.88228559  1
  N  N55  1  0.11774391  0.42351465  0.63133693  1
  N  N56  1  0.88475271  0.53995386  0.33546751  1
  N  N57  1  0.77376746  0.43082409  0.08259205  1
  N  N58  1  0.53495483  0.56987848  0.87399375  1
  N  N59  1  0.44104021  0.42889406  0.63462415  1
  N  N60  1  0.22728753  0.86921819  0.38766994  1
  N  N61  1  0.11047668  0.76280045  0.13398769  1
  N  N62  1  0.88952790  0.87876164  0.88088769  1
  N  N63  1  0.79453008  0.76943444  0.59178296  1
  N  N64  1  0.55181769  0.87316798  0.38966173  1
  N  N65  1  0.43990037  0.76331250  0.13761978  1
  N  N66  1  0.24108314  0.86250242  0.87075202  1
  N  N67  1  0.08752520  0.77030060  0.62380609  1
  N  N68  1  0.90070881  0.87163417  0.40102515  1
  N  N69  1  0.77433743  0.76158620  0.08273123  1
  N  N70  1  0.53517625  0.86298249  0.87393322  1
  N  N71  1  0.44109351  0.76412499  0.65389639  1
