# generated using pymatgen
data_Al11BN12
_symmetry_space_group_name_H-M   'P 1'
_cell_length_a   9.31105581
_cell_length_b   9.29717451
_cell_length_c   9.91086182
_cell_angle_alpha   90.24300885
_cell_angle_beta   90.27359074
_cell_angle_gamma   59.84753696
_symmetry_Int_Tables_number   1
_chemical_formula_structural   Al11BN12
_chemical_formula_sum   'Al33 B3 N36'
_cell_volume   741.85112809
_cell_formula_units_Z   3
loop_
 _symmetry_equiv_pos_site_id
 _symmetry_equiv_pos_as_xyz
  1  'x, y, z'
loop_
 _atom_site_type_symbol
 _atom_site_label
 _atom_site_symmetry_multiplicity
 _atom_site_fract_x
 _atom_site_fract_y
 _atom_site_fract_z
 _atom_site_occupancy
  Al  Al0  1  0.11186566  0.09242064  0.31699956  1
  Al  Al1  1  0.21920729  0.20630741  0.06319541  1
  Al  Al2  1  0.78267555  0.09216112  0.80265708  1
  Al  Al3  1  0.44867103  0.08952927  0.31093989  1
  Al  Al4  1  0.55904636  0.20286958  0.06288660  1
  Al  Al5  1  0.10865470  0.09494727  0.80845643  1
  Al  Al6  1  0.21770906  0.20598844  0.55981291  1
  Al  Al7  1  0.78105081  0.09356606  0.32281403  1
  Al  Al8  1  0.88763057  0.20506778  0.06491957  1
  Al  Al9  1  0.44005823  0.09341184  0.81302143  1
  Al  Al10  1  0.56093833  0.20197892  0.56233738  1
  Al  Al11  1  0.12053553  0.42334513  0.31668299  1
  Al  Al12  1  0.21992380  0.54090413  0.06220114  1
  Al  Al13  1  0.77213609  0.42323387  0.80864130  1
  Al  Al14  1  0.88981585  0.53514678  0.61484898  1
  Al  Al15  1  0.44660556  0.42772287  0.31086475  1
  Al  Al16  1  0.55471361  0.54316104  0.05896156  1
  Al  Al17  1  0.11468934  0.42604209  0.81091550  1
  Al  Al18  1  0.21802137  0.54373165  0.56022624  1
  Al  Al19  1  0.77617620  0.42252737  0.32642861  1
  Al  Al20  1  0.88183108  0.54785415  0.13302832  1
  Al  Al21  1  0.44181667  0.43297546  0.81289122  1
  Al  Al22  1  0.55630593  0.53398983  0.56771557  1
  Al  Al23  1  0.11330007  0.76294817  0.31518475  1
  Al  Al24  1  0.22520782  0.87058298  0.05806185  1
  Al  Al25  1  0.77270415  0.76395432  0.83136500  1
  Al  Al26  1  0.44698268  0.76068251  0.31411105  1
  Al  Al27  1  0.55072612  0.86968466  0.05595224  1
  Al  Al28  1  0.10981266  0.76359568  0.80742055  1
  Al  Al29  1  0.21416890  0.87704356  0.56686301  1
  Al  Al30  1  0.78294895  0.76183762  0.38866564  1
  Al  Al31  1  0.88785355  0.87420973  0.06131600  1
  Al  Al32  1  0.54903169  0.87608827  0.57541965  1
  B  B33  1  0.89422183  0.19934293  0.55573753  1
  B  B34  1  0.90135347  0.88390868  0.55630964  1
  B  B35  1  0.44199190  0.76198197  0.80683928  1
  N  N36  1  0.22616083  0.20159763  0.37009722  1
  N  N37  1  0.11020929  0.09302019  0.12355763  1
  N  N38  1  0.88735323  0.20402240  0.87453400  1
  N  N39  1  0.80192825  0.08178603  0.60765680  1
  N  N40  1  0.55571321  0.20498590  0.37137766  1
  N  N41  1  0.44462453  0.09272186  0.11799031  1
  N  N42  1  0.21856874  0.20608917  0.87141685  1
  N  N43  1  0.08617261  0.10798715  0.61474454  1
  N  N44  1  0.89320031  0.20216403  0.39296026  1
  N  N45  1  0.77993209  0.09326971  0.13017910  1
  N  N46  1  0.55892281  0.20336630  0.86823935  1
  N  N47  1  0.44032869  0.09876737  0.62342522  1
  N  N48  1  0.22529434  0.54002834  0.37040214  1
  N  N49  1  0.11383437  0.42712785  0.12264466  1
  N  N50  1  0.88492672  0.53803726  0.81775277  1
  N  N51  1  0.78734016  0.39420948  0.61203793  1
  N  N52  1  0.55328710  0.54065144  0.37724863  1
  N  N53  1  0.44531003  0.42857234  0.11784262  1
  N  N54  1  0.21934063  0.54206423  0.87023906  1
  N  N55  1  0.11905178  0.42457253  0.61649474  1
  N  N56  1  0.89049093  0.53977298  0.34378541  1
  N  N57  1  0.77343052  0.42439614  0.12848609  1
  N  N58  1  0.54344169  0.56279949  0.86347390  1
  N  N59  1  0.44183865  0.42749855  0.62240327  1
  N  N60  1  0.22687760  0.87050057  0.37636593  1
  N  N61  1  0.11008553  0.76404823  0.12261071  1
  N  N62  1  0.88981646  0.87618628  0.86928265  1
  N  N63  1  0.78605238  0.77578986  0.59766102  1
  N  N64  1  0.55229329  0.87261307  0.38111163  1
  N  N65  1  0.44325488  0.76156307  0.12432162  1
  N  N66  1  0.24359821  0.86148640  0.86054509  1
  N  N67  1  0.08696415  0.77529637  0.61469042  1
  N  N68  1  0.89878412  0.87647761  0.39468031  1
  N  N69  1  0.77362617  0.76479317  0.08923366  1
  N  N70  1  0.53726122  0.86195027  0.85895508  1
  N  N71  1  0.44206511  0.75916032  0.64214238  1
