# generated using pymatgen
data_Al11BN12
_symmetry_space_group_name_H-M   'P 1'
_cell_length_a   9.26913980
_cell_length_b   9.30202382
_cell_length_c   10.03653425
_cell_angle_alpha   89.71021487
_cell_angle_beta   90.33650388
_cell_angle_gamma   60.12284584
_symmetry_Int_Tables_number   1
_chemical_formula_structural   Al11BN12
_chemical_formula_sum   'Al33 B3 N36'
_cell_volume   750.31159209
_cell_formula_units_Z   3
loop_
 _symmetry_equiv_pos_site_id
 _symmetry_equiv_pos_as_xyz
  1  'x, y, z'
loop_
 _atom_site_type_symbol
 _atom_site_label
 _atom_site_symmetry_multiplicity
 _atom_site_fract_x
 _atom_site_fract_y
 _atom_site_fract_z
 _atom_site_occupancy
  Al  Al0  1  0.11303994  0.09113077  0.32690650  1
  Al  Al1  1  0.21926008  0.20628336  0.07230295  1
  Al  Al2  1  0.78162173  0.09718310  0.81035576  1
  Al  Al3  1  0.44703045  0.09213035  0.32343703  1
  Al  Al4  1  0.55807798  0.20457931  0.07407127  1
  Al  Al5  1  0.10849851  0.09489260  0.81697124  1
  Al  Al6  1  0.21776608  0.20618036  0.57139784  1
  Al  Al7  1  0.78205784  0.09136612  0.33592894  1
  Al  Al8  1  0.89001983  0.19978558  0.07468007  1
  Al  Al9  1  0.44343915  0.09187510  0.82267408  1
  Al  Al10  1  0.56283067  0.20712591  0.57342258  1
  Al  Al11  1  0.11948732  0.42259814  0.32159143  1
  Al  Al12  1  0.21877430  0.54062423  0.07189565  1
  Al  Al13  1  0.77489650  0.43404918  0.88522802  1
  Al  Al14  1  0.88709312  0.53823988  0.64319285  1
  Al  Al15  1  0.44848488  0.42703877  0.32268739  1
  Al  Al16  1  0.54297730  0.54954400  0.06959068  1
  Al  Al17  1  0.11926404  0.42343442  0.82341549  1
  Al  Al18  1  0.21934191  0.53860140  0.56969824  1
  Al  Al19  1  0.78429240  0.42390475  0.40065235  1
  Al  Al20  1  0.87752517  0.54374428  0.14254449  1
  Al  Al21  1  0.44181450  0.43442922  0.82299322  1
  Al  Al22  1  0.55227421  0.54096340  0.58481501  1
  Al  Al23  1  0.11612553  0.76001030  0.32406116  1
  Al  Al24  1  0.22265089  0.87213650  0.06666091  1
  Al  Al25  1  0.77453085  0.75853888  0.88505756  1
  Al  Al26  1  0.44607871  0.75984947  0.32573207  1
  Al  Al27  1  0.54317268  0.87479271  0.06966013  1
  Al  Al28  1  0.10669713  0.76353219  0.81615254  1
  Al  Al29  1  0.21142574  0.87789082  0.57617728  1
  Al  Al30  1  0.78222208  0.75556431  0.39424083  1
  Al  Al31  1  0.88947635  0.87815265  0.07181827  1
  Al  Al32  1  0.55408844  0.87641380  0.58383476  1
  B  B33  1  0.89411585  0.19422862  0.56855170  1
  B  B34  1  0.91142692  0.84484776  0.55752043  1
  B  B35  1  0.43955881  0.76415283  0.81851022  1
  N  N36  1  0.22431995  0.20348629  0.38259754  1
  N  N37  1  0.11137583  0.09194951  0.13542215  1
  N  N38  1  0.89212377  0.19983176  0.88465514  1
  N  N39  1  0.79272788  0.10862920  0.62165146  1
  N  N40  1  0.55642288  0.20496310  0.38369040  1
  N  N41  1  0.44418346  0.09369701  0.13206635  1
  N  N42  1  0.22127623  0.20367486  0.88247043  1
  N  N43  1  0.08676760  0.10647654  0.62585011  1
  N  N44  1  0.89844079  0.19344150  0.40177173  1
  N  N45  1  0.77926970  0.09254424  0.14392482  1
  N  N46  1  0.55818810  0.20570451  0.88172047  1
  N  N47  1  0.44520815  0.09766285  0.63421749  1
  N  N48  1  0.22477916  0.53729396  0.38112599  1
  N  N49  1  0.11293279  0.42591559  0.13049093  1
  N  N50  1  0.88620643  0.54144020  0.83183405  1
  N  N51  1  0.79048301  0.40935636  0.59329548  1
  N  N52  1  0.55140569  0.54198403  0.38966690  1
  N  N53  1  0.44380012  0.42843510  0.13151573  1
  N  N54  1  0.21936338  0.54297976  0.88235576  1
  N  N55  1  0.11855489  0.42271677  0.63163708  1
  N  N56  1  0.88487748  0.53956331  0.33453558  1
  N  N57  1  0.77370726  0.43073873  0.08301262  1
  N  N58  1  0.53505310  0.57008222  0.87406812  1
  N  N59  1  0.44001828  0.43071943  0.63485322  1
  N  N60  1  0.22652017  0.86952470  0.38769112  1
  N  N61  1  0.11057898  0.76253206  0.13353584  1
  N  N62  1  0.88854930  0.87978220  0.88023553  1
  N  N63  1  0.79685411  0.76616260  0.58980263  1
  N  N64  1  0.55114319  0.87343486  0.38950710  1
  N  N65  1  0.43986181  0.76323467  0.13754537  1
  N  N66  1  0.24078109  0.86230356  0.87026120  1
  N  N67  1  0.08730266  0.76831800  0.62308932  1
  N  N68  1  0.90144488  0.86910200  0.40096853  1
  N  N69  1  0.77458361  0.76138720  0.08295962  1
  N  N70  1  0.53528321  0.86297142  0.87384713  1
  N  N71  1  0.44077471  0.76481896  0.65366441  1
