# generated using pymatgen
data_Al11BN12
_symmetry_space_group_name_H-M   'P 1'
_cell_length_a   9.28265831
_cell_length_b   9.26948446
_cell_length_c   10.03509779
_cell_angle_alpha   90.00051402
_cell_angle_beta   90.41216071
_cell_angle_gamma   60.04624673
_symmetry_Int_Tables_number   1
_chemical_formula_structural   Al11BN12
_chemical_formula_sum   'Al33 B3 N36'
_cell_volume   748.11340075
_cell_formula_units_Z   3
loop_
 _symmetry_equiv_pos_site_id
 _symmetry_equiv_pos_as_xyz
  1  'x, y, z'
loop_
 _atom_site_type_symbol
 _atom_site_label
 _atom_site_symmetry_multiplicity
 _atom_site_fract_x
 _atom_site_fract_y
 _atom_site_fract_z
 _atom_site_occupancy
  Al  Al0  1  0.11440509  0.09032610  0.32591911  1
  Al  Al1  1  0.21833627  0.20726168  0.07211438  1
  Al  Al2  1  0.78302048  0.09180931  0.81057770  1
  Al  Al3  1  0.44752525  0.09131480  0.32277857  1
  Al  Al4  1  0.55777162  0.20444148  0.07299787  1
  Al  Al5  1  0.10853830  0.09459456  0.81627960  1
  Al  Al6  1  0.21666517  0.20767328  0.57032553  1
  Al  Al7  1  0.78135689  0.09265918  0.33252491  1
  Al  Al8  1  0.88998166  0.19964018  0.07244721  1
  Al  Al9  1  0.44198985  0.09159147  0.82245114  1
  Al  Al10  1  0.56230989  0.20219888  0.57190755  1
  Al  Al11  1  0.11898312  0.42384384  0.32211844  1
  Al  Al12  1  0.21833343  0.54103137  0.07211679  1
  Al  Al13  1  0.77425075  0.43383867  0.88387395  1
  Al  Al14  1  0.88491098  0.54087676  0.64288418  1
  Al  Al15  1  0.44751811  0.42785191  0.32277943  1
  Al  Al16  1  0.54322624  0.54893050  0.06927607  1
  Al  Al17  1  0.11799780  0.42432987  0.82250740  1
  Al  Al18  1  0.21666106  0.54235464  0.57032837  1
  Al  Al19  1  0.78488033  0.42383670  0.40111874  1
  Al  Al20  1  0.87630686  0.54515674  0.14388937  1
  Al  Al21  1  0.44199270  0.43309471  0.82244665  1
  Al  Al22  1  0.55293069  0.53812223  0.58486318  1
  Al  Al23  1  0.11440319  0.76194199  0.32592589  1
  Al  Al24  1  0.22302152  0.87180657  0.06728995  1
  Al  Al25  1  0.77425351  0.75854165  0.88385429  1
  Al  Al26  1  0.44807288  0.75930802  0.32582993  1
  Al  Al27  1  0.54323865  0.87448545  0.06927277  1
  Al  Al28  1  0.10854536  0.76352610  0.81628167  1
  Al  Al29  1  0.21488560  0.87590845  0.57608878  1
  Al  Al30  1  0.78488603  0.75795251  0.40114135  1
  Al  Al31  1  0.88998614  0.87699336  0.07244812  1
  Al  Al32  1  0.55293375  0.87565076  0.58487461  1
  B  B33  1  0.90070022  0.18977638  0.56481120  1
  B  B34  1  0.90071172  0.87623229  0.56481318  1
  B  B35  1  0.43977305  0.76345367  0.81899800  1
  N  N36  1  0.22457162  0.20373608  0.38181848  1
  N  N37  1  0.11030705  0.09301329  0.13469433  1
  N  N38  1  0.89099405  0.19871546  0.88160708  1
  N  N39  1  0.80273399  0.08197966  0.61700844  1
  N  N40  1  0.55670190  0.20499389  0.38293258  1
  N  N41  1  0.44331309  0.09461291  0.13131298  1
  N  N42  1  0.22010130  0.20442258  0.88218769  1
  N  N43  1  0.08766947  0.10592975  0.62462197  1
  N  N44  1  0.90010199  0.19198014  0.40178993  1
  N  N45  1  0.77852222  0.09404875  0.14188443  1
  N  N46  1  0.55938230  0.20364386  0.88008996  1
  N  N47  1  0.44172406  0.09821911  0.63421105  1
  N  N48  1  0.22456483  0.53836783  0.38182249  1
  N  N49  1  0.11164159  0.42749232  0.13114077  1
  N  N50  1  0.88571792  0.54045238  0.83133490  1
  N  N51  1  0.79154487  0.40302047  0.59465848  1
  N  N52  1  0.55270946  0.54091674  0.39002617  1
  N  N53  1  0.44330521  0.42872729  0.13131612  1
  N  N54  1  0.22010245  0.54213006  0.88218804  1
  N  N55  1  0.11642744  0.42513084  0.63077880  1
  N  N56  1  0.88459093  0.54104307  0.33683533  1
  N  N57  1  0.77386872  0.43089985  0.08222614  1
  N  N58  1  0.53496792  0.56902951  0.87385773  1
  N  N59  1  0.44172182  0.42676606  0.63420668  1
  N  N60  1  0.22857649  0.86905024  0.38754500  1
  N  N61  1  0.11030849  0.76331300  0.13469963  1
  N  N62  1  0.89099378  0.87692233  0.88160519  1
  N  N63  1  0.79154574  0.77211455  0.59468160  1
  N  N64  1  0.55271423  0.87306230  0.39003506  1
  N  N65  1  0.44013013  0.76326717  0.13771984  1
  N  N66  1  0.24163371  0.86251530  0.87133521  1
  N  N67  1  0.08767434  0.77310108  0.62462253  1
  N  N68  1  0.90009841  0.87459694  0.40180220  1
  N  N69  1  0.77387943  0.76184530  0.08220791  1
  N  N70  1  0.53496611  0.86267555  0.87385424  1
  N  N71  1  0.44153827  0.76258313  0.65415687  1
