# generated using pymatgen
data_Al11BN12
_symmetry_space_group_name_H-M   'P 1'
_cell_length_a   9.27625984
_cell_length_b   9.25799746
_cell_length_c   10.10784877
_cell_angle_alpha   89.89769075
_cell_angle_beta   90.46357083
_cell_angle_gamma   60.00476631
_symmetry_Int_Tables_number   1
_chemical_formula_structural   Al11BN12
_chemical_formula_sum   'Al33 B3 N36'
_cell_volume   751.75466101
_cell_formula_units_Z   3
loop_
 _symmetry_equiv_pos_site_id
 _symmetry_equiv_pos_as_xyz
  1  'x, y, z'
loop_
 _atom_site_type_symbol
 _atom_site_label
 _atom_site_symmetry_multiplicity
 _atom_site_fract_x
 _atom_site_fract_y
 _atom_site_fract_z
 _atom_site_occupancy
  Al  Al0  1  0.12022763  0.08927227  0.31864846  1
  Al  Al1  1  0.21894951  0.20754975  0.06954085  1
  Al  Al2  1  0.77981955  0.09178160  0.81689803  1
  Al  Al3  1  0.44712546  0.09257178  0.32241360  1
  Al  Al4  1  0.55549724  0.20386924  0.07057713  1
  Al  Al5  1  0.11093206  0.09276301  0.82299323  1
  Al  Al6  1  0.21550755  0.20850428  0.57051869  1
  Al  Al7  1  0.77788158  0.09174069  0.32682107  1
  Al  Al8  1  0.88496146  0.20889532  0.12836248  1
  Al  Al9  1  0.44166650  0.09083225  0.82119696  1
  Al  Al10  1  0.56233862  0.20325978  0.57253697  1
  Al  Al11  1  0.11883018  0.42479458  0.32226306  1
  Al  Al12  1  0.21833653  0.54064602  0.07240307  1
  Al  Al13  1  0.77873067  0.42794676  0.89040485  1
  Al  Al14  1  0.88529350  0.54025765  0.64228140  1
  Al  Al15  1  0.44870793  0.42851539  0.32296835  1
  Al  Al16  1  0.54338999  0.54857592  0.06808798  1
  Al  Al17  1  0.11723844  0.42482636  0.82146759  1
  Al  Al18  1  0.21708914  0.54247172  0.56935998  1
  Al  Al19  1  0.78911918  0.41637953  0.39719414  1
  Al  Al20  1  0.87570970  0.54650149  0.14577591  1
  Al  Al21  1  0.44194791  0.43335122  0.82238262  1
  Al  Al22  1  0.55352205  0.53656539  0.58375955  1
  Al  Al23  1  0.11407711  0.76383512  0.32519067  1
  Al  Al24  1  0.22444955  0.86961369  0.06499126  1
  Al  Al25  1  0.77349779  0.75583480  0.88410245  1
  Al  Al26  1  0.44915131  0.75917773  0.32590038  1
  Al  Al27  1  0.54272138  0.87453961  0.06926211  1
  Al  Al28  1  0.10852415  0.76280577  0.81564623  1
  Al  Al29  1  0.21419241  0.87687602  0.57595935  1
  Al  Al30  1  0.78514859  0.75955263  0.40212696  1
  Al  Al31  1  0.89028002  0.87559238  0.06860214  1
  Al  Al32  1  0.55280217  0.87581887  0.58381587  1
  B  B33  1  0.89434885  0.19735763  0.62248902  1
  B  B34  1  0.90425907  0.87488398  0.56484164  1
  B  B35  1  0.44116961  0.76122507  0.81954151  1
  N  N36  1  0.22436024  0.20443393  0.38335456  1
  N  N37  1  0.11940014  0.08753130  0.12717901  1
  N  N38  1  0.88815234  0.20328080  0.86105304  1
  N  N39  1  0.80253728  0.08784616  0.62128011  1
  N  N40  1  0.55670675  0.20553147  0.38478458  1
  N  N41  1  0.44231827  0.09471490  0.13206540  1
  N  N42  1  0.22123510  0.20541806  0.88146190  1
  N  N43  1  0.08663383  0.10636409  0.62841256  1
  N  N44  1  0.89044867  0.20954041  0.32615590  1
  N  N45  1  0.77222279  0.08762915  0.13647666  1
  N  N46  1  0.55594668  0.20406099  0.87982068  1
  N  N47  1  0.44167627  0.09806356  0.63397980  1
  N  N48  1  0.22490746  0.53960832  0.38196440  1
  N  N49  1  0.11157974  0.42708330  0.13245393  1
  N  N50  1  0.88395120  0.53882167  0.82840397  1
  N  N51  1  0.79804622  0.38989993  0.59100047  1
  N  N52  1  0.55438428  0.54131690  0.39269870  1
  N  N53  1  0.44419512  0.42807439  0.13210218  1
  N  N54  1  0.21973769  0.54168768  0.88282535  1
  N  N55  1  0.11640683  0.42582541  0.63054668  1
  N  N56  1  0.88407324  0.54338528  0.33849670  1
  N  N57  1  0.77462964  0.43217034  0.08035347  1
  N  N58  1  0.53636404  0.56750980  0.87412184  1
  N  N59  1  0.44135650  0.42728492  0.63492649  1
  N  N60  1  0.22798180  0.87136928  0.38824835  1
  N  N61  1  0.10986818  0.76336659  0.13478546  1
  N  N62  1  0.89106166  0.87380633  0.87967824  1
  N  N63  1  0.79186700  0.77219622  0.59375286  1
  N  N64  1  0.55269565  0.87420253  0.39012839  1
  N  N65  1  0.44130437  0.76140871  0.13851206  1
  N  N66  1  0.24319542  0.85933986  0.87067967  1
  N  N67  1  0.08821920  0.77318551  0.62460305  1
  N  N68  1  0.90049506  0.87808986  0.40444986  1
  N  N69  1  0.77401952  0.76017974  0.07982886  1
  N  N70  1  0.53403283  0.86229326  0.87415063  1
  N  N71  1  0.44314565  0.76116817  0.65391745  1
