# generated using pymatgen
data_Al11BN12
_symmetry_space_group_name_H-M   'P 1'
_cell_length_a   9.25908261
_cell_length_b   9.25658071
_cell_length_c   9.89722525
_cell_angle_alpha   89.99996759
_cell_angle_beta   89.91027367
_cell_angle_gamma   60.00902014
_symmetry_Int_Tables_number   1
_chemical_formula_structural   Al11BN12
_chemical_formula_sum   'Al33 B3 N36'
_cell_volume   734.68537507
_cell_formula_units_Z   3
loop_
 _symmetry_equiv_pos_site_id
 _symmetry_equiv_pos_as_xyz
  1  'x, y, z'
loop_
 _atom_site_type_symbol
 _atom_site_label
 _atom_site_symmetry_multiplicity
 _atom_site_fract_x
 _atom_site_fract_y
 _atom_site_fract_z
 _atom_site_occupancy
  Al  Al0  1  0.10552218  0.09564230  0.41215439  1
  Al  Al1  1  0.22088367  0.20491526  0.15880219  1
  Al  Al2  1  0.78028754  0.09319014  0.89573940  1
  Al  Al3  1  0.44472347  0.09286077  0.40787444  1
  Al  Al4  1  0.55849955  0.20408391  0.15756240  1
  Al  Al5  1  0.11485560  0.09118173  0.90330445  1
  Al  Al6  1  0.21622408  0.20760343  0.65870321  1
  Al  Al7  1  0.78269001  0.09198862  0.41690401  1
  Al  Al8  1  0.88810157  0.20466711  0.15617818  1
  Al  Al9  1  0.44265196  0.09143520  0.90851867  1
  Al  Al10  1  0.56135100  0.20265790  0.65792927  1
  Al  Al11  1  0.10973781  0.42846435  0.40785403  1
  Al  Al12  1  0.22088360  0.54086803  0.15880199  1
  Al  Al13  1  0.77556535  0.43026765  0.90151021  1
  Al  Al14  1  0.89004956  0.53830831  0.65753694  1
  Al  Al15  1  0.44472321  0.42908318  0.40787463  1
  Al  Al16  1  0.55572891  0.54053088  0.15106695  1
  Al  Al17  1  0.11054807  0.42805962  0.90972185  1
  Al  Al18  1  0.21622370  0.54284013  0.65870341  1
  Al  Al19  1  0.77757931  0.42330709  0.41230174  1
  Al  Al20  1  0.88646389  0.54010133  0.15837249  1
  Al  Al21  1  0.44265184  0.43258072  0.90851840  1
  Al  Al22  1  0.55542953  0.53928316  0.66281231  1
  Al  Al23  1  0.10552215  0.76550181  0.41215447  1
  Al  Al24  1  0.22304328  0.87181158  0.15152602  1
  Al  Al25  1  0.77556524  0.76083459  0.90151023  1
  Al  Al26  1  0.44445178  0.76110791  0.40625484  1
  Al  Al27  1  0.55572914  0.87040664  0.15106691  1
  Al  Al28  1  0.11485547  0.76063074  0.90330442  1
  Al  Al29  1  0.21819714  0.87423534  0.66270680  1
  Al  Al30  1  0.77757971  0.76578000  0.41230183  1
  Al  Al31  1  0.88810128  0.87389886  0.15617823  1
  Al  Al32  1  0.55542956  0.87195367  0.66281240  1
  B  B33  1  0.89452515  0.19715549  0.66513085  1
  B  B34  1  0.89452519  0.87498640  0.66513094  1
  B  B35  1  0.44454363  0.76106196  0.91095234  1
  N  N36  1  0.22040775  0.20420714  0.35134451  1
  N  N37  1  0.10931364  0.09538750  0.09480704  1
  N  N38  1  0.89119550  0.20446009  0.82808705  1
  N  N39  1  0.80018186  0.08324260  0.61278493  1
  N  N40  1  0.55910367  0.20378205  0.35222991  1
  N  N41  1  0.44376896  0.09541768  0.09974390  1
  N  N42  1  0.22177319  0.20680561  0.84885926  1
  N  N43  1  0.08671251  0.10468146  0.60812362  1
  N  N44  1  0.88735890  0.20467618  0.34672588  1
  N  N45  1  0.77941986  0.09362372  0.08954497  1
  N  N46  1  0.55401139  0.20632819  0.84845685  1
  N  N47  1  0.44292267  0.09381532  0.60041191  1
  N  N48  1  0.22040772  0.54205193  0.35134442  1
  N  N49  1  0.11014000  0.42826338  0.10158244  1
  N  N50  1  0.89015632  0.53825568  0.84710662  1
  N  N51  1  0.78675236  0.40305203  0.60769239  1
  N  N52  1  0.55638951  0.53966114  0.34506367  1
  N  N53  1  0.44376861  0.42748033  0.09974362  1
  N  N54  1  0.22177287  0.53808921  0.84885954  1
  N  N55  1  0.11038608  0.42814052  0.59780834  1
  N  N56  1  0.88475699  0.54095479  0.35290800  1
  N  N57  1  0.77943944  0.42564366  0.09380592  1
  N  N58  1  0.54274826  0.56382290  0.85589410  1
  N  N59  1  0.44292238  0.42992869  0.60041196  1
  N  N60  1  0.22135249  0.87265707  0.34746223  1
  N  N61  1  0.10931332  0.76196575  0.09480698  1
  N  N62  1  0.89119538  0.87101223  0.82808709  1
  N  N63  1  0.78675242  0.77686188  0.60769245  1
  N  N64  1  0.55638981  0.87061663  0.34506382  1
  N  N65  1  0.44407929  0.76129364  0.07796672  1
  N  N66  1  0.24794136  0.85936330  0.85490517  1
  N  N67  1  0.08671237  0.77527337  0.60812361  1
  N  N68  1  0.88735881  0.87463226  0.34672596  1
  N  N69  1  0.77943959  0.76158354  0.09380600  1
  N  N70  1  0.54274806  0.86009656  0.85589436  1
  N  N71  1  0.44389188  0.76138730  0.59618126  1
