# generated using pymatgen
data_Al11BN12
_symmetry_space_group_name_H-M   'P 1'
_cell_length_a   9.25908499
_cell_length_b   9.25658160
_cell_length_c   9.89721847
_cell_angle_alpha   89.99999287
_cell_angle_beta   89.91041480
_cell_angle_gamma   60.00897135
_symmetry_Int_Tables_number   1
_chemical_formula_structural   Al11BN12
_chemical_formula_sum   'Al33 B3 N36'
_cell_volume   734.68477417
_cell_formula_units_Z   3
loop_
 _symmetry_equiv_pos_site_id
 _symmetry_equiv_pos_as_xyz
  1  'x, y, z'
loop_
 _atom_site_type_symbol
 _atom_site_label
 _atom_site_symmetry_multiplicity
 _atom_site_fract_x
 _atom_site_fract_y
 _atom_site_fract_z
 _atom_site_occupancy
  Al  Al0  1  0.10548824  0.09565904  0.41705665  1
  Al  Al1  1  0.22085121  0.20493098  0.16371443  1
  Al  Al2  1  0.78025433  0.09320659  0.90063845  1
  Al  Al3  1  0.44469054  0.09287750  0.41278624  1
  Al  Al4  1  0.55846842  0.20409927  0.16247356  1
  Al  Al5  1  0.11482362  0.09119700  0.90820947  1
  Al  Al6  1  0.21619045  0.20761985  0.66361527  1
  Al  Al7  1  0.78265819  0.09200440  0.42181336  1
  Al  Al8  1  0.88806882  0.20468160  0.16107833  1
  Al  Al9  1  0.44261982  0.09145038  0.91343057  1
  Al  Al10  1  0.56131627  0.20267507  0.66283892  1
  Al  Al11  1  0.10970559  0.42848031  0.41276496  1
  Al  Al12  1  0.22085114  0.54088435  0.16371425  1
  Al  Al13  1  0.77553148  0.43028575  0.90642068  1
  Al  Al14  1  0.89001598  0.53832492  0.66244313  1
  Al  Al15  1  0.44469029  0.42909911  0.41278637  1
  Al  Al16  1  0.55569557  0.54054726  0.15597798  1
  Al  Al17  1  0.11051443  0.42807628  0.91463601  1
  Al  Al18  1  0.21619008  0.54285696  0.66361550  1
  Al  Al19  1  0.77754780  0.42332111  0.41720396  1
  Al  Al20  1  0.88643174  0.54011721  0.16328479  1
  Al  Al21  1  0.44261971  0.43259733  0.91343034  1
  Al  Al22  1  0.55539763  0.53929949  0.66771525  1
  Al  Al23  1  0.10548818  0.76551872  0.41705673  1
  Al  Al24  1  0.22301059  0.87182768  0.15643098  1
  Al  Al25  1  0.77553135  0.76085014  0.90642064  1
  Al  Al26  1  0.44441855  0.76112435  0.41115703  1
  Al  Al27  1  0.55569577  0.87042316  0.15597792  1
  Al  Al28  1  0.11482346  0.76064716  0.90820940  1
  Al  Al29  1  0.21816422  0.87425159  0.66760746  1
  Al  Al30  1  0.77754819  0.76579719  0.41720409  1
  Al  Al31  1  0.88806853  0.87391673  0.16107838  1
  Al  Al32  1  0.55539764  0.87196893  0.66771536  1
  B  B33  1  0.89449217  0.19717421  0.67003613  1
  B  B34  1  0.89449220  0.87500042  0.67003623  1
  B  B35  1  0.44451216  0.76107745  0.91585665  1
  N  N36  1  0.22037535  0.20422352  0.35625526  1
  N  N37  1  0.10928217  0.09540350  0.09971247  1
  N  N38  1  0.89116270  0.20447847  0.83299363  1
  N  N39  1  0.80014794  0.08325939  0.61769380  1
  N  N40  1  0.55907109  0.20379811  0.35714122  1
  N  N41  1  0.44373654  0.09543382  0.10465564  1
  N  N42  1  0.22174047  0.20682269  0.85377097  1
  N  N43  1  0.08667899  0.10469899  0.61302827  1
  N  N44  1  0.88732556  0.20469091  0.35162759  1
  N  N45  1  0.77938550  0.09364077  0.09444555  1
  N  N46  1  0.55397636  0.20634544  0.85336593  1
  N  N47  1  0.44288835  0.09383271  0.60532253  1
  N  N48  1  0.22037529  0.54206749  0.35625510  1
  N  N49  1  0.11010720  0.42827960  0.10649562  1
  N  N50  1  0.89012358  0.53827182  0.85201466  1
  N  N51  1  0.78672045  0.40306705  0.61259586  1
  N  N52  1  0.55635627  0.53967649  0.34997253  1
  N  N53  1  0.44373618  0.42749632  0.10465537  1
  N  N54  1  0.22174018  0.53810435  0.85377113  1
  N  N55  1  0.11035393  0.42815646  0.60271911  1
  N  N56  1  0.88472518  0.54097046  0.35781762  1
  N  N57  1  0.77940579  0.42566161  0.09871556  1
  N  N58  1  0.54271567  0.56383906  0.86079953  1
  N  N59  1  0.44288807  0.42994535  0.60532258  1
  N  N60  1  0.22131941  0.87267337  0.35236624  1
  N  N61  1  0.10928181  0.76198091  0.09971238  1
  N  N62  1  0.89116260  0.87102622  0.83299368  1
  N  N63  1  0.78672048  0.77687848  0.61259599  1
  N  N64  1  0.55635658  0.87063403  0.34997254  1
  N  N65  1  0.44404722  0.76130948  0.08287423  1
  N  N66  1  0.24790889  0.85937929  0.85980820  1
  N  N67  1  0.08667889  0.77528905  0.61302836  1
  N  N68  1  0.88732546  0.87465037  0.35162770  1
  N  N69  1  0.77940593  0.76159896  0.09871564  1
  N  N70  1  0.54271547  0.86011249  0.86079974  1
  N  N71  1  0.44385911  0.76140356  0.60108384  1
