# generated using pymatgen
data_Al11BN12
_symmetry_space_group_name_H-M   'P 1'
_cell_length_a   9.32257235
_cell_length_b   9.30906580
_cell_length_c   9.99309807
_cell_angle_alpha   89.99969897
_cell_angle_beta   90.19379484
_cell_angle_gamma   60.04773788
_symmetry_Int_Tables_number   1
_chemical_formula_structural   Al11BN12
_chemical_formula_sum   'Al33 B3 N36'
_cell_volume   751.41185166
_cell_formula_units_Z   3
loop_
 _symmetry_equiv_pos_site_id
 _symmetry_equiv_pos_as_xyz
  1  'x, y, z'
loop_
 _atom_site_type_symbol
 _atom_site_label
 _atom_site_symmetry_multiplicity
 _atom_site_fract_x
 _atom_site_fract_y
 _atom_site_fract_z
 _atom_site_occupancy
  Al  Al0  1  0.10511854  0.09937669  0.39846495  1
  Al  Al1  1  0.21472297  0.20633123  0.13915576  1
  Al  Al2  1  0.78283899  0.09186403  0.87609788  1
  Al  Al3  1  0.45208873  0.08734212  0.32704534  1
  Al  Al4  1  0.55942465  0.20357010  0.10140399  1
  Al  Al5  1  0.11048332  0.09717220  0.87710703  1
  Al  Al6  1  0.20839924  0.21361862  0.64024051  1
  Al  Al7  1  0.78596696  0.09030002  0.39933241  1
  Al  Al8  1  0.88916620  0.20432807  0.13731676  1
  Al  Al9  1  0.44459843  0.08655177  0.82236320  1
  Al  Al10  1  0.56620427  0.20018159  0.61898443  1
  Al  Al11  1  0.11253488  0.42701603  0.38783414  1
  Al  Al12  1  0.21472254  0.54551327  0.13915557  1
  Al  Al13  1  0.77817563  0.42896114  0.87719478  1
  Al  Al14  1  0.88981019  0.53837782  0.63924675  1
  Al  Al15  1  0.45208825  0.42713627  0.32704524  1
  Al  Al16  1  0.54846831  0.54675500  0.06600459  1
  Al  Al17  1  0.10940983  0.42857858  0.89402904  1
  Al  Al18  1  0.20839802  0.54454997  0.64024059  1
  Al  Al19  1  0.78636377  0.41897192  0.39472470  1
  Al  Al20  1  0.88309223  0.54173698  0.13837662  1
  Al  Al21  1  0.44459757  0.43541634  0.82236344  1
  Al  Al22  1  0.55444061  0.53820905  0.58082060  1
  Al  Al23  1  0.10511848  0.76207326  0.39846476  1
  Al  Al24  1  0.23173859  0.86741481  0.06436097  1
  Al  Al25  1  0.77817553  0.75943000  0.87719447  1
  Al  Al26  1  0.44323556  0.76166623  0.32691263  1
  Al  Al27  1  0.54846892  0.87134231  0.06600473  1
  Al  Al28  1  0.11048275  0.75891260  0.87710726  1
  Al  Al29  1  0.21739793  0.87458470  0.59774750  1
  Al  Al30  1  0.78636369  0.76123130  0.39472489  1
  Al  Al31  1  0.88916614  0.87307240  0.13731681  1
  Al  Al32  1  0.55444102  0.87391647  0.58082074  1
  B  B33  1  0.89458563  0.20028783  0.64799988  1
  B  B34  1  0.89458528  0.87169414  0.64799987  1
  B  B35  1  0.44444127  0.76106243  0.81492823  1
  N  N36  1  0.21707431  0.20466780  0.33275067  1
  N  N37  1  0.10729467  0.09767050  0.07140838  1
  N  N38  1  0.88812304  0.20593985  0.80855633  1
  N  N39  1  0.80369544  0.08143576  0.59464746  1
  N  N40  1  0.56181514  0.20237595  0.36021466  1
  N  N41  1  0.44796788  0.08840368  0.12755577  1
  N  N42  1  0.21485575  0.21273411  0.83116716  1
  N  N43  1  0.08198058  0.11176527  0.59447439  1
  N  N44  1  0.88999929  0.20291969  0.32685237  1
  N  N45  1  0.78580169  0.09038281  0.06945976  1
  N  N46  1  0.55557838  0.20549381  0.85043313  1
  N  N47  1  0.44195711  0.09353671  0.62828297  1
  N  N48  1  0.21707386  0.54482586  0.33275061  1
  N  N49  1  0.10877843  0.42889462  0.08329293  1
  N  N50  1  0.89019189  0.53818723  0.82656093  1
  N  N51  1  0.79368698  0.39910571  0.59037369  1
  N  N52  1  0.55425462  0.54290683  0.38845479  1
  N  N53  1  0.44796742  0.43019449  0.12755551  1
  N  N54  1  0.21485497  0.53897810  0.83116730  1
  N  N55  1  0.10807484  0.42924632  0.57597485  1
  N  N56  1  0.88601621  0.54027535  0.33125291  1
  N  N57  1  0.78147565  0.42388621  0.07230884  1
  N  N58  1  0.53829762  0.56819899  0.87208200  1
  N  N59  1  0.44195591  0.43107393  0.62828299  1
  N  N60  1  0.22920350  0.86868215  0.39673763  1
  N  N61  1  0.10729460  0.76160306  0.07140842  1
  N  N62  1  0.88812264  0.87250402  0.80855633  1
  N  N63  1  0.79368709  0.77377366  0.59037377  1
  N  N64  1  0.55425489  0.86940478  0.38845501  1
  N  N65  1  0.44348861  0.76153877  0.13726699  1
  N  N66  1  0.24845509  0.85905601  0.86229156  1
  N  N67  1  0.08198009  0.77282216  0.59447412  1
  N  N68  1  0.88999910  0.87364827  0.32685236  1
  N  N69  1  0.78147614  0.76120504  0.07230873  1
  N  N70  1  0.53829794  0.86006881  0.87208218  1
  N  N71  1  0.44810135  0.75923254  0.65348359  1
