# generated using pymatgen
data_Al11BN12
_symmetry_space_group_name_H-M   'P 1'
_cell_length_a   9.26781526
_cell_length_b   9.32158900
_cell_length_c   9.95894912
_cell_angle_alpha   90.24606102
_cell_angle_beta   89.65939746
_cell_angle_gamma   60.06714669
_symmetry_Int_Tables_number   1
_chemical_formula_structural   Al11BN12
_chemical_formula_sum   'Al33 B3 N36'
_cell_volume   745.55896768
_cell_formula_units_Z   3
loop_
 _symmetry_equiv_pos_site_id
 _symmetry_equiv_pos_as_xyz
  1  'x, y, z'
loop_
 _atom_site_type_symbol
 _atom_site_label
 _atom_site_symmetry_multiplicity
 _atom_site_fract_x
 _atom_site_fract_y
 _atom_site_fract_z
 _atom_site_occupancy
  Al  Al0  1  0.10102341  0.10322904  0.40012196  1
  Al  Al1  1  0.22176943  0.20294964  0.14493150  1
  Al  Al2  1  0.78015969  0.09165629  0.87930232  1
  Al  Al3  1  0.44590076  0.09580730  0.39757378  1
  Al  Al4  1  0.55851103  0.20426267  0.14300210  1
  Al  Al5  1  0.11090728  0.09681805  0.88027731  1
  Al  Al6  1  0.21807563  0.20783264  0.64558294  1
  Al  Al7  1  0.78128850  0.09885608  0.40377048  1
  Al  Al8  1  0.88891377  0.20433884  0.13996256  1
  Al  Al9  1  0.44219484  0.09053849  0.89561117  1
  Al  Al10  1  0.56270908  0.20813336  0.64491652  1
  Al  Al11  1  0.11066196  0.42727403  0.39367325  1
  Al  Al12  1  0.22175046  0.54139420  0.14526140  1
  Al  Al13  1  0.77314208  0.43179580  0.88983024  1
  Al  Al14  1  0.89300852  0.53295217  0.64710011  1
  Al  Al15  1  0.44442965  0.42762822  0.39713456  1
  Al  Al16  1  0.55727002  0.53705129  0.15067423  1
  Al  Al17  1  0.11102828  0.42632714  0.89912233  1
  Al  Al18  1  0.21904021  0.53673208  0.64716483  1
  Al  Al19  1  0.78017017  0.42272642  0.40161432  1
  Al  Al20  1  0.88567393  0.54006641  0.14628548  1
  Al  Al21  1  0.44321692  0.43269608  0.89584444  1
  Al  Al22  1  0.55610675  0.54084464  0.64179982  1
  Al  Al23  1  0.09994605  0.76167951  0.39967829  1
  Al  Al24  1  0.23256377  0.86804615  0.08097279  1
  Al  Al25  1  0.77176157  0.75697053  0.89371163  1
  Al  Al26  1  0.44542454  0.76076567  0.37886086  1
  Al  Al27  1  0.55735667  0.87316084  0.15191828  1
  Al  Al28  1  0.11465347  0.75499359  0.88482518  1
  Al  Al29  1  0.21209761  0.87759052  0.59345855  1
  Al  Al30  1  0.78153162  0.76518558  0.40158470  1
  Al  Al31  1  0.88857760  0.87509694  0.14341777  1
  Al  Al32  1  0.55707458  0.87315501  0.64386887  1
  B  B33  1  0.88507668  0.20632192  0.64864055  1
  B  B34  1  0.90752574  0.83189634  0.66166574  1
  B  B35  1  0.44360192  0.76075405  0.85314910  1
  N  N36  1  0.22215099  0.20325262  0.33696289  1
  N  N37  1  0.10847971  0.09798359  0.07469684  1
  N  N38  1  0.88578794  0.20820000  0.81481928  1
  N  N39  1  0.78727105  0.12016886  0.59254908  1
  N  N40  1  0.55777160  0.20557992  0.33642574  1
  N  N41  1  0.44588328  0.09242168  0.08592901  1
  N  N42  1  0.22314135  0.20760085  0.83451463  1
  N  N43  1  0.08194701  0.11451205  0.59810519  1
  N  N44  1  0.88855029  0.20751074  0.32914093  1
  N  N45  1  0.78075537  0.09176750  0.07392890  1
  N  N46  1  0.55364266  0.20594679  0.83572157  1
  N  N47  1  0.44609513  0.09595962  0.58903392  1
  N  N48  1  0.22033642  0.54163948  0.33687809  1
  N  N49  1  0.11113011  0.42707598  0.08949084  1
  N  N50  1  0.89073914  0.53689335  0.83632996  1
  N  N51  1  0.78746523  0.41075318  0.59532486  1
  N  N52  1  0.56120476  0.53108068  0.34205524  1
  N  N53  1  0.44557626  0.42776726  0.08587435  1
  N  N54  1  0.22319495  0.53398912  0.83583911  1
  N  N55  1  0.11218787  0.42594880  0.58371868  1
  N  N56  1  0.88556630  0.54194790  0.34012076  1
  N  N57  1  0.77740952  0.42658795  0.08086232  1
  N  N58  1  0.53954665  0.56920283  0.83785682  1
  N  N59  1  0.43968285  0.43324862  0.58827657  1
  N  N60  1  0.21374741  0.87511268  0.39029822  1
  N  N61  1  0.10849166  0.76018892  0.07763750  1
  N  N62  1  0.88935547  0.86416133  0.81519216  1
  N  N63  1  0.79391534  0.76981045  0.59860166  1
  N  N64  1  0.56217632  0.87507774  0.34398995  1
  N  N65  1  0.44460785  0.76128776  0.13137498  1
  N  N66  1  0.25404865  0.85541636  0.86258145  1
  N  N67  1  0.08177666  0.76578113  0.60018893  1
  N  N68  1  0.88536430  0.87816459  0.33416999  1
  N  N69  1  0.77828772  0.76195068  0.08343655  1
  N  N70  1  0.54023427  0.85721003  0.83834512  1
  N  N71  1  0.45118346  0.75986069  0.58251964  1
