# generated using pymatgen
data_Al11BN12
_symmetry_space_group_name_H-M   'P 1'
_cell_length_a   9.25918732
_cell_length_b   9.25702698
_cell_length_c   9.89671512
_cell_angle_alpha   90.00001647
_cell_angle_beta   90.07516005
_cell_angle_gamma   60.00770157
_symmetry_Int_Tables_number   1
_chemical_formula_structural   Al11BN12
_chemical_formula_sum   'Al33 B3 N36'
_cell_volume   734.68183360
_cell_formula_units_Z   3
loop_
 _symmetry_equiv_pos_site_id
 _symmetry_equiv_pos_as_xyz
  1  'x, y, z'
loop_
 _atom_site_type_symbol
 _atom_site_label
 _atom_site_symmetry_multiplicity
 _atom_site_fract_x
 _atom_site_fract_y
 _atom_site_fract_z
 _atom_site_occupancy
  Al  Al0  1  0.11063140  0.09316264  0.30200509  1
  Al  Al1  1  0.22138307  0.20453971  0.04662149  1
  Al  Al2  1  0.78284393  0.09191158  0.78733346  1
  Al  Al3  1  0.44525909  0.09305681  0.29630869  1
  Al  Al4  1  0.55954841  0.20355917  0.04715567  1
  Al  Al5  1  0.10956298  0.09405315  0.79233988  1
  Al  Al6  1  0.21646197  0.20752968  0.54549025  1
  Al  Al7  1  0.78066332  0.09300176  0.31079302  1
  Al  Al8  1  0.88829020  0.20415203  0.04877685  1
  Al  Al9  1  0.44263767  0.09090077  0.79647111  1
  Al  Al10  1  0.56084719  0.20290978  0.54698731  1
  Al  Al11  1  0.11083777  0.42791421  0.29550908  1
  Al  Al12  1  0.22138324  0.54074343  0.04662152  1
  Al  Al13  1  0.77670692  0.42675252  0.79236767  1
  Al  Al14  1  0.89033911  0.53816337  0.54682520  1
  Al  Al15  1  0.44525909  0.42835077  0.29630877  1
  Al  Al16  1  0.55475040  0.54319557  0.04237148  1
  Al  Al17  1  0.11022653  0.42821994  0.79664361  1
  Al  Al18  1  0.21646175  0.54267527  0.54549013  1
  Al  Al19  1  0.77797848  0.42562430  0.30368954  1
  Al  Al20  1  0.88687507  0.53989549  0.04706836  1
  Al  Al21  1  0.44263756  0.43312870  0.79647097  1
  Al  Al22  1  0.55785207  0.53541789  0.55204254  1
  Al  Al23  1  0.11063149  0.76287248  0.30200506  1
  Al  Al24  1  0.22598886  0.87033855  0.04211487  1
  Al  Al25  1  0.77670678  0.76320700  0.79236776  1
  Al  Al26  1  0.44498096  0.76084307  0.29822452  1
  Al  Al27  1  0.55475059  0.86872048  0.04237151  1
  Al  Al28  1  0.10956276  0.76305063  0.79233985  1
  Al  Al29  1  0.21418662  0.87624027  0.55224582  1
  Al  Al30  1  0.77797871  0.76306359  0.30368949  1
  Al  Al31  1  0.88829010  0.87422472  0.04877681  1
  Al  Al32  1  0.55785238  0.87339665  0.55204260  1
  B  B33  1  0.89507173  0.19847883  0.54087298  1
  B  B34  1  0.89507191  0.87311589  0.54087293  1
  B  B35  1  0.44582887  0.76041890  0.79120720  1
  N  N36  1  0.22245050  0.20564922  0.35460268  1
  N  N37  1  0.11088050  0.09237850  0.10820693  1
  N  N38  1  0.88783382  0.20454876  0.85825254  1
  N  N39  1  0.79992355  0.08337166  0.59215337  1
  N  N40  1  0.55436416  0.20615118  0.35632232  1
  N  N41  1  0.44599142  0.09224533  0.10286111  1
  N  N42  1  0.22013914  0.20501635  0.85476875  1
  N  N43  1  0.08566509  0.10743646  0.59893075  1
  N  N44  1  0.89131688  0.20462250  0.37742558  1
  N  N45  1  0.77993042  0.09336828  0.11640941  1
  N  N46  1  0.55906978  0.20379869  0.85276175  1
  N  N47  1  0.44133809  0.09672769  0.60603723  1
  N  N48  1  0.22245037  0.53856671  0.35460254  1
  N  N49  1  0.11062997  0.42801825  0.10414187  1
  N  N50  1  0.88619758  0.54023437  0.85325755  1
  N  N51  1  0.78985845  0.40155714  0.59943223  1
  N  N52  1  0.55462562  0.54016919  0.36039965  1
  N  N53  1  0.44599139  0.42842996  0.10286124  1
  N  N54  1  0.22013907  0.54151104  0.85476870  1
  N  N55  1  0.11056313  0.42805180  0.60622847  1
  N  N56  1  0.88930166  0.53868235  0.35653325  1
  N  N57  1  0.77688142  0.42674029  0.10892222  1
  N  N58  1  0.54502109  0.56300599  0.84669191  1
  N  N59  1  0.44133791  0.42860113  0.60603710  1
  N  N60  1  0.22509587  0.87078536  0.36146678  1
  N  N61  1  0.11088045  0.76340738  0.10820691  1
  N  N62  1  0.88783352  0.87428434  0.85825244  1
  N  N63  1  0.78985867  0.77525064  0.59943224  1
  N  N64  1  0.55462584  0.87187183  0.36039967  1
  N  N65  1  0.44428249  0.76119206  0.10821513  1
  N  N66  1  0.24486199  0.86090229  0.84445710  1
  N  N67  1  0.08566517  0.77356526  0.59893069  1
  N  N68  1  0.89131696  0.87072722  0.37742555  1
  N  N69  1  0.77688164  0.76304475  0.10892210  1
  N  N70  1  0.54502103  0.85863955  0.84669191  1
  N  N71  1  0.44473867  0.76096404  0.62557522  1
