# generated using pymatgen
data_Al11BN12
_symmetry_space_group_name_H-M   'P 1'
_cell_length_a   9.28029131
_cell_length_b   9.27825454
_cell_length_c   9.87545691
_cell_angle_alpha   90.13296329
_cell_angle_beta   90.17116853
_cell_angle_gamma   59.91835354
_symmetry_Int_Tables_number   1
_chemical_formula_structural   Al11BN12
_chemical_formula_sum   'Al33 B3 N36'
_cell_volume   735.79307285
_cell_formula_units_Z   3
loop_
 _symmetry_equiv_pos_site_id
 _symmetry_equiv_pos_as_xyz
  1  'x, y, z'
loop_
 _atom_site_type_symbol
 _atom_site_label
 _atom_site_symmetry_multiplicity
 _atom_site_fract_x
 _atom_site_fract_y
 _atom_site_fract_z
 _atom_site_occupancy
  Al  Al0  1  0.11140022  0.09246491  0.31803108  1
  Al  Al1  1  0.22047072  0.20535138  0.06328169  1
  Al  Al2  1  0.78246893  0.09178148  0.80415032  1
  Al  Al3  1  0.44632063  0.09199227  0.31204106  1
  Al  Al4  1  0.55910793  0.20372938  0.06308408  1
  Al  Al5  1  0.10884276  0.09480608  0.80898465  1
  Al  Al6  1  0.21768724  0.20586920  0.56170783  1
  Al  Al7  1  0.78089725  0.09312940  0.32565664  1
  Al  Al8  1  0.88790292  0.20458354  0.06531520  1
  Al  Al9  1  0.44169447  0.09160394  0.81371880  1
  Al  Al10  1  0.56093770  0.20225411  0.56340848  1
  Al  Al11  1  0.11368581  0.42653198  0.31671333  1
  Al  Al12  1  0.22067517  0.54095772  0.06303451  1
  Al  Al13  1  0.77562133  0.42624105  0.80801294  1
  Al  Al14  1  0.89062705  0.53722883  0.56961422  1
  Al  Al15  1  0.44599140  0.42792837  0.31212588  1
  Al  Al16  1  0.55443986  0.54326496  0.05897746  1
  Al  Al17  1  0.10983974  0.42848708  0.81154426  1
  Al  Al18  1  0.21726515  0.54357136  0.56180431  1
  Al  Al19  1  0.77788508  0.42438659  0.32531031  1
  Al  Al20  1  0.88553270  0.54122057  0.07961821  1
  Al  Al21  1  0.44187241  0.43312589  0.81319742  1
  Al  Al22  1  0.55676636  0.53490820  0.56884445  1
  Al  Al23  1  0.11159823  0.76307695  0.31765247  1
  Al  Al24  1  0.22592916  0.87056975  0.05819641  1
  Al  Al25  1  0.77554786  0.76417790  0.80714443  1
  Al  Al26  1  0.44553788  0.76057076  0.31481976  1
  Al  Al27  1  0.55485452  0.86864753  0.05909162  1
  Al  Al28  1  0.10875750  0.76333169  0.80923266  1
  Al  Al29  1  0.21416716  0.87635379  0.56872798  1
  Al  Al30  1  0.77821880  0.76443208  0.32846869  1
  Al  Al31  1  0.88748507  0.87417270  0.06552041  1
  Al  Al32  1  0.55610833  0.87411246  0.56983922  1
  B  B33  1  0.89488429  0.19763612  0.55698146  1
  B  B34  1  0.89543876  0.87634478  0.55711248  1
  B  B35  1  0.44513605  0.76042333  0.80773601  1
  N  N36  1  0.22427560  0.20337274  0.37087377  1
  N  N37  1  0.11061886  0.09277276  0.12406357  1
  N  N38  1  0.88705561  0.20470452  0.87464442  1
  N  N39  1  0.80061629  0.08257258  0.60851821  1
  N  N40  1  0.55491217  0.20557979  0.37204618  1
  N  N41  1  0.44559648  0.09261875  0.11835829  1
  N  N42  1  0.21909266  0.20605503  0.87120346  1
  N  N43  1  0.08592231  0.10741247  0.61524499  1
  N  N44  1  0.89245210  0.20254107  0.39362560  1
  N  N45  1  0.77962124  0.09387142  0.13157375  1
  N  N46  1  0.55860856  0.20397374  0.86870007  1
  N  N47  1  0.44133658  0.09697102  0.62309550  1
  N  N48  1  0.22392930  0.53938600  0.37095326  1
  N  N49  1  0.11179899  0.42786896  0.12393972  1
  N  N50  1  0.88491149  0.54069750  0.86063997  1
  N  N51  1  0.78894812  0.39854539  0.61424140  1
  N  N52  1  0.55370057  0.54039690  0.37735265  1
  N  N53  1  0.44561428  0.42866917  0.11849158  1
  N  N54  1  0.21933175  0.54155293  0.87091090  1
  N  N55  1  0.11382749  0.42661200  0.62018283  1
  N  N56  1  0.89036156  0.53762855  0.37468243  1
  N  N57  1  0.77540549  0.42602235  0.12899934  1
  N  N58  1  0.54416267  0.56285282  0.86314909  1
  N  N59  1  0.44152813  0.42791803  0.62250541  1
  N  N60  1  0.22576864  0.87055752  0.37745495  1
  N  N61  1  0.11060347  0.76392170  0.12370558  1
  N  N62  1  0.88669228  0.87428758  0.87460925  1
  N  N63  1  0.78860187  0.77783003  0.61355408  1
  N  N64  1  0.55331227  0.87236126  0.37834609  1
  N  N65  1  0.44435232  0.76140032  0.12445317  1
  N  N66  1  0.24417515  0.86133692  0.86071038  1
  N  N67  1  0.08588511  0.77431890  0.61559711  1
  N  N68  1  0.89314855  0.87237366  0.39409575  1
  N  N69  1  0.77513398  0.76630770  0.13077964  1
  N  N70  1  0.54420679  0.85919132  0.86299948  1
  N  N71  1  0.44465789  0.76036585  0.64228069  1
