# generated using pymatgen
data_Al11BN12
_symmetry_space_group_name_H-M   'P 1'
_cell_length_a   9.32196931
_cell_length_b   9.36244545
_cell_length_c   9.93421341
_cell_angle_alpha   90.09831751
_cell_angle_beta   90.09800794
_cell_angle_gamma   60.04654324
_symmetry_Int_Tables_number   1
_chemical_formula_structural   Al11BN12
_chemical_formula_sum   'Al33 B3 N36'
_cell_volume   751.21409700
_cell_formula_units_Z   3
loop_
 _symmetry_equiv_pos_site_id
 _symmetry_equiv_pos_as_xyz
  1  'x, y, z'
loop_
 _atom_site_type_symbol
 _atom_site_label
 _atom_site_symmetry_multiplicity
 _atom_site_fract_x
 _atom_site_fract_y
 _atom_site_fract_z
 _atom_site_occupancy
  Al  Al0  1  0.10366782  0.09885748  0.39765331  1
  Al  Al1  1  0.21990764  0.20381676  0.13742273  1
  Al  Al2  1  0.78205087  0.09099889  0.87323793  1
  Al  Al3  1  0.44793828  0.09147096  0.35628861  1
  Al  Al4  1  0.56048305  0.20512622  0.13493287  1
  Al  Al5  1  0.10959967  0.09734386  0.87367038  1
  Al  Al6  1  0.21152341  0.21112728  0.63668987  1
  Al  Al7  1  0.78279413  0.09923619  0.39813013  1
  Al  Al8  1  0.88928049  0.20472304  0.13334991  1
  Al  Al9  1  0.44489525  0.08832102  0.83360354  1
  Al  Al10  1  0.56561565  0.21032336  0.63713180  1
  Al  Al11  1  0.11134392  0.42735460  0.38568317  1
  Al  Al12  1  0.22203741  0.54114500  0.13817870  1
  Al  Al13  1  0.77728370  0.42817672  0.87476546  1
  Al  Al14  1  0.89438684  0.53252894  0.63976349  1
  Al  Al15  1  0.44199099  0.42809721  0.39057802  1
  Al  Al16  1  0.55152984  0.54973056  0.06940110  1
  Al  Al17  1  0.11089281  0.42580170  0.89389999  1
  Al  Al18  1  0.21741173  0.53579968  0.64111661  1
  Al  Al19  1  0.78574742  0.42112507  0.39320528  1
  Al  Al20  1  0.88529104  0.54081940  0.13739975  1
  Al  Al21  1  0.44068277  0.42938302  0.88390370  1
  Al  Al22  1  0.55610063  0.54116596  0.58597773  1
  Al  Al23  1  0.10344585  0.76181799  0.39647787  1
  Al  Al24  1  0.23008575  0.86915561  0.06391205  1
  Al  Al25  1  0.77787162  0.75492695  0.88021642  1
  Al  Al26  1  0.44284293  0.76139901  0.32784967  1
  Al  Al27  1  0.54740324  0.87421211  0.06653691  1
  Al  Al28  1  0.11398694  0.75480037  0.87783795  1
  Al  Al29  1  0.21209223  0.87677360  0.60006147  1
  Al  Al30  1  0.78737635  0.76084462  0.39314449  1
  Al  Al31  1  0.88793206  0.87475140  0.13658691  1
  Al  Al32  1  0.55616118  0.87250809  0.58628065  1
  B  B33  1  0.88496942  0.20709459  0.64287154  1
  B  B34  1  0.91028696  0.82671704  0.65622288  1
  B  B35  1  0.44446940  0.75890375  0.81289825  1
  N  N36  1  0.21821238  0.20371015  0.33312083  1
  N  N37  1  0.10811991  0.09804478  0.06944861  1
  N  N38  1  0.88685216  0.20620074  0.80798981  1
  N  N39  1  0.78619944  0.12497132  0.58490508  1
  N  N40  1  0.56063631  0.20751777  0.33185873  1
  N  N41  1  0.44578763  0.09324383  0.10721878  1
  N  N42  1  0.21656525  0.21123413  0.82783579  1
  N  N43  1  0.08077943  0.11312931  0.59315319  1
  N  N44  1  0.89093035  0.20600673  0.32304081  1
  N  N45  1  0.78184401  0.09176938  0.06790411  1
  N  N46  1  0.55805228  0.20714578  0.82936072  1
  N  N47  1  0.44424614  0.09756192  0.61203626  1
  N  N48  1  0.22003690  0.54291018  0.33015211  1
  N  N49  1  0.11051669  0.42786484  0.08395325  1
  N  N50  1  0.89255775  0.53589188  0.82783788  1
  N  N51  1  0.79269714  0.40874828  0.59079098  1
  N  N52  1  0.55616878  0.54433548  0.38483047  1
  N  N53  1  0.44337780  0.42727105  0.07877396  1
  N  N54  1  0.22019698  0.53424634  0.82949737  1
  N  N55  1  0.11060708  0.42733508  0.57513904  1
  N  N56  1  0.88686698  0.54149790  0.33056745  1
  N  N57  1  0.78214148  0.42472303  0.07183311  1
  N  N58  1  0.53885784  0.56868795  0.86744393  1
  N  N59  1  0.43467479  0.43179578  0.58449343  1
  N  N60  1  0.22699927  0.86796713  0.39768489  1
  N  N61  1  0.10811167  0.76021312  0.07238393  1
  N  N62  1  0.89018287  0.86456867  0.80776111  1
  N  N63  1  0.79912080  0.76602715  0.59241721  1
  N  N64  1  0.55660541  0.86714071  0.39088447  1
  N  N65  1  0.44199459  0.76413817  0.13699085  1
  N  N66  1  0.24690047  0.85864039  0.86003022  1
  N  N67  1  0.08168511  0.76542671  0.59550610  1
  N  N68  1  0.88702999  0.87807109  0.32842737  1
  N  N69  1  0.78105186  0.76064035  0.07398443  1
  N  N70  1  0.54000063  0.85840684  0.86773821  1
  N  N71  1  0.44446228  0.76172447  0.65233411  1
