# generated using pymatgen
data_Al11BN12
_symmetry_space_group_name_H-M   'P 1'
_cell_length_a   9.30501123
_cell_length_b   9.35426971
_cell_length_c   9.93188725
_cell_angle_alpha   90.36243219
_cell_angle_beta   90.07876078
_cell_angle_gamma   60.09123045
_symmetry_Int_Tables_number   1
_chemical_formula_structural   Al11BN12
_chemical_formula_sum   'Al33 B3 N36'
_cell_volume   749.33860995
_cell_formula_units_Z   3
loop_
 _symmetry_equiv_pos_site_id
 _symmetry_equiv_pos_as_xyz
  1  'x, y, z'
loop_
 _atom_site_type_symbol
 _atom_site_label
 _atom_site_symmetry_multiplicity
 _atom_site_fract_x
 _atom_site_fract_y
 _atom_site_fract_z
 _atom_site_occupancy
  Al  Al0  1  0.10391260  0.09974499  0.39606823  1
  Al  Al1  1  0.22226936  0.20241942  0.13691167  1
  Al  Al2  1  0.78075729  0.09173491  0.87153700  1
  Al  Al3  1  0.44469819  0.09718326  0.39027908  1
  Al  Al4  1  0.55912461  0.20278251  0.13532711  1
  Al  Al5  1  0.10946448  0.09769888  0.87169887  1
  Al  Al6  1  0.21613369  0.20974513  0.63829339  1
  Al  Al7  1  0.78146922  0.09943527  0.39677314  1
  Al  Al8  1  0.89007438  0.20351820  0.13304255  1
  Al  Al9  1  0.44050030  0.09623006  0.88013763  1
  Al  Al10  1  0.56275349  0.20980573  0.63778685  1
  Al  Al11  1  0.11235544  0.42578285  0.38478399  1
  Al  Al12  1  0.22107584  0.54151720  0.13810953  1
  Al  Al13  1  0.77467785  0.43010165  0.87713810  1
  Al  Al14  1  0.89495146  0.53199302  0.63888242  1
  Al  Al15  1  0.44427211  0.42826057  0.38940324  1
  Al  Al16  1  0.55616072  0.53945167  0.10858186  1
  Al  Al17  1  0.11092924  0.42615048  0.89239269  1
  Al  Al18  1  0.21807932  0.53591341  0.63984368  1
  Al  Al19  1  0.78159628  0.42279532  0.39324113  1
  Al  Al20  1  0.88704133  0.53987803  0.13789509  1
  Al  Al21  1  0.44266766  0.43157243  0.88435441  1
  Al  Al22  1  0.55761086  0.53738839  0.62345500  1
  Al  Al23  1  0.10346839  0.76121528  0.39571297  1
  Al  Al24  1  0.23022137  0.86913069  0.06182998  1
  Al  Al25  1  0.77749083  0.75512384  0.87868448  1
  Al  Al26  1  0.44223120  0.76324036  0.32902395  1
  Al  Al27  1  0.55052305  0.86773279  0.06755010  1
  Al  Al28  1  0.11428815  0.75458772  0.87700401  1
  Al  Al29  1  0.21048578  0.87879144  0.59719006  1
  Al  Al30  1  0.78724066  0.76026427  0.39239601  1
  Al  Al31  1  0.88841885  0.87478391  0.13639618  1
  Al  Al32  1  0.55704905  0.87387183  0.58820112  1
  B  B33  1  0.88435731  0.20730451  0.64193737  1
  B  B34  1  0.91076029  0.82639377  0.65615282  1
  B  B35  1  0.44315302  0.76314453  0.81022723  1
  N  N36  1  0.22299194  0.20076453  0.32943187  1
  N  N37  1  0.10825821  0.09849327  0.06799267  1
  N  N38  1  0.88580446  0.20757414  0.80731245  1
  N  N39  1  0.78429328  0.12622723  0.58431950  1
  N  N40  1  0.55796631  0.20437739  0.32872474  1
  N  N41  1  0.44323487  0.09719918  0.07600715  1
  N  N42  1  0.22027356  0.20945363  0.82676291  1
  N  N43  1  0.08045874  0.11520517  0.59264109  1
  N  N44  1  0.89105632  0.20562312  0.32259376  1
  N  N45  1  0.78092236  0.09161452  0.06706946  1
  N  N46  1  0.55522010  0.20661451  0.82786460  1
  N  N47  1  0.44153783  0.10455612  0.58511867  1
  N  N48  1  0.22031654  0.54212151  0.32986922  1
  N  N49  1  0.11147777  0.42668267  0.08286336  1
  N  N50  1  0.89270025  0.53521538  0.82746156  1
  N  N51  1  0.78965555  0.41164480  0.58832218  1
  N  N52  1  0.55838675  0.53776668  0.35417288  1
  N  N53  1  0.44324810  0.42634802  0.07752801  1
  N  N54  1  0.22136818  0.53390206  0.82865389  1
  N  N55  1  0.11163728  0.42610717  0.57476594  1
  N  N56  1  0.88796796  0.53996203  0.33067866  1
  N  N57  1  0.78139456  0.42509572  0.07151515  1
  N  N58  1  0.54238004  0.56237812  0.84237987  1
  N  N59  1  0.43646307  0.43345022  0.58178576  1
  N  N60  1  0.22598199  0.86859443  0.39697176  1
  N  N61  1  0.10841546  0.75989433  0.07176054  1
  N  N62  1  0.89062424  0.86467400  0.80761434  1
  N  N63  1  0.79924072  0.76620320  0.59279736  1
  N  N64  1  0.55801159  0.86593290  0.38910013  1
  N  N65  1  0.43970967  0.76646956  0.13601775  1
  N  N66  1  0.24755191  0.85826487  0.85994002  1
  N  N67  1  0.08186136  0.76555727  0.59497794  1
  N  N68  1  0.88735154  0.87751862  0.32799432  1
  N  N69  1  0.78216303  0.75952728  0.07399194  1
  N  N70  1  0.54036782  0.85779346  0.86633166  1
  N  N71  1  0.44005386  0.76971776  0.64915832  1
