# generated using pymatgen
data_Al11BN12
_symmetry_space_group_name_H-M   'P 1'
_cell_length_a   9.30670831
_cell_length_b   9.31654118
_cell_length_c   10.04676999
_cell_angle_alpha   90.05566630
_cell_angle_beta   90.58675629
_cell_angle_gamma   59.96756170
_symmetry_Int_Tables_number   1
_chemical_formula_structural   Al11BN12
_chemical_formula_sum   'Al33 B3 N36'
_cell_volume   754.11586618
_cell_formula_units_Z   3
loop_
 _symmetry_equiv_pos_site_id
 _symmetry_equiv_pos_as_xyz
  1  'x, y, z'
loop_
 _atom_site_type_symbol
 _atom_site_label
 _atom_site_symmetry_multiplicity
 _atom_site_fract_x
 _atom_site_fract_y
 _atom_site_fract_z
 _atom_site_occupancy
  Al  Al0  1  0.10245052  0.09609844  0.39660686  1
  Al  Al1  1  0.22567257  0.20126550  0.07323261  1
  Al  Al2  1  0.77965213  0.09466081  0.87834689  1
  Al  Al3  1  0.44757887  0.09128930  0.32699127  1
  Al  Al4  1  0.55246782  0.20726992  0.07111586  1
  Al  Al5  1  0.10921345  0.09287434  0.87219317  1
  Al  Al6  1  0.22035919  0.20573055  0.58646681  1
  Al  Al7  1  0.79065350  0.08607415  0.40146135  1
  Al  Al8  1  0.89014565  0.20303307  0.13819492  1
  Al  Al9  1  0.44264494  0.09070416  0.82139769  1
  Al  Al10  1  0.55839814  0.20490242  0.58188176  1
  Al  Al11  1  0.10753286  0.42883301  0.38827568  1
  Al  Al12  1  0.22457520  0.54264760  0.07554732  1
  Al  Al13  1  0.77627492  0.42933667  0.88015856  1
  Al  Al14  1  0.89039022  0.53861387  0.64248788  1
  Al  Al15  1  0.44948631  0.42528580  0.32609602  1
  Al  Al16  1  0.54950539  0.54543864  0.06952743  1
  Al  Al17  1  0.10324553  0.43406805  0.88731906  1
  Al  Al18  1  0.21789600  0.54911308  0.57388957  1
  Al  Al19  1  0.78477110  0.41925814  0.39684912  1
  Al  Al20  1  0.88520499  0.54014178  0.14095544  1
  Al  Al21  1  0.43938405  0.43576745  0.82234814  1
  Al  Al22  1  0.55542278  0.53713400  0.58415930  1
  Al  Al23  1  0.11858940  0.76047844  0.32435848  1
  Al  Al24  1  0.22938212  0.86349118  0.06455537  1
  Al  Al25  1  0.77435990  0.76120230  0.88128450  1
  Al  Al26  1  0.44566976  0.76115307  0.32831281  1
  Al  Al27  1  0.54773498  0.87156376  0.06932157  1
  Al  Al28  1  0.11450719  0.76032868  0.81906076  1
  Al  Al29  1  0.21632553  0.87167954  0.58895701  1
  Al  Al30  1  0.78692071  0.76209934  0.39868506  1
  Al  Al31  1  0.88207512  0.87657039  0.13894535  1
  Al  Al32  1  0.55563500  0.87378750  0.58408767  1
  B  B33  1  0.89446537  0.19861061  0.64952961  1
  B  B34  1  0.88831840  0.87694824  0.65230409  1
  B  B35  1  0.44362679  0.76060297  0.81813140  1
  N  N36  1  0.22688450  0.19905372  0.38396149  1
  N  N37  1  0.10547483  0.09240789  0.07284340  1
  N  N38  1  0.88505125  0.20730215  0.80894854  1
  N  N39  1  0.80399675  0.07988979  0.59673550  1
  N  N40  1  0.55611566  0.20501506  0.38917541  1
  N  N41  1  0.44768053  0.09132913  0.13463596  1
  N  N42  1  0.22382398  0.20699674  0.87202595  1
  N  N43  1  0.08320934  0.10771011  0.59915514  1
  N  N44  1  0.88777457  0.20353332  0.32741164  1
  N  N45  1  0.78575929  0.09046305  0.07127881  1
  N  N46  1  0.54542544  0.21198766  0.87932693  1
  N  N47  1  0.44533360  0.09454589  0.63583895  1
  N  N48  1  0.22620417  0.54121284  0.38144576  1
  N  N49  1  0.10636781  0.43018956  0.08725999  1
  N  N50  1  0.88501333  0.54117554  0.82772857  1
  N  N51  1  0.79455513  0.39796609  0.59095089  1
  N  N52  1  0.55246452  0.54198853  0.39098542  1
  N  N53  1  0.44871811  0.42652609  0.13468692  1
  N  N54  1  0.22104691  0.54566372  0.88290077  1
  N  N55  1  0.10603701  0.43304374  0.58675503  1
  N  N56  1  0.88384590  0.54123590  0.33292081  1
  N  N57  1  0.78237042  0.42303675  0.07409670  1
  N  N58  1  0.53742808  0.56726910  0.87430326  1
  N  N59  1  0.44089517  0.43000983  0.63567384  1
  N  N60  1  0.22714065  0.86633966  0.39516112  1
  N  N61  1  0.11715961  0.76132975  0.13059792  1
  N  N62  1  0.87650104  0.87839627  0.81327973  1
  N  N63  1  0.79521201  0.77477392  0.59208868  1
  N  N64  1  0.55336472  0.87134801  0.39167045  1
  N  N65  1  0.44483610  0.76067947  0.13914013  1
  N  N66  1  0.24718069  0.85603990  0.86809769  1
  N  N67  1  0.09041219  0.77119138  0.63106313  1
  N  N68  1  0.88453448  0.87555929  0.32839505  1
  N  N69  1  0.78154397  0.76011802  0.07378439  1
  N  N70  1  0.53527341  0.86222229  0.87482635  1
  N  N71  1  0.44670652  0.75989373  0.65522363  1
