# generated using pymatgen
data_Al11BN12
_symmetry_space_group_name_H-M   'P 1'
_cell_length_a   9.30796749
_cell_length_b   9.35563814
_cell_length_c   9.93045779
_cell_angle_alpha   90.34350077
_cell_angle_beta   90.07854056
_cell_angle_gamma   60.09113801
_symmetry_Int_Tables_number   1
_chemical_formula_structural   Al11BN12
_chemical_formula_sum   'Al33 B3 N36'
_cell_volume   749.57953729
_cell_formula_units_Z   3
loop_
 _symmetry_equiv_pos_site_id
 _symmetry_equiv_pos_as_xyz
  1  'x, y, z'
loop_
 _atom_site_type_symbol
 _atom_site_label
 _atom_site_symmetry_multiplicity
 _atom_site_fract_x
 _atom_site_fract_y
 _atom_site_fract_z
 _atom_site_occupancy
  Al  Al0  1  0.10409155  0.09957576  0.39617958  1
  Al  Al1  1  0.22221286  0.20255269  0.13697940  1
  Al  Al2  1  0.78084916  0.09159570  0.87163491  1
  Al  Al3  1  0.44469669  0.09709307  0.39036857  1
  Al  Al4  1  0.55918315  0.20304880  0.13536955  1
  Al  Al5  1  0.10955269  0.09762865  0.87179091  1
  Al  Al6  1  0.21615375  0.20974209  0.63830350  1
  Al  Al7  1  0.78148223  0.09939514  0.39691353  1
  Al  Al8  1  0.88981922  0.20374328  0.13305052  1
  Al  Al9  1  0.44044210  0.09612767  0.88024636  1
  Al  Al10  1  0.56289089  0.20953654  0.63806398  1
  Al  Al11  1  0.11239561  0.42579453  0.38480355  1
  Al  Al12  1  0.22133423  0.54141355  0.13811448  1
  Al  Al13  1  0.77576979  0.42945031  0.87581135  1
  Al  Al14  1  0.89514567  0.53192849  0.63904822  1
  Al  Al15  1  0.44356621  0.42772846  0.38959719  1
  Al  Al16  1  0.55382712  0.54385534  0.08701321  1
  Al  Al17  1  0.11081611  0.42617279  0.89257429  1
  Al  Al18  1  0.21767905  0.53594574  0.64008016  1
  Al  Al19  1  0.78319666  0.42208291  0.39322355  1
  Al  Al20  1  0.88692499  0.53976242  0.13788290  1
  Al  Al21  1  0.44181786  0.43079164  0.88323946  1
  Al  Al22  1  0.55693617  0.53916605  0.60464117  1
  Al  Al23  1  0.10347732  0.76136600  0.39578907  1
  Al  Al24  1  0.22994555  0.86940049  0.06228022  1
  Al  Al25  1  0.77735728  0.75526125  0.87876911  1
  Al  Al26  1  0.44290764  0.76207163  0.32912937  1
  Al  Al27  1  0.55057501  0.86805250  0.06805334  1
  Al  Al28  1  0.11423413  0.75474418  0.87710466  1
  Al  Al29  1  0.21079530  0.87850519  0.59765659  1
  Al  Al30  1  0.78708665  0.76040550  0.39244705  1
  Al  Al31  1  0.88844743  0.87475323  0.13643244  1
  Al  Al32  1  0.55700041  0.87357935  0.58861264  1
  B  B33  1  0.88435080  0.20767101  0.64207657  1
  B  B34  1  0.91073454  0.82643035  0.65617943  1
  B  B35  1  0.44371183  0.76195357  0.81143823  1
  N  N36  1  0.22296059  0.20085548  0.32951544  1
  N  N37  1  0.10832138  0.09849136  0.06822967  1
  N  N38  1  0.88606025  0.20713786  0.80742330  1
  N  N39  1  0.78427886  0.12625059  0.58434844  1
  N  N40  1  0.55801068  0.20450515  0.32877636  1
  N  N41  1  0.44318037  0.09726388  0.07624044  1
  N  N42  1  0.22020945  0.20956789  0.82686127  1
  N  N43  1  0.08090288  0.11482549  0.59273335  1
  N  N44  1  0.89099750  0.20563103  0.32262865  1
  N  N45  1  0.78096723  0.09154436  0.06714614  1
  N  N46  1  0.55539301  0.20614521  0.82801263  1
  N  N47  1  0.44156125  0.10416927  0.58527017  1
  N  N48  1  0.22030411  0.54223879  0.32987559  1
  N  N49  1  0.11144124  0.42678399  0.08299600  1
  N  N50  1  0.89279442  0.53544866  0.82746439  1
  N  N51  1  0.79151137  0.41001942  0.58961356  1
  N  N52  1  0.55708506  0.54090350  0.37117405  1
  N  N53  1  0.44314755  0.42590176  0.07794266  1
  N  N54  1  0.22078995  0.53416618  0.82873779  1
  N  N55  1  0.11154791  0.42610618  0.57472864  1
  N  N56  1  0.88800506  0.54003961  0.33066362  1
  N  N57  1  0.78228648  0.42449782  0.07179234  1
  N  N58  1  0.54077041  0.56540456  0.85493935  1
  N  N59  1  0.43553010  0.43216396  0.58319671  1
  N  N60  1  0.22612768  0.86859562  0.39697692  1
  N  N61  1  0.10847434  0.75988857  0.07188372  1
  N  N62  1  0.89061277  0.86465081  0.80765126  1
  N  N63  1  0.79922514  0.76612461  0.59281971  1
  N  N64  1  0.55790376  0.86604538  0.38904053  1
  N  N65  1  0.44041429  0.76518261  0.13677823  1
  N  N66  1  0.24723437  0.85861488  0.86005248  1
  N  N67  1  0.08184667  0.76554706  0.59502231  1
  N  N68  1  0.88735998  0.87752378  0.32804181  1
  N  N69  1  0.78215006  0.75950630  0.07410379  1
  N  N70  1  0.54029648  0.85813278  0.86653411  1
  N  N71  1  0.44150060  0.76701290  0.65061991  1
