# generated using pymatgen
data_Al11BN12
_symmetry_space_group_name_H-M   'P 1'
_cell_length_a   9.26778866
_cell_length_b   9.32652703
_cell_length_c   9.97398637
_cell_angle_alpha   90.24077466
_cell_angle_beta   89.67523658
_cell_angle_gamma   60.05656050
_symmetry_Int_Tables_number   1
_chemical_formula_structural   Al11BN12
_chemical_formula_sum   'Al33 B3 N36'
_cell_volume   747.00144367
_cell_formula_units_Z   3
loop_
 _symmetry_equiv_pos_site_id
 _symmetry_equiv_pos_as_xyz
  1  'x, y, z'
loop_
 _atom_site_type_symbol
 _atom_site_label
 _atom_site_symmetry_multiplicity
 _atom_site_fract_x
 _atom_site_fract_y
 _atom_site_fract_z
 _atom_site_occupancy
  Al  Al0  1  0.10114983  0.10336099  0.40188507  1
  Al  Al1  1  0.22138812  0.20288334  0.14481370  1
  Al  Al2  1  0.78032667  0.09151362  0.87906750  1
  Al  Al3  1  0.44555766  0.09599151  0.39787601  1
  Al  Al4  1  0.55881879  0.20413927  0.14305699  1
  Al  Al5  1  0.11043589  0.09731092  0.87922296  1
  Al  Al6  1  0.21795552  0.20805425  0.64581675  1
  Al  Al7  1  0.78102808  0.09921535  0.40391116  1
  Al  Al8  1  0.89056549  0.20304465  0.13995554  1
  Al  Al9  1  0.44326010  0.08971426  0.89544117  1
  Al  Al10  1  0.56247002  0.20838940  0.64521045  1
  Al  Al11  1  0.11066483  0.42724356  0.39374526  1
  Al  Al12  1  0.22140025  0.54189087  0.14503225  1
  Al  Al13  1  0.77257949  0.43178790  0.88964208  1
  Al  Al14  1  0.89278171  0.53299206  0.64752420  1
  Al  Al15  1  0.44404487  0.42762406  0.39731015  1
  Al  Al16  1  0.55941663  0.53331954  0.14860984  1
  Al  Al17  1  0.11141483  0.42607050  0.89898314  1
  Al  Al18  1  0.21903492  0.53643091  0.64739910  1
  Al  Al19  1  0.78007370  0.42334638  0.40167925  1
  Al  Al20  1  0.88675560  0.53952567  0.14649712  1
  Al  Al21  1  0.44431951  0.43259458  0.89544578  1
  Al  Al22  1  0.55771636  0.53557178  0.64420508  1
  Al  Al23  1  0.10018548  0.76125748  0.40158986  1
  Al  Al24  1  0.23657917  0.86623881  0.06912111  1
  Al  Al25  1  0.77139525  0.75732193  0.89387187  1
  Al  Al26  1  0.43729217  0.76440555  0.34223827  1
  Al  Al27  1  0.55951498  0.87480264  0.15017207  1
  Al  Al28  1  0.11442849  0.75482000  0.88386213  1
  Al  Al29  1  0.21026149  0.87851137  0.59556784  1
  Al  Al30  1  0.78151431  0.76467917  0.40185306  1
  Al  Al31  1  0.89037283  0.87477432  0.14356318  1
  Al  Al32  1  0.55873027  0.87678837  0.64679884  1
  B  B33  1  0.88483455  0.20656078  0.64871236  1
  B  B34  1  0.90760287  0.83043729  0.66222607  1
  B  B35  1  0.44233764  0.76169166  0.81916107  1
  N  N36  1  0.22198827  0.20284743  0.33690222  1
  N  N37  1  0.10939152  0.09741240  0.07414589  1
  N  N38  1  0.88547682  0.20843625  0.81455741  1
  N  N39  1  0.78638270  0.12178585  0.59212208  1
  N  N40  1  0.55770462  0.20549817  0.33609252  1
  N  N41  1  0.44567556  0.09287493  0.08624568  1
  N  N42  1  0.22362684  0.20747385  0.83429294  1
  N  N43  1  0.08073251  0.11545443  0.59865975  1
  N  N44  1  0.88916996  0.20710034  0.32922779  1
  N  N45  1  0.78109837  0.09155495  0.07400638  1
  N  N46  1  0.55378025  0.20587848  0.83576923  1
  N  N47  1  0.44568124  0.09700228  0.58817240  1
  N  N48  1  0.22011000  0.54217227  0.33668817  1
  N  N49  1  0.11166405  0.42682684  0.08937732  1
  N  N50  1  0.89089146  0.53679436  0.83655444  1
  N  N51  1  0.78722184  0.41193051  0.59420782  1
  N  N52  1  0.56047876  0.53195059  0.34293570  1
  N  N53  1  0.44539003  0.42751420  0.08595302  1
  N  N54  1  0.22365114  0.53357041  0.83562808  1
  N  N55  1  0.11188650  0.42607235  0.58352486  1
  N  N56  1  0.88571752  0.54192454  0.33976335  1
  N  N57  1  0.77848235  0.42618492  0.08122249  1
  N  N58  1  0.54310644  0.56264686  0.83771784  1
  N  N59  1  0.43900419  0.43269295  0.58721243  1
  N  N60  1  0.21819921  0.87279161  0.39828064  1
  N  N61  1  0.10955039  0.76004067  0.07713900  1
  N  N62  1  0.88921325  0.86386331  0.81499559  1
  N  N63  1  0.79394075  0.76939305  0.59792248  1
  N  N64  1  0.56129929  0.87443691  0.34559522  1
  N  N65  1  0.44043575  0.76351023  0.14474953  1
  N  N66  1  0.25331144  0.85586395  0.86616386  1
  N  N67  1  0.08089091  0.76577365  0.60081789  1
  N  N68  1  0.88594885  0.87808956  0.33452825  1
  N  N69  1  0.77935894  0.76135180  0.08405031  1
  N  N70  1  0.54404199  0.86040755  0.83890799  1
  N  N71  1  0.44017491  0.76514365  0.62838726  1
