# generated using pymatgen
data_Al11BN12
_symmetry_space_group_name_H-M   'P 1'
_cell_length_a   9.26987047
_cell_length_b   9.27997700
_cell_length_c   10.10929681
_cell_angle_alpha   89.99971824
_cell_angle_beta   90.65994962
_cell_angle_gamma   59.96316201
_symmetry_Int_Tables_number   1
_chemical_formula_structural   Al11BN12
_chemical_formula_sum   'Al33 B3 N36'
_cell_volume   752.78742276
_cell_formula_units_Z   3
loop_
 _symmetry_equiv_pos_site_id
 _symmetry_equiv_pos_as_xyz
  1  'x, y, z'
loop_
 _atom_site_type_symbol
 _atom_site_label
 _atom_site_symmetry_multiplicity
 _atom_site_fract_x
 _atom_site_fract_y
 _atom_site_fract_z
 _atom_site_occupancy
  Al  Al0  1  0.12019575  0.08682170  0.32118784  1
  Al  Al1  1  0.22429516  0.20053824  0.07791670  1
  Al  Al2  1  0.77823462  0.09416913  0.87953518  1
  Al  Al3  1  0.45375098  0.08909603  0.32691843  1
  Al  Al4  1  0.55206132  0.20725498  0.07082814  1
  Al  Al5  1  0.11513772  0.09049626  0.81869264  1
  Al  Al6  1  0.21484476  0.20479017  0.57052070  1
  Al  Al7  1  0.79544933  0.08556159  0.40544806  1
  Al  Al8  1  0.88195437  0.20799431  0.14000465  1
  Al  Al9  1  0.43751581  0.09268726  0.82212534  1
  Al  Al10  1  0.55571117  0.20543067  0.58300929  1
  Al  Al11  1  0.11305527  0.42675917  0.35377602  1
  Al  Al12  1  0.22429529  0.54173809  0.07791661  1
  Al  Al13  1  0.77433702  0.43052399  0.88096895  1
  Al  Al14  1  0.89129660  0.53763768  0.64260232  1
  Al  Al15  1  0.45375086  0.42372581  0.32691847  1
  Al  Al16  1  0.54818744  0.54656971  0.06865209  1
  Al  Al17  1  0.10670030  0.42993674  0.87164932  1
  Al  Al18  1  0.21484403  0.54693612  0.57052097  1
  Al  Al19  1  0.78848162  0.41649847  0.40200292  1
  Al  Al20  1  0.88168012  0.54244594  0.14154619  1
  Al  Al21  1  0.43751615  0.43636973  0.82212546  1
  Al  Al22  1  0.55302193  0.53855007  0.58586871  1
  Al  Al23  1  0.12019531  0.75955587  0.32118788  1
  Al  Al24  1  0.22685115  0.86985995  0.06655944  1
  Al  Al25  1  0.77433674  0.76171263  0.88096859  1
  Al  Al26  1  0.45008928  0.75824157  0.32818460  1
  Al  Al27  1  0.54818751  0.87181413  0.06865193  1
  Al  Al28  1  0.11513751  0.76093969  0.81869273  1
  Al  Al29  1  0.21045826  0.87805650  0.57799831  1
  Al  Al30  1  0.78848110  0.76159309  0.40200305  1
  Al  Al31  1  0.88195420  0.87662276  0.14000458  1
  Al  Al32  1  0.55302177  0.87500038  0.58586885  1
  B  B33  1  0.88864485  0.20090284  0.65329380  1
  B  B34  1  0.88864463  0.87702609  0.65329375  1
  B  B35  1  0.44101792  0.76277699  0.81958518  1
  N  N36  1  0.22810468  0.19795518  0.38049016  1
  N  N37  1  0.11778573  0.08708323  0.13085919  1
  N  N38  1  0.87671696  0.21148242  0.81280849  1
  N  N39  1  0.80457480  0.08099913  0.59874081  1
  N  N40  1  0.55850771  0.20403160  0.39209781  1
  N  N41  1  0.45099690  0.08988524  0.13622264  1
  N  N42  1  0.21914738  0.20207986  0.88735148  1
  N  N43  1  0.09128401  0.10393812  0.63061774  1
  N  N44  1  0.88517524  0.20587550  0.32888052  1
  N  N45  1  0.78688270  0.08984545  0.06983002  1
  N  N46  1  0.54207042  0.21225018  0.88047801  1
  N  N47  1  0.43859975  0.09708944  0.63685148  1
  N  N48  1  0.22810470  0.54051139  0.38049039  1
  N  N49  1  0.11177900  0.42739671  0.11341744  1
  N  N50  1  0.88388287  0.54134446  0.82850815  1
  N  N51  1  0.79440978  0.39655026  0.59361422  1
  N  N52  1  0.55398175  0.54149204  0.39431895  1
  N  N53  1  0.45099695  0.42569012  0.13622261  1
  N  N54  1  0.21914762  0.54534419  0.88735138  1
  N  N55  1  0.10934616  0.42861305  0.59772580  1
  N  N56  1  0.88058025  0.54299592  0.33355428  1
  N  N57  1  0.78258354  0.42375634  0.07191588  1
  N  N58  1  0.53393312  0.56963046  0.87492216  1
  N  N59  1  0.43859972  0.43088458  0.63685146  1
  N  N60  1  0.22605328  0.87025882  0.39002316  1
  N  N61  1  0.11778569  0.76170379  0.13085915  1
  N  N62  1  0.87671680  0.87837277  0.81280832  1
  N  N63  1  0.79440941  0.77561375  0.59361414  1
  N  N64  1  0.55398148  0.87109673  0.39431915  1
  N  N65  1  0.44700553  0.75978335  0.13976766  1
  N  N66  1  0.24141456  0.86257851  0.87475246  1
  N  N67  1  0.09128385  0.77135049  0.63061771  1
  N  N68  1  0.88517486  0.87552105  0.32888050  1
  N  N69  1  0.78258335  0.76023384  0.07191554  1
  N  N70  1  0.53393315  0.86300763  0.87492224  1
  N  N71  1  0.44122333  0.76267498  0.65607362  1
