# generated using pymatgen
data_Al11BN12
_symmetry_space_group_name_H-M   'P 1'
_cell_length_a   9.26617626
_cell_length_b   9.31670073
_cell_length_c   10.04660050
_cell_angle_alpha   89.61680516
_cell_angle_beta   90.32737798
_cell_angle_gamma   60.12162021
_symmetry_Int_Tables_number   1
_chemical_formula_structural   Al11BN12
_chemical_formula_sum   'Al33 B3 N36'
_cell_volume   751.98652027
_cell_formula_units_Z   3
loop_
 _symmetry_equiv_pos_site_id
 _symmetry_equiv_pos_as_xyz
  1  'x, y, z'
loop_
 _atom_site_type_symbol
 _atom_site_label
 _atom_site_symmetry_multiplicity
 _atom_site_fract_x
 _atom_site_fract_y
 _atom_site_fract_z
 _atom_site_occupancy
  Al  Al0  1  0.11277893  0.09171529  0.32608345  1
  Al  Al1  1  0.21987847  0.20589617  0.07209990  1
  Al  Al2  1  0.78077079  0.09933353  0.81136434  1
  Al  Al3  1  0.44693854  0.09265483  0.32368181  1
  Al  Al4  1  0.55794337  0.20437235  0.07422059  1
  Al  Al5  1  0.10853140  0.09494277  0.81809303  1
  Al  Al6  1  0.21799088  0.20597380  0.57169298  1
  Al  Al7  1  0.78246751  0.09119334  0.33622419  1
  Al  Al8  1  0.89027949  0.19941415  0.07659687  1
  Al  Al9  1  0.44393570  0.09169872  0.82255858  1
  Al  Al10  1  0.56296983  0.20913603  0.57423070  1
  Al  Al11  1  0.11975451  0.42233605  0.32142763  1
  Al  Al12  1  0.21903159  0.54025058  0.07189937  1
  Al  Al13  1  0.77551246  0.43352910  0.88682466  1
  Al  Al14  1  0.88809269  0.53668863  0.64332398  1
  Al  Al15  1  0.44916223  0.42666809  0.32279802  1
  Al  Al16  1  0.54297664  0.54941523  0.06983922  1
  Al  Al17  1  0.11983257  0.42305327  0.82358784  1
  Al  Al18  1  0.22042521  0.53734317  0.56923961  1
  Al  Al19  1  0.78441621  0.42357695  0.39915971  1
  Al  Al20  1  0.87801209  0.54320286  0.14241937  1
  Al  Al21  1  0.44182354  0.43471724  0.82304957  1
  Al  Al22  1  0.55220985  0.54154194  0.58449739  1
  Al  Al23  1  0.11682576  0.75969561  0.32330945  1
  Al  Al24  1  0.22294606  0.87164278  0.06613690  1
  Al  Al25  1  0.77453004  0.75795481  0.88533451  1
  Al  Al26  1  0.44532256  0.76018954  0.32577800  1
  Al  Al27  1  0.54312520  0.87468879  0.06975378  1
  Al  Al28  1  0.10598814  0.76329390  0.81594180  1
  Al  Al29  1  0.20907909  0.87982112  0.57599682  1
  Al  Al30  1  0.78085323  0.75510625  0.39180436  1
  Al  Al31  1  0.88943363  0.87788801  0.07112174  1
  Al  Al32  1  0.55405874  0.87658342  0.58322160  1
  B  B33  1  0.89001478  0.20079708  0.57351764  1
  B  B34  1  0.91698720  0.83104573  0.55382167  1
  B  B35  1  0.43953409  0.76406836  0.81826824  1
  N  N36  1  0.22430704  0.20355890  0.38289643  1
  N  N37  1  0.11286820  0.09084352  0.13479457  1
  N  N38  1  0.89282365  0.19967796  0.88695980  1
  N  N39  1  0.78700606  0.12269357  0.62570342  1
  N  N40  1  0.55674379  0.20480095  0.38423352  1
  N  N41  1  0.44459539  0.09314591  0.13246031  1
  N  N42  1  0.22183796  0.20347927  0.88255713  1
  N  N43  1  0.08558658  0.10808437  0.62710856  1
  N  N44  1  0.89762842  0.19494101  0.39782627  1
  N  N45  1  0.77931678  0.09117773  0.14390466  1
  N  N46  1  0.55724366  0.20631576  0.88243378  1
  N  N47  1  0.44644582  0.09735234  0.63417800  1
  N  N48  1  0.22495531  0.53717095  0.38083851  1
  N  N49  1  0.11350051  0.42521426  0.13042601  1
  N  N50  1  0.88628666  0.54109321  0.83172428  1
  N  N51  1  0.79123299  0.41050378  0.59189233  1
  N  N52  1  0.55104121  0.54256091  0.38975366  1
  N  N53  1  0.44415329  0.42803488  0.13180037  1
  N  N54  1  0.21910395  0.54314884  0.88252818  1
  N  N55  1  0.11944834  0.42214374  0.63191433  1
  N  N56  1  0.88501554  0.53960006  0.33374555  1
  N  N57  1  0.77380690  0.43052511  0.08376106  1
  N  N58  1  0.53537379  0.56995972  0.87428362  1
  N  N59  1  0.43896775  0.43258561  0.63511313  1
  N  N60  1  0.22561137  0.87024968  0.38772733  1
  N  N61  1  0.11075234  0.76213509  0.13314036  1
  N  N62  1  0.88766360  0.88015470  0.87951233  1
  N  N63  1  0.79861788  0.76257881  0.58779859  1
  N  N64  1  0.55035246  0.87388080  0.38929958  1
  N  N65  1  0.44003932  0.76281895  0.13761576  1
  N  N66  1  0.24061642  0.86176730  0.86969950  1
  N  N67  1  0.08681334  0.76688638  0.62232890  1
  N  N68  1  0.90192403  0.86720093  0.40103887  1
  N  N69  1  0.77488890  0.76072986  0.08280181  1
  N  N70  1  0.53521120  0.86282476  0.87385128  1
  N  N71  1  0.44038809  0.76540505  0.65339715  1
