# generated using pymatgen
data_Al11BN12
_symmetry_space_group_name_H-M   'P 1'
_cell_length_a   9.29146350
_cell_length_b   9.27900972
_cell_length_c   9.99989695
_cell_angle_alpha   89.97212124
_cell_angle_beta   90.32445662
_cell_angle_gamma   60.04079625
_symmetry_Int_Tables_number   1
_chemical_formula_structural   Al11BN12
_chemical_formula_sum   'Al33 B3 N36'
_cell_volume   746.93043665
_cell_formula_units_Z   3
loop_
 _symmetry_equiv_pos_site_id
 _symmetry_equiv_pos_as_xyz
  1  'x, y, z'
loop_
 _atom_site_type_symbol
 _atom_site_label
 _atom_site_symmetry_multiplicity
 _atom_site_fract_x
 _atom_site_fract_y
 _atom_site_fract_z
 _atom_site_occupancy
  Al  Al0  1  0.11399721  0.09100862  0.31457722  1
  Al  Al1  1  0.21805590  0.20730605  0.06116343  1
  Al  Al2  1  0.78300393  0.09000288  0.79953057  1
  Al  Al3  1  0.44758203  0.09171322  0.31138524  1
  Al  Al4  1  0.55809285  0.20423034  0.06170902  1
  Al  Al5  1  0.10906824  0.09337076  0.80544559  1
  Al  Al6  1  0.21661632  0.20748237  0.55918292  1
  Al  Al7  1  0.78150049  0.09377524  0.32093440  1
  Al  Al8  1  0.88926027  0.20125624  0.06014356  1
  Al  Al9  1  0.44202432  0.09084082  0.81153317  1
  Al  Al10  1  0.56206728  0.20260036  0.56066348  1
  Al  Al11  1  0.11961763  0.42407748  0.31176640  1
  Al  Al12  1  0.21873263  0.54070938  0.06121893  1
  Al  Al13  1  0.77357788  0.43157807  0.86127558  1
  Al  Al14  1  0.88569674  0.54342856  0.62983433  1
  Al  Al15  1  0.44838415  0.42822839  0.31094708  1
  Al  Al16  1  0.54588285  0.54758188  0.05637568  1
  Al  Al17  1  0.11766021  0.42393920  0.81105566  1
  Al  Al18  1  0.21711105  0.54254701  0.55879017  1
  Al  Al19  1  0.78467525  0.42450866  0.39133534  1
  Al  Al20  1  0.87657424  0.54397688  0.13322589  1
  Al  Al21  1  0.44121821  0.43226834  0.81126617  1
  Al  Al22  1  0.55162031  0.53928956  0.57462565  1
  Al  Al23  1  0.11492561  0.76226358  0.31447078  1
  Al  Al24  1  0.22338982  0.87121709  0.05624148  1
  Al  Al25  1  0.77436040  0.75735825  0.87391298  1
  Al  Al26  1  0.44840899  0.75916489  0.31434608  1
  Al  Al27  1  0.54329492  0.87402819  0.05884882  1
  Al  Al28  1  0.10844714  0.76285994  0.80526400  1
  Al  Al29  1  0.21475033  0.87611385  0.56478105  1
  Al  Al30  1  0.78481984  0.75956980  0.38843622  1
  Al  Al31  1  0.89004623  0.87671644  0.06198807  1
  Al  Al32  1  0.55304449  0.87624295  0.57323276  1
  B  B33  1  0.90100836  0.18786280  0.55452451  1
  B  B34  1  0.90041947  0.87657695  0.55317769  1
  B  B35  1  0.43956070  0.76345174  0.80707425  1
  N  N36  1  0.22477584  0.20364920  0.37028166  1
  N  N37  1  0.10988707  0.09290377  0.12279386  1
  N  N38  1  0.89077020  0.19761303  0.86894080  1
  N  N39  1  0.80289824  0.08200788  0.60569734  1
  N  N40  1  0.55682937  0.20540054  0.37117022  1
  N  N41  1  0.44322907  0.09460309  0.11957585  1
  N  N42  1  0.21982835  0.20403101  0.87057827  1
  N  N43  1  0.08751030  0.10572206  0.61355967  1
  N  N44  1  0.89972522  0.19309346  0.39187416  1
  N  N45  1  0.77883471  0.09427957  0.12997703  1
  N  N46  1  0.55934765  0.20286749  0.86833277  1
  N  N47  1  0.44154160  0.09845241  0.62269852  1
  N  N48  1  0.22544958  0.53876255  0.36994439  1
  N  N49  1  0.11182557  0.42741014  0.12031612  1
  N  N50  1  0.88593334  0.54076641  0.81916388  1
  N  N51  1  0.78983208  0.40473918  0.58800093  1
  N  N52  1  0.55300574  0.54123651  0.37962873  1
  N  N53  1  0.44401234  0.42876476  0.11892436  1
  N  N54  1  0.21972384  0.54153668  0.87073496  1
  N  N55  1  0.11673829  0.42525004  0.61845880  1
  N  N56  1  0.88570248  0.54097460  0.32818323  1
  N  N57  1  0.77436396  0.43032596  0.07222270  1
  N  N58  1  0.53521145  0.56795513  0.86036516  1
  N  N59  1  0.44126540  0.42683003  0.62269192  1
  N  N60  1  0.22868240  0.86964033  0.37580845  1
  N  N61  1  0.11049471  0.76305513  0.12311132  1
  N  N62  1  0.89090850  0.87568164  0.87066949  1
  N  N63  1  0.79141054  0.77447729  0.58286698  1
  N  N64  1  0.55295183  0.87324351  0.37791302  1
  N  N65  1  0.44055465  0.76200958  0.12580704  1
  N  N66  1  0.24191406  0.86156647  0.85993803  1
  N  N67  1  0.08767622  0.77319342  0.61306082  1
  N  N68  1  0.90039503  0.87562635  0.38964233  1
  N  N69  1  0.77386705  0.76157805  0.07290229  1
  N  N70  1  0.53525025  0.86186610  0.86275148  1
  N  N71  1  0.44091981  0.76385724  0.64241324  1
