# generated using pymatgen
data_Al11BN12
_symmetry_space_group_name_H-M   'P 1'
_cell_length_a   9.28362252
_cell_length_b   9.33539627
_cell_length_c   9.98372946
_cell_angle_alpha   90.33636397
_cell_angle_beta   89.91141118
_cell_angle_gamma   60.08552321
_symmetry_Int_Tables_number   1
_chemical_formula_structural   Al11BN12
_chemical_formula_sum   'Al33 B3 N36'
_cell_volume   749.95295818
_cell_formula_units_Z   3
loop_
 _symmetry_equiv_pos_site_id
 _symmetry_equiv_pos_as_xyz
  1  'x, y, z'
loop_
 _atom_site_type_symbol
 _atom_site_label
 _atom_site_symmetry_multiplicity
 _atom_site_fract_x
 _atom_site_fract_y
 _atom_site_fract_z
 _atom_site_occupancy
  Al  Al0  1  0.10276489  0.10073151  0.39518530  1
  Al  Al1  1  0.22270001  0.20154756  0.13648847  1
  Al  Al2  1  0.78070392  0.09226669  0.87123211  1
  Al  Al3  1  0.44470341  0.09663558  0.39155885  1
  Al  Al4  1  0.55917165  0.20151992  0.13509891  1
  Al  Al5  1  0.10905934  0.09809898  0.87209825  1
  Al  Al6  1  0.21546227  0.21044598  0.63843080  1
  Al  Al7  1  0.78119371  0.09882701  0.39647245  1
  Al  Al8  1  0.89083697  0.20235886  0.13280513  1
  Al  Al9  1  0.44092712  0.09698086  0.87958684  1
  Al  Al10  1  0.56198473  0.21262049  0.63764281  1
  Al  Al11  1  0.11190776  0.42562139  0.38514578  1
  Al  Al12  1  0.22150535  0.54079870  0.13784105  1
  Al  Al13  1  0.77253432  0.43141375  0.88256035  1
  Al  Al14  1  0.89378137  0.53196764  0.63927099  1
  Al  Al15  1  0.44470560  0.42795582  0.38850970  1
  Al  Al16  1  0.56027647  0.53155003  0.14057665  1
  Al  Al17  1  0.11166665  0.42607342  0.89177074  1
  Al  Al18  1  0.21993945  0.53587406  0.63956004  1
  Al  Al19  1  0.77943429  0.42363587  0.39297649  1
  Al  Al20  1  0.88718651  0.53935586  0.13782138  1
  Al  Al21  1  0.44492443  0.43327792  0.88937077  1
  Al  Al22  1  0.55780459  0.53655754  0.64134420  1
  Al  Al23  1  0.10258419  0.76032352  0.39527318  1
  Al  Al24  1  0.23318374  0.86666001  0.06047038  1
  Al  Al25  1  0.77839602  0.75463186  0.87802890  1
  Al  Al26  1  0.44009793  0.76697520  0.32837525  1
  Al  Al27  1  0.55112161  0.86594369  0.06673022  1
  Al  Al28  1  0.11511575  0.75414445  0.87686619  1
  Al  Al29  1  0.20885680  0.87990301  0.59398485  1
  Al  Al30  1  0.78668839  0.75993071  0.39396411  1
  Al  Al31  1  0.88887255  0.87390273  0.13581545  1
  Al  Al32  1  0.55695118  0.87537757  0.59246700  1
  B  B33  1  0.88366765  0.20736875  0.64091999  1
  B  B34  1  0.91121783  0.82602821  0.65616151  1
  B  B35  1  0.44050633  0.76696572  0.80745978  1
  N  N36  1  0.22334381  0.20027082  0.32863894  1
  N  N37  1  0.10892514  0.09743159  0.06718515  1
  N  N38  1  0.88506658  0.20920975  0.80657778  1
  N  N39  1  0.78403053  0.12675078  0.58342448  1
  N  N40  1  0.55793986  0.20331102  0.32817457  1
  N  N41  1  0.44373801  0.09615328  0.07428073  1
  N  N42  1  0.22054293  0.20911650  0.82584607  1
  N  N43  1  0.07878105  0.11704341  0.59097793  1
  N  N44  1  0.89032436  0.20556786  0.32191563  1
  N  N45  1  0.78132770  0.09079128  0.06628911  1
  N  N46  1  0.55491186  0.20882061  0.82737448  1
  N  N47  1  0.44127848  0.10672473  0.58502329  1
  N  N48  1  0.22035970  0.54149223  0.32913901  1
  N  N49  1  0.11198092  0.42593209  0.08178094  1
  N  N50  1  0.89258187  0.53404313  0.82751624  1
  N  N51  1  0.78442559  0.41665171  0.58510080  1
  N  N52  1  0.55999828  0.53275473  0.33276459  1
  N  N53  1  0.44525586  0.42663427  0.07962512  1
  N  N54  1  0.22415723  0.53300267  0.82811625  1
  N  N55  1  0.11152674  0.42695442  0.57466229  1
  N  N56  1  0.88732579  0.53999682  0.33031216  1
  N  N57  1  0.77884311  0.42569854  0.07398942  1
  N  N58  1  0.54454086  0.55935478  0.83271753  1
  N  N59  1  0.43847999  0.43707161  0.57826370  1
  N  N60  1  0.22467204  0.86860869  0.39637471  1
  N  N61  1  0.10911087  0.75895551  0.07070035  1
  N  N62  1  0.89149106  0.86456385  0.80694532  1
  N  N63  1  0.79923701  0.76658511  0.59342724  1
  N  N64  1  0.55758271  0.86512245  0.39170846  1
  N  N65  1  0.44062448  0.76590036  0.13650787  1
  N  N66  1  0.24879794  0.85795176  0.86052458  1
  N  N67  1  0.08179541  0.76554655  0.59406519  1
  N  N68  1  0.88677560  0.87676992  0.32723503  1
  N  N69  1  0.78279218  0.75870031  0.07235773  1
  N  N70  1  0.54133613  0.85840350  0.86206651  1
  N  N71  1  0.43633055  0.77306200  0.64746406  1
