# generated using pymatgen
data_Al11BN12
_symmetry_space_group_name_H-M   'P 1'
_cell_length_a   9.29675941
_cell_length_b   9.28479836
_cell_length_c   9.97507461
_cell_angle_alpha   89.97533902
_cell_angle_beta   90.29031903
_cell_angle_gamma   60.01052994
_symmetry_Int_Tables_number   1
_chemical_formula_structural   Al11BN12
_chemical_formula_sum   'Al33 B3 N36'
_cell_volume   745.74235170
_cell_formula_units_Z   3
loop_
 _symmetry_equiv_pos_site_id
 _symmetry_equiv_pos_as_xyz
  1  'x, y, z'
loop_
 _atom_site_type_symbol
 _atom_site_label
 _atom_site_symmetry_multiplicity
 _atom_site_fract_x
 _atom_site_fract_y
 _atom_site_fract_z
 _atom_site_occupancy
  Al  Al0  1  0.11350664  0.09156487  0.31428867  1
  Al  Al1  1  0.21761375  0.20737169  0.06163120  1
  Al  Al2  1  0.78289949  0.08887460  0.80058630  1
  Al  Al3  1  0.44764105  0.09179171  0.31132044  1
  Al  Al4  1  0.55831586  0.20416225  0.06197693  1
  Al  Al5  1  0.10932145  0.09285475  0.80667489  1
  Al  Al6  1  0.21664655  0.20721003  0.55930168  1
  Al  Al7  1  0.78148634  0.09456389  0.32036443  1
  Al  Al8  1  0.88679216  0.20593630  0.06048420  1
  Al  Al9  1  0.44201496  0.09059453  0.81186275  1
  Al  Al10  1  0.56187604  0.20281953  0.56088333  1
  Al  Al11  1  0.12056695  0.42417296  0.31261015  1
  Al  Al12  1  0.21906179  0.54058803  0.06160589  1
  Al  Al13  1  0.77145621  0.42696996  0.82441358  1
  Al  Al14  1  0.88769768  0.54676493  0.62669772  1
  Al  Al15  1  0.44880216  0.42832512  0.31001685  1
  Al  Al16  1  0.55186322  0.54431135  0.05599469  1
  Al  Al17  1  0.11712470  0.42385871  0.81138297  1
  Al  Al18  1  0.21769965  0.54255110  0.55878259  1
  Al  Al19  1  0.78319301  0.42492306  0.38225102  1
  Al  Al20  1  0.87684065  0.54346292  0.13486118  1
  Al  Al21  1  0.44063124  0.43199264  0.81203364  1
  Al  Al22  1  0.54946285  0.54067433  0.57349251  1
  Al  Al23  1  0.11510875  0.76241273  0.31442262  1
  Al  Al24  1  0.22372131  0.87064129  0.05668292  1
  Al  Al25  1  0.77444420  0.75581637  0.87489386  1
  Al  Al26  1  0.44831897  0.75937502  0.31380367  1
  Al  Al27  1  0.54323838  0.87354124  0.05932065  1
  Al  Al28  1  0.10842878  0.76255880  0.80554220  1
  Al  Al29  1  0.21466650  0.87622585  0.56503385  1
  Al  Al30  1  0.78460457  0.76147400  0.38828973  1
  Al  Al31  1  0.89006012  0.87652211  0.06243035  1
  Al  Al32  1  0.55289490  0.87663656  0.57337355  1
  B  B33  1  0.90149178  0.18521924  0.55534157  1
  B  B34  1  0.90026094  0.87717214  0.55330274  1
  B  B35  1  0.43990337  0.76362751  0.80703858  1
  N  N36  1  0.22486074  0.20343679  0.37023090  1
  N  N37  1  0.10950112  0.09264436  0.12214881  1
  N  N38  1  0.88883032  0.20007561  0.86877251  1
  N  N39  1  0.80325504  0.08201912  0.60625641  1
  N  N40  1  0.55691494  0.20562903  0.37107023  1
  N  N41  1  0.44319421  0.09447601  0.11938205  1
  N  N42  1  0.21975635  0.20390294  0.87052888  1
  N  N43  1  0.08713413  0.10572483  0.61428176  1
  N  N44  1  0.89893305  0.19460030  0.39449105  1
  N  N45  1  0.77920620  0.09381781  0.12937901  1
  N  N46  1  0.55923205  0.20244752  0.86810888  1
  N  N47  1  0.44135691  0.09865197  0.62264309  1
  N  N48  1  0.22636544  0.53897480  0.36984676  1
  N  N49  1  0.11190302  0.42756032  0.12087442  1
  N  N50  1  0.88575506  0.54045027  0.81836858  1
  N  N51  1  0.78688965  0.40611752  0.59849489  1
  N  N52  1  0.55246866  0.54182625  0.38112703  1
  N  N53  1  0.44404937  0.42894149  0.11791827  1
  N  N54  1  0.21932866  0.54142151  0.87067467  1
  N  N55  1  0.11754624  0.42503132  0.61800833  1
  N  N56  1  0.88816812  0.54213969  0.33317335  1
  N  N57  1  0.77286042  0.42727321  0.09682035  1
  N  N58  1  0.53818613  0.56566941  0.85955359  1
  N  N59  1  0.44111451  0.42690448  0.62295815  1
  N  N60  1  0.22851282  0.87015518  0.37574817  1
  N  N61  1  0.11048233  0.76287791  0.12310315  1
  N  N62  1  0.89089867  0.87483607  0.87084831  1
  N  N63  1  0.79099835  0.77709008  0.58308511  1
  N  N64  1  0.55299816  0.87321675  0.37778313  1
  N  N65  1  0.44091964  0.76090555  0.12514427  1
  N  N66  1  0.24222795  0.86086505  0.86003269  1
  N  N67  1  0.08776099  0.77321924  0.61305709  1
  N  N68  1  0.90055472  0.87678627  0.38955039  1
  N  N69  1  0.77397587  0.76102311  0.07374691  1
  N  N70  1  0.53529469  0.86153365  0.86266252  1
  N  N71  1  0.44067150  0.76430983  0.64241636  1
