# generated using pymatgen
data_Al31B5N36
_symmetry_space_group_name_H-M   'P 1'
_cell_length_a   9.11314735
_cell_length_b   9.13333050
_cell_length_c   10.45279207
_cell_angle_alpha   90.79387205
_cell_angle_beta   90.11380934
_cell_angle_gamma   60.04075632
_symmetry_Int_Tables_number   1
_chemical_formula_structural   Al31B5N36
_chemical_formula_sum   'Al31 B5 N36'
_cell_volume   753.68520907
_cell_formula_units_Z   1
loop_
 _symmetry_equiv_pos_site_id
 _symmetry_equiv_pos_as_xyz
  1  'x, y, z'
loop_
 _atom_site_type_symbol
 _atom_site_label
 _atom_site_symmetry_multiplicity
 _atom_site_fract_x
 _atom_site_fract_y
 _atom_site_fract_z
 _atom_site_occupancy
  Al  Al0  1  0.11915430  0.08932927  0.39513316  1
  Al  Al1  1  0.21006860  0.21012341  0.13789734  1
  Al  Al2  1  0.88523518  0.19391495  0.58192321  1
  Al  Al3  1  0.45564917  0.08278787  0.31591220  1
  Al  Al4  1  0.56713547  0.19822720  0.06385986  1
  Al  Al5  1  0.09493199  0.09253044  0.89260527  1
  Al  Al6  1  0.20885469  0.21245170  0.64662111  1
  Al  Al7  1  0.78063937  0.09734550  0.31849547  1
  Al  Al8  1  0.45886761  0.08581944  0.81471965  1
  Al  Al9  1  0.55926581  0.19532975  0.56565136  1
  Al  Al10  1  0.10781227  0.42392863  0.39310538  1
  Al  Al11  1  0.23061551  0.54059614  0.06257929  1
  Al  Al12  1  0.77366845  0.41864341  0.81675779  1
  Al  Al13  1  0.89057690  0.55487972  0.64519971  1
  Al  Al14  1  0.44311695  0.42588107  0.31771530  1
  Al  Al15  1  0.57066291  0.52721064  0.07107008  1
  Al  Al16  1  0.09857773  0.43196283  0.89344036  1
  Al  Al17  1  0.21878645  0.55054986  0.56954151  1
  Al  Al18  1  0.78077216  0.41890638  0.32469496  1
  Al  Al19  1  0.88566204  0.54974665  0.14586779  1
  Al  Al20  1  0.45125281  0.42197830  0.81606856  1
  Al  Al21  1  0.56208034  0.52676939  0.56776619  1
  Al  Al22  1  0.10748256  0.75729961  0.30811548  1
  Al  Al23  1  0.22636137  0.88167095  0.13698378  1
  Al  Al24  1  0.43547930  0.76399264  0.39525411  1
  Al  Al25  1  0.09419082  0.76086956  0.82514491  1
  Al  Al26  1  0.21880599  0.87564027  0.65076191  1
  Al  Al27  1  0.78549914  0.76527071  0.39295097  1
  Al  Al28  1  0.88053076  0.87879905  0.07504014  1
  Al  Al29  1  0.45478741  0.76521847  0.88959093  1
  Al  Al30  1  0.55395958  0.87825182  0.58387200  1
  B  B31  1  0.77242962  0.08916099  0.83611029  1
  B  B32  1  0.88777011  0.20561009  0.10509819  1
  B  B33  1  0.76847470  0.77319374  0.85640713  1
  B  B34  1  0.88397222  0.87465834  0.60968615  1
  B  B35  1  0.56166344  0.87044033  0.10196852  1
  N  N36  1  0.21664291  0.20823610  0.32040858  1
  N  N37  1  0.08067882  0.10890568  0.07985928  1
  N  N38  1  0.87011205  0.18204046  0.84706932  1
  N  N39  1  0.78546809  0.06184671  0.62963075  1
  N  N40  1  0.55429266  0.20504049  0.37965246  1
  N  N41  1  0.46312115  0.06580986  0.12337180  1
  N  N42  1  0.20711028  0.20835798  0.83281406  1
  N  N43  1  0.12101215  0.08555607  0.57843776  1
  N  N44  1  0.88338408  0.20798031  0.39355484  1
  N  N45  1  0.79263643  0.11176255  0.12721660  1
  N  N46  1  0.57908016  0.19141044  0.87686443  1
  N  N47  1  0.44130524  0.10070085  0.63466007  1
  N  N48  1  0.22415570  0.54641538  0.38456551  1
  N  N49  1  0.10466672  0.42969344  0.07622568  1
  N  N50  1  0.87668800  0.57614192  0.83215869  1
  N  N51  1  0.77886140  0.42600262  0.63541053  1
  N  N52  1  0.55997319  0.53021056  0.38114938  1
  N  N53  1  0.44739349  0.42352008  0.13192724  1
  N  N54  1  0.22864695  0.53733364  0.87895338  1
  N  N55  1  0.10642250  0.42569010  0.57745725  1
  N  N56  1  0.89007279  0.54411279  0.32899766  1
  N  N57  1  0.79577780  0.39503151  0.13329986  1
  N  N58  1  0.56105574  0.52989506  0.88935824  1
  N  N59  1  0.44546574  0.42395539  0.63290892  1
  N  N60  1  0.22726268  0.87597733  0.31843352  1
  N  N61  1  0.11161299  0.75908532  0.11984379  1
  N  N62  1  0.86004685  0.88418641  0.87939308  1
  N  N63  1  0.79571427  0.77385465  0.58304591  1
  N  N64  1  0.55165734  0.87872530  0.39329542  1
  N  N65  1  0.45912361  0.77979801  0.08071752  1
  N  N66  1  0.22753627  0.86903674  0.83496340  1
  N  N67  1  0.07598953  0.77392462  0.63861468  1
  N  N68  1  0.88932941  0.87717000  0.34729827  1
  N  N69  1  0.74554160  0.77698342  0.10285933  1
  N  N70  1  0.58694929  0.85451440  0.83531576  1
  N  N71  1  0.43452318  0.75859856  0.58327995  1
