# generated using pymatgen
data_Al31B5N36
_symmetry_space_group_name_H-M   'P 1'
_cell_length_a   9.16181990
_cell_length_b   9.22404625
_cell_length_c   10.32911392
_cell_angle_alpha   90.48626441
_cell_angle_beta   89.77461395
_cell_angle_gamma   59.82493896
_symmetry_Int_Tables_number   1
_chemical_formula_structural   Al31B5N36
_chemical_formula_sum   'Al31 B5 N36'
_cell_volume   754.55852206
_cell_formula_units_Z   1
loop_
 _symmetry_equiv_pos_site_id
 _symmetry_equiv_pos_as_xyz
  1  'x, y, z'
loop_
 _atom_site_type_symbol
 _atom_site_label
 _atom_site_symmetry_multiplicity
 _atom_site_fract_x
 _atom_site_fract_y
 _atom_site_fract_z
 _atom_site_occupancy
  Al  Al0  1  0.11636187  0.09240656  0.39787908  1
  Al  Al1  1  0.21159600  0.20829096  0.13599916  1
  Al  Al2  1  0.88579266  0.20201694  0.59021078  1
  Al  Al3  1  0.45404411  0.08674464  0.31673710  1
  Al  Al4  1  0.57494862  0.19437347  0.05880062  1
  Al  Al5  1  0.09271818  0.09721174  0.88972730  1
  Al  Al6  1  0.21425860  0.21083741  0.64914019  1
  Al  Al7  1  0.78150284  0.09662519  0.31892906  1
  Al  Al8  1  0.47172841  0.07709909  0.81599816  1
  Al  Al9  1  0.55663499  0.19959938  0.56803130  1
  Al  Al10  1  0.11636173  0.42174175  0.39052224  1
  Al  Al11  1  0.23191912  0.53718604  0.06363859  1
  Al  Al12  1  0.76965363  0.43746278  0.81438241  1
  Al  Al13  1  0.88128532  0.55485328  0.56914875  1
  Al  Al14  1  0.44441479  0.42570482  0.31793589  1
  Al  Al15  1  0.56502062  0.52650677  0.07314394  1
  Al  Al16  1  0.10856197  0.42463933  0.88890452  1
  Al  Al17  1  0.21546619  0.55409537  0.57390797  1
  Al  Al18  1  0.78295529  0.41973311  0.32425806  1
  Al  Al19  1  0.87544366  0.54042507  0.07350038  1
  Al  Al20  1  0.44993314  0.42680949  0.81493890  1
  Al  Al21  1  0.55835599  0.53243780  0.56546317  1
  Al  Al22  1  0.10791670  0.75783188  0.31068066  1
  Al  Al23  1  0.22352853  0.88297509  0.13802109  1
  Al  Al24  1  0.43299470  0.76677778  0.39265835  1
  Al  Al25  1  0.09199009  0.75885736  0.83358834  1
  Al  Al26  1  0.21816355  0.87739032  0.65272936  1
  Al  Al27  1  0.77109334  0.76225675  0.32235945  1
  Al  Al28  1  0.88646652  0.87035681  0.08660625  1
  Al  Al29  1  0.44969503  0.76863058  0.89323050  1
  Al  Al30  1  0.56228903  0.87753999  0.57450528  1
  B  B31  1  0.75735181  0.13427234  0.79959793  1
  B  B32  1  0.88839843  0.20421163  0.10557344  1
  B  B33  1  0.77565784  0.75815631  0.87186751  1
  B  B34  1  0.88161617  0.87090597  0.62714070  1
  B  B35  1  0.55770483  0.86852864  0.10464755  1
  N  N36  1  0.21665346  0.20750456  0.32045899  1
  N  N37  1  0.07929981  0.11033191  0.07947195  1
  N  N38  1  0.86901919  0.20045056  0.83459078  1
  N  N39  1  0.78128287  0.07244708  0.65129001  1
  N  N40  1  0.55515157  0.20492828  0.38149491  1
  N  N41  1  0.46741745  0.06265274  0.12178498  1
  N  N42  1  0.21832442  0.20093598  0.83613220  1
  N  N43  1  0.12070477  0.08936756  0.58246669  1
  N  N44  1  0.88029930  0.20750267  0.39644212  1
  N  N45  1  0.79583042  0.11077341  0.12582687  1
  N  N46  1  0.58503214  0.19530437  0.86900790  1
  N  N47  1  0.44709738  0.09571920  0.63385441  1
  N  N48  1  0.22510447  0.54751090  0.38501822  1
  N  N49  1  0.11055587  0.42568657  0.07945982  1
  N  N50  1  0.86795718  0.56006393  0.88341742  1
  N  N51  1  0.77516986  0.43800801  0.63133006  1
  N  N52  1  0.55756853  0.53357282  0.37614030  1
  N  N53  1  0.44984094  0.41658425  0.13078079  1
  N  N54  1  0.23157995  0.53299620  0.87708926  1
  N  N55  1  0.11433531  0.42297705  0.58176323  1
  N  N56  1  0.88253647  0.54112993  0.37801173  1
  N  N57  1  0.79535423  0.39500160  0.13216240  1
  N  N58  1  0.55525318  0.53493319  0.88886457  1
  N  N59  1  0.44547819  0.42733057  0.63088573  1
  N  N60  1  0.22113410  0.88076896  0.32246416  1
  N  N61  1  0.12120913  0.75353111  0.12223168  1
  N  N62  1  0.87775609  0.83837530  0.90333382  1
  N  N63  1  0.79351359  0.78098259  0.60698596  1
  N  N64  1  0.55219509  0.87826721  0.38693835  1
  N  N65  1  0.45686189  0.77879222  0.08644463  1
  N  N66  1  0.22213802  0.87189667  0.83938039  1
  N  N67  1  0.07505374  0.77835975  0.64274477  1
  N  N68  1  0.88423685  0.87404135  0.33261901  1
  N  N69  1  0.74315630  0.76690221  0.13293561  1
  N  N70  1  0.59107882  0.85202437  0.85667201  1
  N  N71  1  0.43508477  0.76334242  0.58284017  1
