# generated using pymatgen
data_Al31B5N36
_symmetry_space_group_name_H-M   'P 1'
_cell_length_a   9.16392543
_cell_length_b   9.14504922
_cell_length_c   10.18971657
_cell_angle_alpha   90.11685215
_cell_angle_beta   89.47293373
_cell_angle_gamma   60.01877005
_symmetry_Int_Tables_number   1
_chemical_formula_structural   Al31B5N36
_chemical_formula_sum   'Al31 B5 N36'
_cell_volume   739.62454815
_cell_formula_units_Z   1
loop_
 _symmetry_equiv_pos_site_id
 _symmetry_equiv_pos_as_xyz
  1  'x, y, z'
loop_
 _atom_site_type_symbol
 _atom_site_label
 _atom_site_symmetry_multiplicity
 _atom_site_fract_x
 _atom_site_fract_y
 _atom_site_fract_z
 _atom_site_occupancy
  Al  Al0  1  0.11535696  0.09325097  0.39699809  1
  Al  Al1  1  0.21170076  0.20604849  0.13226407  1
  Al  Al2  1  0.88765693  0.19993007  0.61442299  1
  Al  Al3  1  0.45469766  0.08244594  0.31401629  1
  Al  Al4  1  0.57488437  0.18823247  0.05665868  1
  Al  Al5  1  0.09743007  0.09519984  0.88362497  1
  Al  Al6  1  0.21340918  0.21326339  0.64517838  1
  Al  Al7  1  0.78031662  0.10543012  0.31488211  1
  Al  Al8  1  0.46138748  0.08505516  0.81420941  1
  Al  Al9  1  0.56410446  0.19249831  0.56590348  1
  Al  Al10  1  0.11169804  0.42460465  0.38896849  1
  Al  Al11  1  0.22223073  0.53804691  0.13954622  1
  Al  Al12  1  0.77973323  0.42103264  0.87994546  1
  Al  Al13  1  0.88817378  0.55414182  0.64254549  1
  Al  Al14  1  0.44325064  0.43118883  0.38362382  1
  Al  Al15  1  0.56151594  0.53292911  0.13447987  1
  Al  Al16  1  0.10371381  0.43805414  0.89210825  1
  Al  Al17  1  0.21684371  0.54368318  0.63729412  1
  Al  Al18  1  0.77612286  0.43128928  0.40001604  1
  Al  Al19  1  0.88002906  0.53780144  0.14136557  1
  Al  Al20  1  0.44646551  0.42534251  0.87651968  1
  Al  Al21  1  0.55381924  0.54243753  0.64582333  1
  Al  Al22  1  0.10240656  0.76860907  0.38781950  1
  Al  Al23  1  0.21684763  0.87791487  0.13777631  1
  Al  Al24  1  0.43946856  0.75778672  0.39146972  1
  Al  Al25  1  0.09865297  0.76582281  0.88859873  1
  Al  Al26  1  0.21509731  0.87465257  0.64605973  1
  Al  Al27  1  0.78299226  0.76203746  0.37973280  1
  Al  Al28  1  0.88383389  0.86937689  0.12787385  1
  Al  Al29  1  0.45472935  0.76443921  0.88779789  1
  Al  Al30  1  0.55630430  0.87566525  0.58443151  1
  B  B31  1  0.77519079  0.07696389  0.80285853  1
  B  B32  1  0.88701306  0.20543036  0.09356896  1
  B  B33  1  0.77262963  0.77520777  0.84667902  1
  B  B34  1  0.88771399  0.86963255  0.60890694  1
  B  B35  1  0.56062545  0.86657773  0.10096199  1
  N  N36  1  0.21875810  0.20539912  0.31996442  1
  N  N37  1  0.07876530  0.10816442  0.07720108  1
  N  N38  1  0.87708077  0.18982892  0.81825370  1
  N  N39  1  0.78479287  0.06062863  0.63977571  1
  N  N40  1  0.56009615  0.19676409  0.37607802  1
  N  N41  1  0.46405224  0.06204918  0.11802590  1
  N  N42  1  0.21387669  0.20997670  0.83624821  1
  N  N43  1  0.12081515  0.09083910  0.58338895  1
  N  N44  1  0.88509225  0.20190059  0.39382841  1
  N  N45  1  0.79282684  0.11407782  0.12301945  1
  N  N46  1  0.58772236  0.18472518  0.86721651  1
  N  N47  1  0.44289708  0.10040006  0.62980682  1
  N  N48  1  0.22024472  0.54129876  0.32850936  1
  N  N49  1  0.10556973  0.43211725  0.07794386  1
  N  N50  1  0.87626151  0.57085200  0.83292021  1
  N  N51  1  0.77501146  0.44255855  0.58835625  1
  N  N52  1  0.55971586  0.53692270  0.32185615  1
  N  N53  1  0.44338666  0.42530154  0.07477768  1
  N  N54  1  0.22041373  0.54044618  0.82362283  1
  N  N55  1  0.10934721  0.42977041  0.57654140  1
  N  N56  1  0.88973512  0.53451133  0.32841124  1
  N  N57  1  0.79309003  0.39735306  0.07380613  1
  N  N58  1  0.55605176  0.54053310  0.83155982  1
  N  N59  1  0.44503553  0.43046713  0.58202195  1
  N  N60  1  0.22070236  0.87333650  0.32494662  1
  N  N61  1  0.11187458  0.75935936  0.07496116  1
  N  N62  1  0.86396333  0.87605168  0.84832838  1
  N  N63  1  0.79929957  0.77476898  0.57461239  1
  N  N64  1  0.55243055  0.87510251  0.38875020  1
  N  N65  1  0.45578236  0.77615487  0.08023854  1
  N  N66  1  0.22451604  0.86940455  0.83280107  1
  N  N67  1  0.08021560  0.77995279  0.58181897  1
  N  N68  1  0.89065422  0.87128992  0.31655219  1
  N  N69  1  0.74301029  0.77191012  0.10774599  1
  N  N70  1  0.58880128  0.85257155  0.82916734  1
  N  N71  1  0.43414334  0.75767040  0.58034045  1
