# generated using pymatgen
data_Al31B5N36
_symmetry_space_group_name_H-M   'P 1'
_cell_length_a   9.17486877
_cell_length_b   9.23882767
_cell_length_c   10.26204333
_cell_angle_alpha   90.51041125
_cell_angle_beta   89.78248579
_cell_angle_gamma   59.81853243
_symmetry_Int_Tables_number   1
_chemical_formula_structural   Al31B5N36
_chemical_formula_sum   'Al31 B5 N36'
_cell_volume   751.87737514
_cell_formula_units_Z   1
loop_
 _symmetry_equiv_pos_site_id
 _symmetry_equiv_pos_as_xyz
  1  'x, y, z'
loop_
 _atom_site_type_symbol
 _atom_site_label
 _atom_site_symmetry_multiplicity
 _atom_site_fract_x
 _atom_site_fract_y
 _atom_site_fract_z
 _atom_site_occupancy
  Al  Al0  1  0.11599184  0.09271522  0.39822747  1
  Al  Al1  1  0.21398389  0.20588899  0.13212809  1
  Al  Al2  1  0.88552459  0.20245943  0.59135765  1
  Al  Al3  1  0.45465529  0.08598617  0.31697731  1
  Al  Al4  1  0.57531727  0.19476132  0.05924999  1
  Al  Al5  1  0.09281601  0.09749352  0.89028789  1
  Al  Al6  1  0.21634926  0.20752534  0.64950432  1
  Al  Al7  1  0.78185805  0.09615935  0.31892942  1
  Al  Al8  1  0.47213107  0.07696702  0.81771371  1
  Al  Al9  1  0.55664435  0.19949295  0.56847958  1
  Al  Al10  1  0.11165227  0.42891942  0.35701837  1
  Al  Al11  1  0.22977797  0.53575028  0.06375538  1
  Al  Al12  1  0.76897718  0.43740014  0.81440209  1
  Al  Al13  1  0.88524547  0.55270490  0.57074436  1
  Al  Al14  1  0.44486269  0.42491432  0.31819325  1
  Al  Al15  1  0.56465890  0.52701059  0.07394813  1
  Al  Al16  1  0.10535954  0.43121633  0.85911087  1
  Al  Al17  1  0.21294691  0.55151770  0.57548565  1
  Al  Al18  1  0.78207702  0.41916823  0.32451003  1
  Al  Al19  1  0.87896220  0.53840226  0.07240521  1
  Al  Al20  1  0.45004665  0.42689651  0.81526087  1
  Al  Al21  1  0.55765693  0.53281863  0.56617332  1
  Al  Al22  1  0.10822228  0.75839926  0.31109798  1
  Al  Al23  1  0.22348937  0.88273801  0.13767756  1
  Al  Al24  1  0.43306358  0.76700225  0.39273864  1
  Al  Al25  1  0.09210606  0.76050954  0.83447865  1
  Al  Al26  1  0.21791496  0.87689996  0.65223011  1
  Al  Al27  1  0.77040958  0.76246699  0.32281038  1
  Al  Al28  1  0.88672845  0.86968912  0.08813963  1
  Al  Al29  1  0.44970537  0.76872796  0.89284332  1
  Al  Al30  1  0.56339119  0.87639938  0.57572890  1
  B  B31  1  0.75750736  0.13429139  0.79937840  1
  B  B32  1  0.88820679  0.20439011  0.10575170  1
  B  B33  1  0.77567028  0.75876090  0.87164730  1
  B  B34  1  0.88207664  0.87059477  0.62657640  1
  B  B35  1  0.55854857  0.86764980  0.10431355  1
  N  N36  1  0.21859855  0.20401850  0.32116183  1
  N  N37  1  0.07886689  0.11023149  0.08014413  1
  N  N38  1  0.86924024  0.20063380  0.83420671  1
  N  N39  1  0.78132097  0.07223876  0.65097588  1
  N  N40  1  0.55569060  0.20431368  0.38114651  1
  N  N41  1  0.46867756  0.06189935  0.12093918  1
  N  N42  1  0.22119032  0.19852574  0.84081072  1
  N  N43  1  0.12029589  0.08946873  0.58329005  1
  N  N44  1  0.88032712  0.20717815  0.39639613  1
  N  N45  1  0.79603968  0.11075507  0.12576931  1
  N  N46  1  0.58541627  0.19556136  0.86902937  1
  N  N47  1  0.44780516  0.09494647  0.63405187  1
  N  N48  1  0.22348923  0.54581371  0.38583739  1
  N  N49  1  0.10859271  0.43083718  0.09919505  1
  N  N50  1  0.86852870  0.55961539  0.88334095  1
  N  N51  1  0.77444065  0.43839336  0.63060399  1
  N  N52  1  0.55667715  0.53404687  0.37571719  1
  N  N53  1  0.44944228  0.41686978  0.13050299  1
  N  N54  1  0.23134700  0.53372389  0.87805286  1
  N  N55  1  0.10946028  0.43009782  0.61266917  1
  N  N56  1  0.88278071  0.54023998  0.37974665  1
  N  N57  1  0.79530399  0.39500162  0.13168495  1
  N  N58  1  0.55495294  0.53547071  0.88858697  1
  N  N59  1  0.44501049  0.42729707  0.63029136  1
  N  N60  1  0.22089347  0.88043351  0.32359798  1
  N  N61  1  0.12210789  0.75335832  0.12163944  1
  N  N62  1  0.87781440  0.83820118  0.90321216  1
  N  N63  1  0.79415462  0.78084052  0.60584943  1
  N  N64  1  0.55235294  0.87770342  0.38698624  1
  N  N65  1  0.45670278  0.77913293  0.08693568  1
  N  N66  1  0.22204765  0.87226268  0.83999058  1
  N  N67  1  0.07514676  0.77908143  0.64188087  1
  N  N68  1  0.88443248  0.87328504  0.33124149  1
  N  N69  1  0.74340671  0.76547923  0.13273553  1
  N  N70  1  0.59163199  0.85146338  0.85643707  1
  N  N71  1  0.43536682  0.76338176  0.58380673  1
