# generated using pymatgen
data_Al31B5N36
_symmetry_space_group_name_H-M   'P 1'
_cell_length_a   9.17120722
_cell_length_b   9.15772987
_cell_length_c   10.28724104
_cell_angle_alpha   90.11357366
_cell_angle_beta   89.56644404
_cell_angle_gamma   60.17962650
_symmetry_Int_Tables_number   1
_chemical_formula_structural   Al31B5N36
_chemical_formula_sum   'Al31 B5 N36'
_cell_volume   749.55787638
_cell_formula_units_Z   1
loop_
 _symmetry_equiv_pos_site_id
 _symmetry_equiv_pos_as_xyz
  1  'x, y, z'
loop_
 _atom_site_type_symbol
 _atom_site_label
 _atom_site_symmetry_multiplicity
 _atom_site_fract_x
 _atom_site_fract_y
 _atom_site_fract_z
 _atom_site_occupancy
  Al  Al0  1  0.11600034  0.09086147  0.39881274  1
  Al  Al1  1  0.21196016  0.20836972  0.13665610  1
  Al  Al2  1  0.88833627  0.19614749  0.61705051  1
  Al  Al3  1  0.45672837  0.08261552  0.31672629  1
  Al  Al4  1  0.57206839  0.19385901  0.05865748  1
  Al  Al5  1  0.09688067  0.09311656  0.88709247  1
  Al  Al6  1  0.21265029  0.21308581  0.64633392  1
  Al  Al7  1  0.78046279  0.10474339  0.31560948  1
  Al  Al8  1  0.46030307  0.08553635  0.81461063  1
  Al  Al9  1  0.56013020  0.19730470  0.56572782  1
  Al  Al10  1  0.11051088  0.42229624  0.39142203  1
  Al  Al11  1  0.22892679  0.53852999  0.06350876  1
  Al  Al12  1  0.78257030  0.41836730  0.87851044  1
  Al  Al13  1  0.88920459  0.55432744  0.64630031  1
  Al  Al14  1  0.44566885  0.42515804  0.31592331  1
  Al  Al15  1  0.55971954  0.53360864  0.07815944  1
  Al  Al16  1  0.09916327  0.43166856  0.89323879  1
  Al  Al17  1  0.21773314  0.55084365  0.57072383  1
  Al  Al18  1  0.78280901  0.42691879  0.40026187  1
  Al  Al19  1  0.87975052  0.53876346  0.14469862  1
  Al  Al20  1  0.44974208  0.42065721  0.81849734  1
  Al  Al21  1  0.55220279  0.53797884  0.59042888  1
  Al  Al22  1  0.11168316  0.75639021  0.30897539  1
  Al  Al23  1  0.22456032  0.88385173  0.13548618  1
  Al  Al24  1  0.43717925  0.76269821  0.39173996  1
  Al  Al25  1  0.09154265  0.76264450  0.83066901  1
  Al  Al26  1  0.21666336  0.87779075  0.65043944  1
  Al  Al27  1  0.78546403  0.76297852  0.38500995  1
  Al  Al28  1  0.87932603  0.87368145  0.11529590  1
  Al  Al29  1  0.45229264  0.76746641  0.88704496  1
  Al  Al30  1  0.55688574  0.87784883  0.58512829  1
  B  B31  1  0.77132836  0.08102360  0.81053799  1
  B  B32  1  0.88860509  0.20606327  0.09512046  1
  B  B33  1  0.76837282  0.77666164  0.85510373  1
  B  B34  1  0.88584170  0.86991348  0.61777169  1
  B  B35  1  0.56150620  0.86788197  0.10203684  1
  N  N36  1  0.21986381  0.20570257  0.32223255  1
  N  N37  1  0.08068742  0.10903185  0.07696580  1
  N  N38  1  0.87638241  0.18797143  0.82048447  1
  N  N39  1  0.78101296  0.06045006  0.64507502  1
  N  N40  1  0.55740965  0.20360340  0.37940252  1
  N  N41  1  0.46618710  0.06303991  0.12172358  1
  N  N42  1  0.21233139  0.20776699  0.83470232  1
  N  N43  1  0.12011202  0.08972759  0.58397151  1
  N  N44  1  0.88675424  0.19947848  0.39564217  1
  N  N45  1  0.79308194  0.11587102  0.12269513  1
  N  N46  1  0.58219336  0.18980608  0.87139723  1
  N  N47  1  0.44231152  0.10108592  0.63117649  1
  N  N48  1  0.22503407  0.54556306  0.38348902  1
  N  N49  1  0.10285642  0.42977544  0.07930271  1
  N  N50  1  0.87504089  0.57238058  0.83378317  1
  N  N51  1  0.77967718  0.43754465  0.59434869  1
  N  N52  1  0.55818813  0.53553079  0.36296044  1
  N  N53  1  0.44621936  0.41761829  0.12824100  1
  N  N54  1  0.22647718  0.53725932  0.87719306  1
  N  N55  1  0.10651760  0.42740057  0.57979167  1
  N  N56  1  0.89063365  0.53633493  0.33021897  1
  N  N57  1  0.79886662  0.39493489  0.07639875  1
  N  N58  1  0.55236875  0.53596003  0.88261896  1
  N  N59  1  0.44318738  0.42357398  0.63351990  1
  N  N60  1  0.22487337  0.87830801  0.32146321  1
  N  N61  1  0.11761906  0.75667690  0.11782248  1
  N  N62  1  0.85735232  0.88148638  0.86723632  1
  N  N63  1  0.80033432  0.77441770  0.57837473  1
  N  N64  1  0.55428975  0.87648677  0.39234142  1
  N  N65  1  0.45557775  0.78197398  0.08021749  1
  N  N66  1  0.22510847  0.86961570  0.83591898  1
  N  N67  1  0.07618303  0.77620617  0.63548899  1
  N  N68  1  0.88302599  0.87482133  0.31462164  1
  N  N69  1  0.74329392  0.77006297  0.10408344  1
  N  N70  1  0.58728010  0.85349342  0.82988478  1
  N  N71  1  0.43097963  0.76387388  0.58383677  1
