# generated using pymatgen
data_Al31B5N36
_symmetry_space_group_name_H-M   'P 1'
_cell_length_a   9.18502736
_cell_length_b   9.17886780
_cell_length_c   10.08641320
_cell_angle_alpha   89.85144829
_cell_angle_beta   89.46226321
_cell_angle_gamma   59.85226754
_symmetry_Int_Tables_number   1
_chemical_formula_structural   Al31B5N36
_chemical_formula_sum   'Al31 B5 N36'
_cell_volume   735.30595566
_cell_formula_units_Z   1
loop_
 _symmetry_equiv_pos_site_id
 _symmetry_equiv_pos_as_xyz
  1  'x, y, z'
loop_
 _atom_site_type_symbol
 _atom_site_label
 _atom_site_symmetry_multiplicity
 _atom_site_fract_x
 _atom_site_fract_y
 _atom_site_fract_z
 _atom_site_occupancy
  Al  Al0  1  0.11205263  0.08594601  0.38735952  1
  Al  Al1  1  0.22431351  0.20517182  0.06054338  1
  Al  Al2  1  0.88522790  0.19888198  0.59069335  1
  Al  Al3  1  0.44871208  0.08933063  0.30536547  1
  Al  Al4  1  0.57057683  0.20104008  0.05313514  1
  Al  Al5  1  0.08960338  0.09622166  0.87722418  1
  Al  Al6  1  0.22922280  0.20756302  0.56282455  1
  Al  Al7  1  0.78109236  0.09530222  0.31340903  1
  Al  Al8  1  0.45654085  0.08586695  0.81558442  1
  Al  Al9  1  0.56067209  0.19676466  0.56164955  1
  Al  Al10  1  0.11109237  0.42845358  0.31072695  1
  Al  Al11  1  0.22617724  0.53495613  0.05641404  1
  Al  Al12  1  0.77389426  0.43051275  0.80631007  1
  Al  Al13  1  0.88857664  0.54891660  0.56024626  1
  Al  Al14  1  0.44430010  0.42710924  0.31167687  1
  Al  Al15  1  0.56261882  0.53438786  0.06139826  1
  Al  Al16  1  0.10697330  0.43045071  0.80903931  1
  Al  Al17  1  0.21308341  0.54860598  0.56137220  1
  Al  Al18  1  0.78277375  0.42046578  0.31754248  1
  Al  Al19  1  0.88510222  0.53951135  0.06308574  1
  Al  Al20  1  0.45076591  0.42401396  0.80648032  1
  Al  Al21  1  0.55497909  0.54345965  0.55746810  1
  Al  Al22  1  0.10513001  0.76012485  0.30420719  1
  Al  Al23  1  0.21779008  0.88355844  0.11755491  1
  Al  Al24  1  0.45332368  0.76290900  0.30421298  1
  Al  Al25  1  0.09317148  0.75950190  0.82464981  1
  Al  Al26  1  0.21560115  0.87639093  0.64246268  1
  Al  Al27  1  0.77308001  0.76511259  0.31041564  1
  Al  Al28  1  0.88141103  0.87903149  0.06884633  1
  Al  Al29  1  0.45750526  0.75742721  0.82340222  1
  Al  Al30  1  0.56275170  0.87264820  0.56443005  1
  B  B31  1  0.76570572  0.10351888  0.79923936  1
  B  B32  1  0.88712942  0.20765568  0.09788000  1
  B  B33  1  0.77464983  0.76768303  0.85611364  1
  B  B34  1  0.88097924  0.86814704  0.61354554  1
  B  B35  1  0.56503557  0.86586338  0.06059592  1
  N  N36  1  0.22686554  0.20682444  0.36855807  1
  N  N37  1  0.07511375  0.11371918  0.07264622  1
  N  N38  1  0.86956800  0.19235651  0.82166573  1
  N  N39  1  0.78246863  0.06334940  0.63998266  1
  N  N40  1  0.55569270  0.20360466  0.37146067  1
  N  N41  1  0.46196371  0.06957773  0.10969535  1
  N  N42  1  0.22220408  0.20436237  0.87096025  1
  N  N43  1  0.11853993  0.08705907  0.57779786  1
  N  N44  1  0.87881984  0.20739722  0.38791109  1
  N  N45  1  0.79337783  0.11302069  0.11788057  1
  N  N46  1  0.58163767  0.19341919  0.86148223  1
  N  N47  1  0.44583470  0.09298014  0.62860491  1
  N  N48  1  0.22077561  0.54221947  0.37286944  1
  N  N49  1  0.11096754  0.42826953  0.12134356  1
  N  N50  1  0.87446201  0.56578479  0.87151099  1
  N  N51  1  0.77583604  0.43657786  0.61986585  1
  N  N52  1  0.55412208  0.54229287  0.36711185  1
  N  N53  1  0.44696624  0.42409464  0.12091497  1
  N  N54  1  0.22721551  0.53095464  0.86941792  1
  N  N55  1  0.10998587  0.42892016  0.62235644  1
  N  N56  1  0.88757803  0.53998332  0.36923991  1
  N  N57  1  0.79412141  0.39903414  0.12012023  1
  N  N58  1  0.55741723  0.53478942  0.87599423  1
  N  N59  1  0.44463834  0.42886294  0.61808248  1
  N  N60  1  0.22116214  0.87754404  0.31038992  1
  N  N61  1  0.11093417  0.75676116  0.10850596  1
  N  N62  1  0.86387744  0.86923247  0.87734617  1
  N  N63  1  0.78974501  0.77505441  0.61517541  1
  N  N64  1  0.55328078  0.87372967  0.37716442  1
  N  N65  1  0.46406790  0.77177198  0.10781040  1
  N  N66  1  0.21935306  0.87025563  0.83697244  1
  N  N67  1  0.07587563  0.77496402  0.62917493  1
  N  N68  1  0.88573795  0.87367773  0.34561766  1
  N  N69  1  0.75132236  0.77084501  0.11815530  1
  N  N70  1  0.58197043  0.85962446  0.88949248  1
  N  N71  1  0.45215649  0.75966752  0.63038825  1
