# generated using pymatgen
data_Al31B5N36
_symmetry_space_group_name_H-M   'P 1'
_cell_length_a   9.16886433
_cell_length_b   9.18540202
_cell_length_c   9.98890518
_cell_angle_alpha   89.66111379
_cell_angle_beta   89.72662862
_cell_angle_gamma   60.15185698
_symmetry_Int_Tables_number   1
_chemical_formula_structural   Al31B5N36
_chemical_formula_sum   'Al31 B5 N36'
_cell_volume   729.65272336
_cell_formula_units_Z   1
loop_
 _symmetry_equiv_pos_site_id
 _symmetry_equiv_pos_as_xyz
  1  'x, y, z'
loop_
 _atom_site_type_symbol
 _atom_site_label
 _atom_site_symmetry_multiplicity
 _atom_site_fract_x
 _atom_site_fract_y
 _atom_site_fract_z
 _atom_site_occupancy
  Al  Al0  1  0.10913728  0.09657252  0.40004160  1
  Al  Al1  1  0.21754262  0.20387968  0.15037827  1
  Al  Al2  1  0.88717377  0.19024755  0.65100377  1
  Al  Al3  1  0.44349520  0.08749899  0.38811996  1
  Al  Al4  1  0.56802139  0.19963589  0.09439329  1
  Al  Al5  1  0.09734093  0.09104362  0.90605216  1
  Al  Al6  1  0.22251526  0.20240055  0.65180411  1
  Al  Al7  1  0.78086960  0.09638461  0.33254257  1
  Al  Al8  1  0.44807058  0.08427636  0.90427073  1
  Al  Al9  1  0.56826947  0.19230299  0.57637565  1
  Al  Al10  1  0.10866641  0.42838679  0.39995077  1
  Al  Al11  1  0.22116623  0.53987189  0.15170356  1
  Al  Al12  1  0.77851860  0.41573472  0.90404141  1
  Al  Al13  1  0.88910507  0.54356897  0.65678104  1
  Al  Al14  1  0.44077330  0.43578038  0.39903404  1
  Al  Al15  1  0.56110391  0.53686002  0.15126599  1
  Al  Al16  1  0.10435421  0.43035128  0.90110025  1
  Al  Al17  1  0.21569865  0.54069781  0.64979124  1
  Al  Al18  1  0.78060121  0.42683127  0.39944072  1
  Al  Al19  1  0.88197401  0.54061438  0.14400212  1
  Al  Al20  1  0.44373541  0.42959652  0.89736416  1
  Al  Al21  1  0.55822897  0.53771580  0.65259466  1
  Al  Al22  1  0.10511295  0.76441738  0.39571107  1
  Al  Al23  1  0.21956859  0.87786036  0.15224897  1
  Al  Al24  1  0.44787776  0.76269071  0.39606410  1
  Al  Al25  1  0.09834728  0.76585967  0.90023611  1
  Al  Al26  1  0.21958911  0.87241471  0.65005617  1
  Al  Al27  1  0.77774407  0.76425817  0.38879701  1
  Al  Al28  1  0.88537183  0.87752003  0.12849860  1
  Al  Al29  1  0.45181200  0.76084181  0.90539914  1
  Al  Al30  1  0.57030763  0.87094165  0.65442259  1
  B  B31  1  0.76979628  0.08317122  0.87237944  1
  B  B32  1  0.88999100  0.21059238  0.15774353  1
  B  B33  1  0.74940835  0.80055118  0.92134898  1
  B  B34  1  0.88895017  0.87229878  0.59951266  1
  B  B35  1  0.55216299  0.87212723  0.14799381  1
  N  N36  1  0.22104346  0.20693853  0.33857154  1
  N  N37  1  0.08401660  0.10762625  0.09717203  1
  N  N38  1  0.86964597  0.17970766  0.84341337  1
  N  N39  1  0.79905692  0.05567996  0.59437515  1
  N  N40  1  0.55692664  0.20620881  0.37762321  1
  N  N41  1  0.45258811  0.06948337  0.09832053  1
  N  N42  1  0.22057343  0.20008267  0.84454495  1
  N  N43  1  0.10860298  0.09402160  0.59036324  1
  N  N44  1  0.89684025  0.21417959  0.32393711  1
  N  N45  1  0.78915480  0.11309906  0.13755815  1
  N  N46  1  0.58084575  0.18959110  0.88650361  1
  N  N47  1  0.44265643  0.08578966  0.58655500  1
  N  N48  1  0.22055879  0.54081884  0.34144130  1
  N  N49  1  0.11022087  0.42887891  0.09021655  1
  N  N50  1  0.88021295  0.54494945  0.84668632  1
  N  N51  1  0.78186729  0.42070750  0.59198891  1
  N  N52  1  0.55732347  0.53996035  0.33984209  1
  N  N53  1  0.44134813  0.43308098  0.08978733  1
  N  N54  1  0.21804601  0.54039428  0.83830389  1
  N  N55  1  0.11001080  0.42518712  0.59039474  1
  N  N56  1  0.88702417  0.54186129  0.33567730  1
  N  N57  1  0.79018810  0.40215744  0.09589991  1
  N  N58  1  0.55637251  0.53972704  0.84253760  1
  N  N59  1  0.44295663  0.43027663  0.59327286  1
  N  N60  1  0.22251321  0.87278747  0.34269895  1
  N  N61  1  0.11643788  0.75950104  0.08836826  1
  N  N62  1  0.85337475  0.89431586  0.88928706  1
  N  N63  1  0.79424019  0.77213785  0.58460218  1
  N  N64  1  0.55820668  0.86985793  0.31445247  1
  N  N65  1  0.45450866  0.77414076  0.09720912  1
  N  N66  1  0.22362380  0.86932157  0.84147297  1
  N  N67  1  0.08429624  0.77288704  0.59182050  1
  N  N68  1  0.89271954  0.86448383  0.32379819  1
  N  N69  1  0.74583809  0.77624070  0.07990751  1
  N  N70  1  0.58076346  0.86195415  0.84611671  1
  N  N71  1  0.45053641  0.76182281  0.59019273  1
