# generated using pymatgen
data_Al31B5N36
_symmetry_space_group_name_H-M   'P 1'
_cell_length_a   9.15205273
_cell_length_b   9.16667702
_cell_length_c   10.34880864
_cell_angle_alpha   90.31550979
_cell_angle_beta   89.63982919
_cell_angle_gamma   60.03303888
_symmetry_Int_Tables_number   1
_chemical_formula_structural   Al31B5N36
_chemical_formula_sum   'Al31 B5 N36'
_cell_volume   752.08288643
_cell_formula_units_Z   1
loop_
 _symmetry_equiv_pos_site_id
 _symmetry_equiv_pos_as_xyz
  1  'x, y, z'
loop_
 _atom_site_type_symbol
 _atom_site_label
 _atom_site_symmetry_multiplicity
 _atom_site_fract_x
 _atom_site_fract_y
 _atom_site_fract_z
 _atom_site_occupancy
  Al  Al0  1  0.11762135  0.09002065  0.39958582  1
  Al  Al1  1  0.21109397  0.20864187  0.13631876  1
  Al  Al2  1  0.88878319  0.19189330  0.60909956  1
  Al  Al3  1  0.45589153  0.08239262  0.31584092  1
  Al  Al4  1  0.57249047  0.19456791  0.05934183  1
  Al  Al5  1  0.09193212  0.09551234  0.88977338  1
  Al  Al6  1  0.21059536  0.21310529  0.64736121  1
  Al  Al7  1  0.77944284  0.10318989  0.31804385  1
  Al  Al8  1  0.45796944  0.08749530  0.81536877  1
  Al  Al9  1  0.55784821  0.19702596  0.56618966  1
  Al  Al10  1  0.11137015  0.42223125  0.39186824  1
  Al  Al11  1  0.23131956  0.53864090  0.06334166  1
  Al  Al12  1  0.77254055  0.42539123  0.81573990  1
  Al  Al13  1  0.89246277  0.55656612  0.64305316  1
  Al  Al14  1  0.44558528  0.42523063  0.31644934  1
  Al  Al15  1  0.57040936  0.52650587  0.06865286  1
  Al  Al16  1  0.09655608  0.43367947  0.89417963  1
  Al  Al17  1  0.21867953  0.55056655  0.57054019  1
  Al  Al18  1  0.78331564  0.41992343  0.35459442  1
  Al  Al19  1  0.88218141  0.54220622  0.14513670  1
  Al  Al20  1  0.44965657  0.42173599  0.81665327  1
  Al  Al21  1  0.55659748  0.53109573  0.57268710  1
  Al  Al22  1  0.11292931  0.75569687  0.30843026  1
  Al  Al23  1  0.22671110  0.88250061  0.13469441  1
  Al  Al24  1  0.43501210  0.76614376  0.39671989  1
  Al  Al25  1  0.09129428  0.76296736  0.83063161  1
  Al  Al26  1  0.21863051  0.87630187  0.65288148  1
  Al  Al27  1  0.78438691  0.76555217  0.38789001  1
  Al  Al28  1  0.87957240  0.87428640  0.11771131  1
  Al  Al29  1  0.45340947  0.76690400  0.88692313  1
  Al  Al30  1  0.55611630  0.87745418  0.58904334  1
  B  B31  1  0.77173189  0.08182368  0.81237350  1
  B  B32  1  0.88738627  0.20823518  0.10467565  1
  B  B33  1  0.76898487  0.77798033  0.85207895  1
  B  B34  1  0.88563529  0.87073772  0.61789678  1
  B  B35  1  0.56214188  0.86746308  0.10154365  1
  N  N36  1  0.21756131  0.20643839  0.32135383  1
  N  N37  1  0.08000252  0.10957745  0.07850594  1
  N  N38  1  0.87512514  0.18327303  0.82199580  1
  N  N39  1  0.78007044  0.06048401  0.64216456  1
  N  N40  1  0.55558248  0.20390825  0.37985660  1
  N  N41  1  0.46556488  0.06346212  0.12214778  1
  N  N42  1  0.20789437  0.20977907  0.83451224  1
  N  N43  1  0.12214456  0.08679881  0.58292852  1
  N  N44  1  0.88381315  0.20147396  0.40262030  1
  N  N45  1  0.79312096  0.11422112  0.12632989  1
  N  N46  1  0.58024551  0.19127906  0.87230169  1
  N  N47  1  0.44079418  0.10155113  0.63281721  1
  N  N48  1  0.22523045  0.54596240  0.38362968  1
  N  N49  1  0.10413138  0.43015806  0.07904595  1
  N  N50  1  0.87625251  0.57712276  0.83041359  1
  N  N51  1  0.77688786  0.43410061  0.62856007  1
  N  N52  1  0.55664225  0.53224796  0.38397363  1
  N  N53  1  0.44924494  0.42041635  0.12981697  1
  N  N54  1  0.22705857  0.53761573  0.87830585  1
  N  N55  1  0.10801967  0.42575204  0.57752483  1
  N  N56  1  0.89137090  0.54086997  0.33207227  1
  N  N57  1  0.79613269  0.39444799  0.12099649  1
  N  N58  1  0.55804811  0.53225403  0.88450385  1
  N  N59  1  0.44394961  0.42379667  0.63274477  1
  N  N60  1  0.22604098  0.87776035  0.32073218  1
  N  N61  1  0.11791918  0.75653859  0.11907509  1
  N  N62  1  0.85634038  0.88329531  0.86497744  1
  N  N63  1  0.79975015  0.77535684  0.57794077  1
  N  N64  1  0.55277913  0.87803121  0.39373740  1
  N  N65  1  0.45847827  0.77943284  0.07912485  1
  N  N66  1  0.22481315  0.87034903  0.83737451  1
  N  N67  1  0.07673187  0.77546457  0.63627467  1
  N  N68  1  0.88391738  0.87447138  0.31671283  1
  N  N69  1  0.74434096  0.77142284  0.10480041  1
  N  N70  1  0.58637655  0.85458575  0.82860767  1
  N  N71  1  0.43342455  0.76112243  0.58614185  1
