# generated using pymatgen
data_Al31B5N36
_symmetry_space_group_name_H-M   'P 1'
_cell_length_a   9.20186882
_cell_length_b   9.24097562
_cell_length_c   10.08393546
_cell_angle_alpha   90.09805297
_cell_angle_beta   89.50236823
_cell_angle_gamma   59.74234289
_symmetry_Int_Tables_number   1
_chemical_formula_structural   Al31B5N36
_chemical_formula_sum   'Al31 B5 N36'
_cell_volume   740.61746465
_cell_formula_units_Z   1
loop_
 _symmetry_equiv_pos_site_id
 _symmetry_equiv_pos_as_xyz
  1  'x, y, z'
loop_
 _atom_site_type_symbol
 _atom_site_label
 _atom_site_symmetry_multiplicity
 _atom_site_fract_x
 _atom_site_fract_y
 _atom_site_fract_z
 _atom_site_occupancy
  Al  Al0  1  0.11757250  0.08941584  0.39613666  1
  Al  Al1  1  0.22448503  0.20407050  0.08403799  1
  Al  Al2  1  0.88410542  0.20271820  0.59388126  1
  Al  Al3  1  0.45063151  0.08762538  0.31206325  1
  Al  Al4  1  0.57560562  0.19991979  0.06240549  1
  Al  Al5  1  0.08909236  0.09786847  0.88961831  1
  Al  Al6  1  0.22478632  0.20369376  0.61927423  1
  Al  Al7  1  0.78156069  0.09609186  0.32161625  1
  Al  Al8  1  0.46664851  0.08042858  0.83285449  1
  Al  Al9  1  0.55756687  0.19816750  0.57101872  1
  Al  Al10  1  0.11066538  0.42824788  0.31737977  1
  Al  Al11  1  0.22800577  0.53532468  0.06620519  1
  Al  Al12  1  0.77071013  0.43578486  0.81537124  1
  Al  Al13  1  0.88821440  0.55010696  0.56913665  1
  Al  Al14  1  0.44370584  0.42584830  0.32238667  1
  Al  Al15  1  0.56085069  0.53519884  0.07271237  1
  Al  Al16  1  0.10379385  0.43527928  0.82757444  1
  Al  Al17  1  0.21090845  0.54829301  0.57311359  1
  Al  Al18  1  0.78302086  0.41898773  0.32796917  1
  Al  Al19  1  0.88326343  0.53676132  0.07566429  1
  Al  Al20  1  0.44864832  0.42744652  0.81617007  1
  Al  Al21  1  0.55270453  0.54520391  0.56722762  1
  Al  Al22  1  0.10798988  0.75765556  0.31414255  1
  Al  Al23  1  0.21662857  0.88500316  0.13078411  1
  Al  Al24  1  0.45156311  0.76290718  0.31555915  1
  Al  Al25  1  0.09106910  0.76005384  0.84041932  1
  Al  Al26  1  0.21279559  0.87598966  0.65282503  1
  Al  Al27  1  0.77083731  0.76221887  0.32192561  1
  Al  Al28  1  0.88365445  0.87191829  0.09252880  1
  Al  Al29  1  0.45430189  0.75928950  0.83481452  1
  Al  Al30  1  0.56149378  0.87329451  0.57354410  1
  B  B31  1  0.75672991  0.13265823  0.79989791  1
  B  B32  1  0.88686549  0.20727052  0.10823345  1
  B  B33  1  0.77889123  0.75697675  0.88285889  1
  B  B34  1  0.88005262  0.86895043  0.62778905  1
  B  B35  1  0.56538719  0.86299276  0.07177546  1
  N  N36  1  0.22395003  0.20307901  0.34570527  1
  N  N37  1  0.07514374  0.11377391  0.08189913  1
  N  N38  1  0.86819394  0.20066976  0.83134981  1
  N  N39  1  0.78154334  0.06911044  0.65096093  1
  N  N40  1  0.55606304  0.20240734  0.38182921  1
  N  N41  1  0.46890113  0.06720964  0.11485160  1
  N  N42  1  0.22367562  0.20294967  0.87527452  1
  N  N43  1  0.11890554  0.08747068  0.58780468  1
  N  N44  1  0.88092846  0.20567149  0.39792126  1
  N  N45  1  0.79559281  0.11279932  0.12717073  1
  N  N46  1  0.58551365  0.19700270  0.86992197  1
  N  N47  1  0.45107489  0.09001749  0.64413513  1
  N  N48  1  0.21917369  0.54112449  0.38442224  1
  N  N49  1  0.10876432  0.43354088  0.12636170  1
  N  N50  1  0.87165741  0.55928494  0.88433832  1
  N  N51  1  0.77436445  0.43879490  0.62845969  1
  N  N52  1  0.55330110  0.54182573  0.37706836  1
  N  N53  1  0.44853223  0.42163792  0.13136441  1
  N  N54  1  0.22898309  0.53114863  0.87978626  1
  N  N55  1  0.10690929  0.43171213  0.63818785  1
  N  N56  1  0.88813152  0.53780186  0.37919269  1
  N  N57  1  0.79343286  0.39746671  0.13141395  1
  N  N58  1  0.55463325  0.53731508  0.88630801  1
  N  N59  1  0.44341118  0.42967027  0.62781641  1
  N  N60  1  0.21963050  0.87714124  0.32518954  1
  N  N61  1  0.11805474  0.75425437  0.11949128  1
  N  N62  1  0.87371253  0.84277982  0.90262733  1
  N  N63  1  0.79079742  0.77873954  0.61265883  1
  N  N64  1  0.55046469  0.87492053  0.38724211  1
  N  N65  1  0.46085454  0.77300597  0.11934785  1
  N  N66  1  0.21543400  0.87316720  0.84640477  1
  N  N67  1  0.07367469  0.77614799  0.64117560  1
  N  N68  1  0.88401880  0.87298489  0.33407847  1
  N  N69  1  0.74798314  0.76413379  0.13126536  1
  N  N70  1  0.58342930  0.85491506  0.90300328  1
  N  N71  1  0.45044818  0.76115207  0.64079125  1
