# generated using pymatgen
data_Al31B5N36
_symmetry_space_group_name_H-M   'P 1'
_cell_length_a   9.13717809
_cell_length_b   9.22115874
_cell_length_c   10.36019535
_cell_angle_alpha   90.65118663
_cell_angle_beta   89.84118769
_cell_angle_gamma   59.93078908
_symmetry_Int_Tables_number   1
_chemical_formula_structural   Al31B5N36
_chemical_formula_sum   'Al31 B5 N36'
_cell_volume   755.34267716
_cell_formula_units_Z   1
loop_
 _symmetry_equiv_pos_site_id
 _symmetry_equiv_pos_as_xyz
  1  'x, y, z'
loop_
 _atom_site_type_symbol
 _atom_site_label
 _atom_site_symmetry_multiplicity
 _atom_site_fract_x
 _atom_site_fract_y
 _atom_site_fract_z
 _atom_site_occupancy
  Al  Al0  1  0.11788298  0.09152118  0.39726130  1
  Al  Al1  1  0.21254917  0.20632585  0.13580938  1
  Al  Al2  1  0.88597826  0.20103242  0.58775698  1
  Al  Al3  1  0.45258915  0.08822222  0.31668514  1
  Al  Al4  1  0.57340903  0.19539246  0.05896492  1
  Al  Al5  1  0.09376909  0.09593421  0.88962882  1
  Al  Al6  1  0.21334679  0.21133168  0.64815457  1
  Al  Al7  1  0.78221122  0.09601238  0.31930159  1
  Al  Al8  1  0.46984364  0.07760269  0.81546413  1
  Al  Al9  1  0.55630084  0.19996851  0.56732407  1
  Al  Al10  1  0.10732720  0.42606893  0.39122320  1
  Al  Al11  1  0.23138517  0.53797572  0.06352795  1
  Al  Al12  1  0.76912537  0.43161893  0.81590302  1
  Al  Al13  1  0.88795809  0.55776151  0.63748814  1
  Al  Al14  1  0.44321420  0.42599433  0.31729391  1
  Al  Al15  1  0.56778415  0.52622788  0.07165833  1
  Al  Al16  1  0.10232518  0.42719937  0.89224376  1
  Al  Al17  1  0.21511307  0.55394883  0.57044815  1
  Al  Al18  1  0.78051632  0.41691045  0.32510837  1
  Al  Al19  1  0.88878306  0.53589468  0.13744515  1
  Al  Al20  1  0.44855164  0.42622482  0.81481284  1
  Al  Al21  1  0.55837867  0.53230141  0.56567430  1
  Al  Al22  1  0.10609229  0.75898184  0.31223983  1
  Al  Al23  1  0.22370059  0.88140530  0.13803437  1
  Al  Al24  1  0.43350547  0.76611881  0.39247111  1
  Al  Al25  1  0.09403381  0.75652362  0.83053545  1
  Al  Al26  1  0.21876522  0.87693174  0.65215366  1
  Al  Al27  1  0.77083757  0.77047372  0.32754400  1
  Al  Al28  1  0.88472782  0.87163644  0.07616055  1
  Al  Al29  1  0.45079856  0.76803397  0.89312906  1
  Al  Al30  1  0.56151160  0.87762559  0.57351991  1
  B  B31  1  0.75791471  0.13116424  0.79979198  1
  B  B32  1  0.88822595  0.20197617  0.10453284  1
  B  B33  1  0.77718278  0.75778454  0.86359617  1
  B  B34  1  0.88180612  0.87251574  0.62276053  1
  B  B35  1  0.55864029  0.87037561  0.10355316  1
  N  N36  1  0.21578512  0.20891357  0.32074434  1
  N  N37  1  0.08009864  0.10797062  0.07904434  1
  N  N38  1  0.86969244  0.19709496  0.83657554  1
  N  N39  1  0.78147421  0.07243274  0.64996381  1
  N  N40  1  0.55491265  0.20584927  0.38096664  1
  N  N41  1  0.46520019  0.06464034  0.12149503  1
  N  N42  1  0.21588407  0.20313566  0.83491249  1
  N  N43  1  0.12116063  0.08814183  0.58164741  1
  N  N44  1  0.88152021  0.20769795  0.39635744  1
  N  N45  1  0.79579643  0.10720749  0.12614599  1
  N  N46  1  0.58421353  0.19498811  0.86872921  1
  N  N47  1  0.44632740  0.09628674  0.63324772  1
  N  N48  1  0.22388548  0.54696636  0.38419781  1
  N  N49  1  0.10933974  0.42461877  0.07666281  1
  N  N50  1  0.87545547  0.56289239  0.84030273  1
  N  N51  1  0.77419240  0.43406908  0.63102829  1
  N  N52  1  0.55744654  0.53332416  0.37742712  1
  N  N53  1  0.44951121  0.41823403  0.13052967  1
  N  N54  1  0.23076343  0.53266003  0.87847220  1
  N  N55  1  0.10818430  0.42491040  0.57801709  1
  N  N56  1  0.89148129  0.53807508  0.32560916  1
  N  N57  1  0.79441069  0.39041444  0.13044393  1
  N  N58  1  0.55552963  0.53445682  0.88879855  1
  N  N59  1  0.44361915  0.42776589  0.63076764  1
  N  N60  1  0.22239769  0.87981220  0.32151009  1
  N  N61  1  0.11592894  0.75449462  0.12379410  1
  N  N62  1  0.87713616  0.84066739  0.89657881  1
  N  N63  1  0.79246975  0.78219543  0.60354713  1
  N  N64  1  0.55111099  0.87954608  0.38699776  1
  N  N65  1  0.45835024  0.77847832  0.08591092  1
  N  N66  1  0.22321658  0.87068799  0.83832230  1
  N  N67  1  0.07541584  0.77703508  0.64126925  1
  N  N68  1  0.88638512  0.87759076  0.35065515  1
  N  N69  1  0.74354419  0.77506089  0.13090596  1
  N  N70  1  0.59086614  0.85217220  0.85510403  1
  N  N71  1  0.43529516  0.76298258  0.58203416  1
