# generated using pymatgen
data_Al31B5N36
_symmetry_space_group_name_H-M   'P 1'
_cell_length_a   9.13640688
_cell_length_b   9.11279021
_cell_length_c   10.28987506
_cell_angle_alpha   90.18231961
_cell_angle_beta   89.51614887
_cell_angle_gamma   60.16735665
_symmetry_Int_Tables_number   1
_chemical_formula_structural   Al31B5N36
_chemical_formula_sum   'Al31 B5 N36'
_cell_volume   743.13248493
_cell_formula_units_Z   1
loop_
 _symmetry_equiv_pos_site_id
 _symmetry_equiv_pos_as_xyz
  1  'x, y, z'
loop_
 _atom_site_type_symbol
 _atom_site_label
 _atom_site_symmetry_multiplicity
 _atom_site_fract_x
 _atom_site_fract_y
 _atom_site_fract_z
 _atom_site_occupancy
  Al  Al0  1  0.11480783  0.09447071  0.40584348  1
  Al  Al1  1  0.20864138  0.20646771  0.14561446  1
  Al  Al2  1  0.88692931  0.19411156  0.63086191  1
  Al  Al3  1  0.45321159  0.08349335  0.32315697  1
  Al  Al4  1  0.57013290  0.18853999  0.07689991  1
  Al  Al5  1  0.09879974  0.09238451  0.89693886  1
  Al  Al6  1  0.21334122  0.21206391  0.65520920  1
  Al  Al7  1  0.78100855  0.10404717  0.32922426  1
  Al  Al8  1  0.46161323  0.08674045  0.82476774  1
  Al  Al9  1  0.56575665  0.18954176  0.56801959  1
  Al  Al10  1  0.11115747  0.42565429  0.40035890  1
  Al  Al11  1  0.22089121  0.53843185  0.15255997  1
  Al  Al12  1  0.77771303  0.42204217  0.89368176  1
  Al  Al13  1  0.88800095  0.55265536  0.65322356  1
  Al  Al14  1  0.44110354  0.43481206  0.39783105  1
  Al  Al15  1  0.56128445  0.53341765  0.14888437  1
  Al  Al16  1  0.10342596  0.43804258  0.90328322  1
  Al  Al17  1  0.21837859  0.54172835  0.64802253  1
  Al  Al18  1  0.77707602  0.43112176  0.40940765  1
  Al  Al19  1  0.87965338  0.53772980  0.15353645  1
  Al  Al20  1  0.44457263  0.42946044  0.89889958  1
  Al  Al21  1  0.55365949  0.53883961  0.65593282  1
  Al  Al22  1  0.10450090  0.76765537  0.39746660  1
  Al  Al23  1  0.21723912  0.87725062  0.14949081  1
  Al  Al24  1  0.43986023  0.75871913  0.40322355  1
  Al  Al25  1  0.09988904  0.76526934  0.90028736  1
  Al  Al26  1  0.21574535  0.87266104  0.65493857  1
  Al  Al27  1  0.78303025  0.76267106  0.39122929  1
  Al  Al28  1  0.88392976  0.86914100  0.13996458  1
  Al  Al29  1  0.45470014  0.76369191  0.89806811  1
  Al  Al30  1  0.55767424  0.87640223  0.59324728  1
  B  B31  1  0.77558685  0.07928989  0.85682562  1
  B  B32  1  0.88569180  0.20496645  0.11061352  1
  B  B33  1  0.76973974  0.77859465  0.86131093  1
  B  B34  1  0.88776949  0.87375251  0.60183506  1
  B  B35  1  0.55951391  0.86540785  0.11139758  1
  N  N36  1  0.21875381  0.20700297  0.33079200  1
  N  N37  1  0.07813042  0.10713093  0.08744253  1
  N  N38  1  0.87278996  0.18137931  0.83538461  1
  N  N39  1  0.79289020  0.05671956  0.60609996  1
  N  N40  1  0.55587937  0.20146146  0.37992702  1
  N  N41  1  0.46078756  0.06083095  0.13027592  1
  N  N42  1  0.21103681  0.21040128  0.84500147  1
  N  N43  1  0.11812131  0.09070009  0.59250724  1
  N  N44  1  0.89113723  0.20818456  0.38009296  1
  N  N45  1  0.79061855  0.11288755  0.13481673  1
  N  N46  1  0.58669364  0.18551609  0.88787086  1
  N  N47  1  0.44476206  0.10111796  0.64260637  1
  N  N48  1  0.22048830  0.54125366  0.33824462  1
  N  N49  1  0.10534306  0.43152242  0.08812307  1
  N  N50  1  0.87568609  0.57309976  0.84362453  1
  N  N51  1  0.77710612  0.43475451  0.59948441  1
  N  N52  1  0.55875218  0.53885501  0.33369618  1
  N  N53  1  0.44152793  0.42779236  0.08634812  1
  N  N54  1  0.22259226  0.53892402  0.83459670  1
  N  N55  1  0.10950892  0.42838842  0.58710308  1
  N  N56  1  0.88937512  0.53679299  0.33890549  1
  N  N57  1  0.79172791  0.39734980  0.08466804  1
  N  N58  1  0.55579028  0.53882762  0.84093711  1
  N  N59  1  0.44415901  0.43023915  0.58633944  1
  N  N60  1  0.22258793  0.87324492  0.33495353  1
  N  N61  1  0.11233831  0.75845752  0.08527832  1
  N  N62  1  0.85952969  0.88528606  0.87000791  1
  N  N63  1  0.80020527  0.77100841  0.58406071  1
  N  N64  1  0.55169875  0.87805148  0.40036127  1
  N  N65  1  0.45540661  0.77415551  0.08968649  1
  N  N66  1  0.22505282  0.86849814  0.84148443  1
  N  N67  1  0.08513404  0.77461820  0.58922541  1
  N  N68  1  0.89264919  0.86929800  0.32585983  1
  N  N69  1  0.74219761  0.77168838  0.11799674  1
  N  N70  1  0.58755648  0.85496052  0.84354963  1
  N  N71  1  0.43693352  0.75626417  0.59138464  1
