# generated using pymatgen
data_Al31B5N36
_symmetry_space_group_name_H-M   'P 1'
_cell_length_a   9.15929570
_cell_length_b   9.14055759
_cell_length_c   10.29359440
_cell_angle_alpha   90.11658950
_cell_angle_beta   89.57991329
_cell_angle_gamma   60.15988546
_symmetry_Int_Tables_number   1
_chemical_formula_structural   Al31B5N36
_chemical_formula_sum   'Al31 B5 N36'
_cell_volume   747.49605099
_cell_formula_units_Z   1
loop_
 _symmetry_equiv_pos_site_id
 _symmetry_equiv_pos_as_xyz
  1  'x, y, z'
loop_
 _atom_site_type_symbol
 _atom_site_label
 _atom_site_symmetry_multiplicity
 _atom_site_fract_x
 _atom_site_fract_y
 _atom_site_fract_z
 _atom_site_occupancy
  Al  Al0  1  0.11533454  0.09153302  0.39848167  1
  Al  Al1  1  0.21226825  0.20839931  0.13661002  1
  Al  Al2  1  0.88705623  0.19802622  0.61511962  1
  Al  Al3  1  0.45687896  0.08118369  0.31673894  1
  Al  Al4  1  0.57180775  0.19437324  0.05798744  1
  Al  Al5  1  0.09688863  0.09329733  0.88603136  1
  Al  Al6  1  0.21303637  0.21302801  0.64609900  1
  Al  Al7  1  0.78069871  0.10485190  0.31569508  1
  Al  Al8  1  0.46055099  0.08395166  0.81419884  1
  Al  Al9  1  0.55965598  0.19889856  0.56615038  1
  Al  Al10  1  0.10974349  0.42243089  0.39205429  1
  Al  Al11  1  0.22946051  0.53900988  0.06259300  1
  Al  Al12  1  0.77834048  0.41992623  0.88294105  1
  Al  Al13  1  0.88947053  0.55382837  0.64534854  1
  Al  Al14  1  0.44288748  0.42274110  0.31492046  1
  Al  Al15  1  0.56536397  0.53781889  0.13167058  1
  Al  Al16  1  0.09826744  0.43187274  0.89295250  1
  Al  Al17  1  0.22063551  0.55012556  0.57058687  1
  Al  Al18  1  0.77476918  0.43167624  0.40111862  1
  Al  Al19  1  0.88185846  0.53862789  0.14464812  1
  Al  Al20  1  0.44598009  0.41628050  0.81821253  1
  Al  Al21  1  0.55672817  0.54498380  0.64852177  1
  Al  Al22  1  0.11150481  0.75697490  0.30878062  1
  Al  Al23  1  0.22419331  0.88404484  0.13506054  1
  Al  Al24  1  0.43964989  0.75616629  0.39227520  1
  Al  Al25  1  0.09139786  0.76331907  0.82970523  1
  Al  Al26  1  0.21802069  0.87671577  0.64906699  1
  Al  Al27  1  0.78573913  0.76259654  0.38515228  1
  Al  Al28  1  0.87920365  0.87380636  0.11493790  1
  Al  Al29  1  0.45386651  0.76347569  0.88950882  1
  Al  Al30  1  0.55635576  0.87669116  0.58305366  1
  B  B31  1  0.77192912  0.08111257  0.81021584  1
  B  B32  1  0.88758885  0.20640977  0.09386399  1
  B  B33  1  0.76847862  0.77606098  0.85465623  1
  B  B34  1  0.88589888  0.87011929  0.61746555  1
  B  B35  1  0.56192219  0.86714016  0.10090336  1
  N  N36  1  0.22000042  0.20594902  0.32195859  1
  N  N37  1  0.07979975  0.11013463  0.07658408  1
  N  N38  1  0.87574174  0.18888125  0.82107532  1
  N  N39  1  0.78122176  0.06082093  0.64509723  1
  N  N40  1  0.55752882  0.20342670  0.37939680  1
  N  N41  1  0.46595534  0.06185136  0.12146732  1
  N  N42  1  0.21279097  0.20785699  0.83437175  1
  N  N43  1  0.12014905  0.08967353  0.58354155  1
  N  N44  1  0.88481899  0.20197492  0.39582469  1
  N  N45  1  0.79276716  0.11629325  0.12269779  1
  N  N46  1  0.58232261  0.18876324  0.87175602  1
  N  N47  1  0.44299193  0.09969465  0.63075501  1
  N  N48  1  0.22550190  0.54601064  0.38352199  1
  N  N49  1  0.10316381  0.42964060  0.07884356  1
  N  N50  1  0.87488455  0.57200694  0.83348209  1
  N  N51  1  0.77514118  0.44153074  0.58945055  1
  N  N52  1  0.56265232  0.53968456  0.32082830  1
  N  N53  1  0.44566892  0.41645333  0.12532670  1
  N  N54  1  0.22536870  0.53814080  0.87749035  1
  N  N55  1  0.10707557  0.42753905  0.57955941  1
  N  N56  1  0.89027012  0.53588162  0.33023429  1
  N  N57  1  0.79451693  0.39792228  0.07416094  1
  N  N58  1  0.55551112  0.53967116  0.83924429  1
  N  N59  1  0.44368062  0.42280595  0.63187226  1
  N  N60  1  0.22573860  0.87806047  0.32146978  1
  N  N61  1  0.11728676  0.75693550  0.11797596  1
  N  N62  1  0.85747086  0.88140591  0.86740932  1
  N  N63  1  0.80020703  0.77464371  0.57807849  1
  N  N64  1  0.55409891  0.87448578  0.39192222  1
  N  N65  1  0.45704616  0.77767920  0.07843877  1
  N  N66  1  0.22609975  0.86931568  0.83544726  1
  N  N67  1  0.07642093  0.77611083  0.63507151  1
  N  N68  1  0.88275068  0.87497259  0.31447366  1
  N  N69  1  0.74345166  0.76960188  0.10432153  1
  N  N70  1  0.58696740  0.85285464  0.83135623  1
  N  N71  1  0.43359240  0.75631508  0.58010369  1
