# generated using pymatgen
data_Al31B5N36
_symmetry_space_group_name_H-M   'P 1'
_cell_length_a   9.18760733
_cell_length_b   9.21887406
_cell_length_c   10.12146928
_cell_angle_alpha   90.06231010
_cell_angle_beta   89.47602620
_cell_angle_gamma   59.72740856
_symmetry_Int_Tables_number   1
_chemical_formula_structural   Al31B5N36
_chemical_formula_sum   'Al31 B5 N36'
_cell_volume   740.33349233
_cell_formula_units_Z   1
loop_
 _symmetry_equiv_pos_site_id
 _symmetry_equiv_pos_as_xyz
  1  'x, y, z'
loop_
 _atom_site_type_symbol
 _atom_site_label
 _atom_site_symmetry_multiplicity
 _atom_site_fract_x
 _atom_site_fract_y
 _atom_site_fract_z
 _atom_site_occupancy
  Al  Al0  1  0.11360309  0.08597260  0.39127320  1
  Al  Al1  1  0.22642979  0.20375511  0.06382429  1
  Al  Al2  1  0.88467960  0.20317302  0.58875269  1
  Al  Al3  1  0.44925279  0.08925847  0.30883431  1
  Al  Al4  1  0.57385486  0.19928250  0.05584405  1
  Al  Al5  1  0.08911156  0.09781744  0.88139076  1
  Al  Al6  1  0.22895385  0.20850111  0.56759300  1
  Al  Al7  1  0.78081845  0.09643001  0.31437059  1
  Al  Al8  1  0.46180798  0.08250075  0.81944674  1
  Al  Al9  1  0.55874190  0.19903615  0.56455949  1
  Al  Al10  1  0.11170133  0.42795781  0.31488640  1
  Al  Al11  1  0.22780253  0.53249958  0.06004817  1
  Al  Al12  1  0.77120568  0.43564280  0.80898984  1
  Al  Al13  1  0.88809881  0.55106977  0.56283817  1
  Al  Al14  1  0.44409207  0.42704366  0.31543191  1
  Al  Al15  1  0.56175150  0.53404555  0.06519832  1
  Al  Al16  1  0.10762684  0.42832447  0.81392255  1
  Al  Al17  1  0.21077462  0.55071841  0.56638258  1
  Al  Al18  1  0.78206255  0.42040291  0.32107740  1
  Al  Al19  1  0.88605427  0.53469898  0.06945202  1
  Al  Al20  1  0.44836672  0.42695784  0.80958858  1
  Al  Al21  1  0.55264715  0.54640418  0.56115631  1
  Al  Al22  1  0.10779877  0.75839341  0.30599015  1
  Al  Al23  1  0.21726402  0.88388393  0.12110891  1
  Al  Al24  1  0.45224468  0.76306667  0.30747614  1
  Al  Al25  1  0.09202077  0.75763066  0.83328851  1
  Al  Al26  1  0.21279539  0.87851697  0.64854533  1
  Al  Al27  1  0.77142551  0.76299892  0.31491846  1
  Al  Al28  1  0.88373959  0.87232787  0.08271332  1
  Al  Al29  1  0.45523166  0.75912330  0.82854622  1
  Al  Al30  1  0.56125852  0.87438386  0.56691612  1
  B  B31  1  0.75623428  0.13147831  0.79434802  1
  B  B32  1  0.88718770  0.20690533  0.10152528  1
  B  B33  1  0.77927314  0.75716699  0.87591444  1
  B  B34  1  0.88005854  0.86982135  0.62193975  1
  B  B35  1  0.56491550  0.86268553  0.06595844  1
  N  N36  1  0.22729918  0.20737149  0.37355470  1
  N  N37  1  0.07556219  0.11391893  0.07561613  1
  N  N38  1  0.86735382  0.20041579  0.82611996  1
  N  N39  1  0.78130091  0.06981497  0.64519119  1
  N  N40  1  0.55602925  0.20380432  0.37535778  1
  N  N41  1  0.46397062  0.06857998  0.11356254  1
  N  N42  1  0.22553054  0.20189131  0.87466219  1
  N  N43  1  0.11829021  0.08794310  0.58166895  1
  N  N44  1  0.87907470  0.20712563  0.39095002  1
  N  N45  1  0.79507057  0.11221390  0.12028569  1
  N  N46  1  0.58388848  0.19570701  0.86317958  1
  N  N47  1  0.44654043  0.09385457  0.63279192  1
  N  N48  1  0.21988560  0.54291452  0.37793333  1
  N  N49  1  0.11260683  0.42641219  0.12587861  1
  N  N50  1  0.87459193  0.55754717  0.87799329  1
  N  N51  1  0.77435941  0.43945103  0.62261553  1
  N  N52  1  0.55288340  0.54315257  0.37116347  1
  N  N53  1  0.44870798  0.42154448  0.12487663  1
  N  N54  1  0.22824269  0.52802044  0.87364699  1
  N  N55  1  0.10890143  0.43004294  0.62724620  1
  N  N56  1  0.88778714  0.53847987  0.37289517  1
  N  N57  1  0.79348139  0.39745114  0.12519643  1
  N  N58  1  0.55483683  0.53672104  0.87977304  1
  N  N59  1  0.44344766  0.43091240  0.62172081  1
  N  N60  1  0.21991304  0.87877157  0.31434961  1
  N  N61  1  0.11745497  0.75269398  0.11253436  1
  N  N62  1  0.87361290  0.84395774  0.89481806  1
  N  N63  1  0.79031519  0.77960012  0.60744991  1
  N  N64  1  0.55077442  0.87469342  0.38058526  1
  N  N65  1  0.46226373  0.77133085  0.11220100  1
  N  N66  1  0.21611891  0.87179713  0.84164036  1
  N  N67  1  0.07398228  0.77703718  0.63596285  1
  N  N68  1  0.88466285  0.87351128  0.33129243  1
  N  N69  1  0.74917607  0.76444119  0.12442028  1
  N  N70  1  0.58285176  0.85669574  0.89673786  1
  N  N71  1  0.45073010  0.76212519  0.63539309  1
