# generated using pymatgen
data_Al31B5N36
_symmetry_space_group_name_H-M   'P 1'
_cell_length_a   9.19999697
_cell_length_b   9.19777769
_cell_length_c   9.79605762
_cell_angle_alpha   89.62993576
_cell_angle_beta   89.44321847
_cell_angle_gamma   59.85216144
_symmetry_Int_Tables_number   1
_chemical_formula_structural   Al31B5N36
_chemical_formula_sum   'Al31 B5 N36'
_cell_volume   716.77429012
_cell_formula_units_Z   1
loop_
 _symmetry_equiv_pos_site_id
 _symmetry_equiv_pos_as_xyz
  1  'x, y, z'
loop_
 _atom_site_type_symbol
 _atom_site_label
 _atom_site_symmetry_multiplicity
 _atom_site_fract_x
 _atom_site_fract_y
 _atom_site_fract_z
 _atom_site_occupancy
  Al  Al0  1  0.10409223  0.09725596  0.31000077  1
  Al  Al1  1  0.22101317  0.20279470  0.06250357  1
  Al  Al2  1  0.88649324  0.19868388  0.57385634  1
  Al  Al3  1  0.44860003  0.08788040  0.30628770  1
  Al  Al4  1  0.57180945  0.19739523  0.05593973  1
  Al  Al5  1  0.10570183  0.09739702  0.82073285  1
  Al  Al6  1  0.22133051  0.20315738  0.56271471  1
  Al  Al7  1  0.78175157  0.09300889  0.31477187  1
  Al  Al8  1  0.45290086  0.08551317  0.81813228  1
  Al  Al9  1  0.55790481  0.19795228  0.56472604  1
  Al  Al10  1  0.10884832  0.42883136  0.31211232  1
  Al  Al11  1  0.22120488  0.54073338  0.06052440  1
  Al  Al12  1  0.78020429  0.42790724  0.82120520  1
  Al  Al13  1  0.88615908  0.54461998  0.56972554  1
  Al  Al14  1  0.44495110  0.42571694  0.31117409  1
  Al  Al15  1  0.56248642  0.53633014  0.06318570  1
  Al  Al16  1  0.10793921  0.43338890  0.81208224  1
  Al  Al17  1  0.21664863  0.54210387  0.56226013  1
  Al  Al18  1  0.78174696  0.42221500  0.31014718  1
  Al  Al19  1  0.88181492  0.54649414  0.05882949  1
  Al  Al20  1  0.45253942  0.42251097  0.80996751  1
  Al  Al21  1  0.55675809  0.53900884  0.56137662  1
  Al  Al22  1  0.10401793  0.76432926  0.31934038  1
  Al  Al23  1  0.21875255  0.87777048  0.06318291  1
  Al  Al24  1  0.44741805  0.76460840  0.30772522  1
  Al  Al25  1  0.09837502  0.76860943  0.80848233  1
  Al  Al26  1  0.21726016  0.87386215  0.56357950  1
  Al  Al27  1  0.77360374  0.76605768  0.31623775  1
  Al  Al28  1  0.87904152  0.88283831  0.05589389  1
  Al  Al29  1  0.44979724  0.76011659  0.81960257  1
  Al  Al30  1  0.55985507  0.87162774  0.56909712  1
  B  B31  1  0.76049775  0.06261460  0.79643200  1
  B  B32  1  0.89157836  0.20603562  0.05578999  1
  B  B33  1  0.77651644  0.76778476  0.81198451  1
  B  B34  1  0.88674751  0.86964971  0.57222438  1
  B  B35  1  0.56534342  0.86929152  0.05661932  1
  N  N36  1  0.22321486  0.20285722  0.36670460  1
  N  N37  1  0.08748077  0.10696123  0.11617821  1
  N  N38  1  0.89112494  0.20961654  0.89537801  1
  N  N39  1  0.78560861  0.06575991  0.63875130  1
  N  N40  1  0.55663573  0.20169283  0.37064985  1
  N  N41  1  0.46144921  0.06924627  0.10805330  1
  N  N42  1  0.22561240  0.20696921  0.87176778  1
  N  N43  1  0.10864567  0.09429298  0.62733961  1
  N  N44  1  0.88635099  0.20441720  0.38220188  1
  N  N45  1  0.79406689  0.10515543  0.11939606  1
  N  N46  1  0.58608367  0.18586527  0.85875975  1
  N  N47  1  0.44224282  0.09300980  0.62610336  1
  N  N48  1  0.22137806  0.53874875  0.37034888  1
  N  N49  1  0.10812025  0.43017057  0.11892565  1
  N  N50  1  0.87603053  0.57219860  0.86407313  1
  N  N51  1  0.77762302  0.42555282  0.62757659  1
  N  N52  1  0.55568086  0.53963903  0.36632085  1
  N  N53  1  0.44601409  0.42364213  0.11714253  1
  N  N54  1  0.22378644  0.54112090  0.86750496  1
  N  N55  1  0.11047162  0.42643428  0.62059585  1
  N  N56  1  0.88515061  0.54163923  0.37371886  1
  N  N57  1  0.79234812  0.40562800  0.11481975  1
  N  N58  1  0.55596273  0.53716077  0.87346271  1
  N  N59  1  0.44456431  0.42634347  0.61804088  1
  N  N60  1  0.22236385  0.87230143  0.36855589  1
  N  N61  1  0.10316932  0.76458790  0.12272089  1
  N  N62  1  0.86144768  0.88304912  0.86100148  1
  N  N63  1  0.78569713  0.77316328  0.63890988  1
  N  N64  1  0.55480980  0.87208395  0.37861044  1
  N  N65  1  0.45851329  0.77482371  0.11112469  1
  N  N66  1  0.22030827  0.87036589  0.87149182  1
  N  N67  1  0.08368847  0.77388801  0.61520840  1
  N  N68  1  0.88265709  0.87427460  0.39962047  1
  N  N69  1  0.75434758  0.77760286  0.11969926  1
  N  N70  1  0.58106312  0.85873564  0.88202080  1
  N  N71  1  0.44340148  0.76103062  0.62533370  1
