# generated using pymatgen
data_Al31B5N36
_symmetry_space_group_name_H-M   'P 1'
_cell_length_a   9.18783546
_cell_length_b   9.21922336
_cell_length_c   10.12138735
_cell_angle_alpha   90.06075450
_cell_angle_beta   89.47446317
_cell_angle_gamma   59.72511172
_symmetry_Int_Tables_number   1
_chemical_formula_structural   Al31B5N36
_chemical_formula_sum   'Al31 B5 N36'
_cell_volume   740.35649678
_cell_formula_units_Z   1
loop_
 _symmetry_equiv_pos_site_id
 _symmetry_equiv_pos_as_xyz
  1  'x, y, z'
loop_
 _atom_site_type_symbol
 _atom_site_label
 _atom_site_symmetry_multiplicity
 _atom_site_fract_x
 _atom_site_fract_y
 _atom_site_fract_z
 _atom_site_occupancy
  Al  Al0  1  0.11352358  0.08592477  0.39585751  1
  Al  Al1  1  0.22636913  0.20370444  0.06839214  1
  Al  Al2  1  0.88460562  0.20314150  0.59336253  1
  Al  Al3  1  0.44917667  0.08920268  0.31339970  1
  Al  Al4  1  0.57380994  0.19921051  0.06039868  1
  Al  Al5  1  0.08903152  0.09779886  0.88596054  1
  Al  Al6  1  0.22887860  0.20845501  0.57217421  1
  Al  Al7  1  0.78072029  0.09641783  0.31889283  1
  Al  Al8  1  0.46174869  0.08244900  0.82402614  1
  Al  Al9  1  0.55866502  0.19899405  0.56914014  1
  Al  Al10  1  0.11162746  0.42790049  0.31945896  1
  Al  Al11  1  0.22776447  0.53240852  0.06460945  1
  Al  Al12  1  0.77112089  0.43563013  0.81356206  1
  Al  Al13  1  0.88803023  0.55103033  0.56739688  1
  Al  Al14  1  0.44401435  0.42698256  0.32001012  1
  Al  Al15  1  0.56166622  0.53399281  0.06978110  1
  Al  Al16  1  0.10755376  0.42828771  0.81849305  1
  Al  Al17  1  0.21068818  0.55069189  0.57098002  1
  Al  Al18  1  0.78198197  0.42033330  0.32565987  1
  Al  Al19  1  0.88598801  0.53460456  0.07402414  1
  Al  Al20  1  0.44829213  0.42692289  0.81416170  1
  Al  Al21  1  0.55256201  0.54637578  0.56573420  1
  Al  Al22  1  0.10777813  0.75829766  0.31048800  1
  Al  Al23  1  0.21718226  0.88385427  0.12564485  1
  Al  Al24  1  0.45213415  0.76302145  0.31203556  1
  Al  Al25  1  0.09192388  0.75761492  0.83797851  1
  Al  Al26  1  0.21270762  0.87847734  0.65315079  1
  Al  Al27  1  0.77129329  0.76288592  0.31944993  1
  Al  Al28  1  0.88366858  0.87223191  0.08754844  1
  Al  Al29  1  0.45514996  0.75908679  0.83313711  1
  Al  Al30  1  0.56117206  0.87434836  0.57147923  1
  B  B31  1  0.75614622  0.13147979  0.79891658  1
  B  B32  1  0.88710535  0.20687679  0.10608991  1
  B  B33  1  0.77921252  0.75711438  0.88061119  1
  B  B34  1  0.87998940  0.86978567  0.62657348  1
  B  B35  1  0.56482687  0.86259355  0.07052249  1
  N  N36  1  0.22722233  0.20731779  0.37813287  1
  N  N37  1  0.07548411  0.11389681  0.08017948  1
  N  N38  1  0.86727881  0.20039921  0.83065741  1
  N  N39  1  0.78122417  0.06977591  0.64977995  1
  N  N40  1  0.55596090  0.20373340  0.37993858  1
  N  N41  1  0.46391051  0.06852054  0.11813477  1
  N  N42  1  0.22546503  0.20185013  0.87922865  1
  N  N43  1  0.11821836  0.08789914  0.58625485  1
  N  N44  1  0.87898705  0.20704834  0.39554651  1
  N  N45  1  0.79499392  0.11221625  0.12482912  1
  N  N46  1  0.58381849  0.19566962  0.86774243  1
  N  N47  1  0.44647131  0.09380838  0.63736750  1
  N  N48  1  0.21979004  0.54287504  0.38251703  1
  N  N49  1  0.11254051  0.42636000  0.13045299  1
  N  N50  1  0.87452456  0.55748846  0.88257154  1
  N  N51  1  0.77427810  0.43943478  0.62718367  1
  N  N52  1  0.55279172  0.54310455  0.37573502  1
  N  N53  1  0.44865379  0.42146028  0.12945514  1
  N  N54  1  0.22817687  0.52796112  0.87821168  1
  N  N55  1  0.10882470  0.43000311  0.63181574  1
  N  N56  1  0.88771278  0.53840020  0.37746619  1
  N  N57  1  0.79340133  0.39740562  0.12978025  1
  N  N58  1  0.55475572  0.53667992  0.88435128  1
  N  N59  1  0.44337553  0.43087363  0.62629176  1
  N  N60  1  0.21980011  0.87873839  0.31891760  1
  N  N61  1  0.11749315  0.75259413  0.11704020  1
  N  N62  1  0.87354184  0.84387879  0.89953385  1
  N  N63  1  0.79026673  0.77959561  0.61189347  1
  N  N64  1  0.55066722  0.87463748  0.38515084  1
  N  N65  1  0.46214568  0.77128926  0.11676325  1
  N  N66  1  0.21603572  0.87177196  0.84623763  1
  N  N67  1  0.07389699  0.77700791  0.64057985  1
  N  N68  1  0.88454978  0.87342843  0.33534240  1
  N  N69  1  0.74904203  0.76428974  0.12897705  1
  N  N70  1  0.58276989  0.85664509  0.90132333  1
  N  N71  1  0.45065052  0.76209173  0.63997862  1
