# generated using pymatgen
data_Al31B5N36
_symmetry_space_group_name_H-M   'P 1'
_cell_length_a   9.15477189
_cell_length_b   9.13994774
_cell_length_c   10.30752490
_cell_angle_alpha   90.14620513
_cell_angle_beta   89.52894975
_cell_angle_gamma   60.10834272
_symmetry_Int_Tables_number   1
_chemical_formula_structural   Al31B5N36
_chemical_formula_sum   'Al31 B5 N36'
_cell_volume   747.69058679
_cell_formula_units_Z   1
loop_
 _symmetry_equiv_pos_site_id
 _symmetry_equiv_pos_as_xyz
  1  'x, y, z'
loop_
 _atom_site_type_symbol
 _atom_site_label
 _atom_site_symmetry_multiplicity
 _atom_site_fract_x
 _atom_site_fract_y
 _atom_site_fract_z
 _atom_site_occupancy
  Al  Al0  1  0.11531483  0.09144062  0.39955811  1
  Al  Al1  1  0.21207349  0.20709970  0.13643182  1
  Al  Al2  1  0.88753474  0.19895281  0.61824582  1
  Al  Al3  1  0.45682488  0.07981890  0.31578655  1
  Al  Al4  1  0.57178599  0.19462292  0.05656465  1
  Al  Al5  1  0.09734914  0.09681890  0.88507558  1
  Al  Al6  1  0.21374609  0.21240531  0.64579209  1
  Al  Al7  1  0.78025030  0.10520715  0.31421353  1
  Al  Al8  1  0.46164205  0.08406290  0.81342965  1
  Al  Al9  1  0.56146066  0.19769318  0.56614615  1
  Al  Al10  1  0.10909913  0.42018591  0.39184114  1
  Al  Al11  1  0.23204329  0.53386690  0.06600648  1
  Al  Al12  1  0.77674429  0.42207700  0.88301095  1
  Al  Al13  1  0.88932045  0.55540945  0.64499303  1
  Al  Al14  1  0.44407665  0.41964713  0.31553981  1
  Al  Al15  1  0.56585337  0.53879388  0.13720045  1
  Al  Al16  1  0.09911445  0.43318182  0.89178462  1
  Al  Al17  1  0.22132177  0.54812496  0.57057764  1
  Al  Al18  1  0.77533168  0.43023191  0.40224765  1
  Al  Al19  1  0.88190791  0.53782037  0.14426066  1
  Al  Al20  1  0.44612351  0.41659702  0.81576968  1
  Al  Al21  1  0.55679315  0.54622159  0.64808216  1
  Al  Al22  1  0.10548793  0.76597498  0.34948226  1
  Al  Al23  1  0.21990848  0.88267488  0.13447414  1
  Al  Al24  1  0.43931152  0.75487520  0.39361738  1
  Al  Al25  1  0.09600804  0.77151975  0.88631435  1
  Al  Al26  1  0.21298326  0.87431008  0.64969041  1
  Al  Al27  1  0.78453245  0.76063969  0.38398737  1
  Al  Al28  1  0.87827540  0.87310764  0.12004557  1
  Al  Al29  1  0.45511883  0.76330239  0.88916939  1
  Al  Al30  1  0.55546641  0.87650127  0.58202218  1
  B  B31  1  0.77344903  0.07901209  0.80784511  1
  B  B32  1  0.88651399  0.20709483  0.09371559  1
  B  B33  1  0.77068196  0.77681753  0.85176256  1
  B  B34  1  0.88939309  0.87004632  0.61126948  1
  B  B35  1  0.56111932  0.86661774  0.10063074  1
  N  N36  1  0.22014404  0.20371035  0.32162810  1
  N  N37  1  0.07877722  0.11107335  0.07646704  1
  N  N38  1  0.87619919  0.19075747  0.82106985  1
  N  N39  1  0.78233807  0.06143910  0.64498083  1
  N  N40  1  0.55887623  0.20013567  0.37929274  1
  N  N41  1  0.46547062  0.06170758  0.12086902  1
  N  N42  1  0.21406615  0.20893173  0.83374572  1
  N  N43  1  0.12049946  0.08947969  0.58406795  1
  N  N44  1  0.88552775  0.20059073  0.39372625  1
  N  N45  1  0.79177926  0.11635724  0.12294838  1
  N  N46  1  0.58290931  0.18932705  0.87081308  1
  N  N47  1  0.44387672  0.09923209  0.63016904  1
  N  N48  1  0.22670095  0.54027463  0.38016720  1
  N  N49  1  0.10320829  0.42871849  0.07915849  1
  N  N50  1  0.87527262  0.57228892  0.83314637  1
  N  N51  1  0.77568726  0.44192549  0.58875337  1
  N  N52  1  0.56236892  0.53824910  0.32339985  1
  N  N53  1  0.44728266  0.41623056  0.12759796  1
  N  N54  1  0.22860574  0.53548057  0.87827292  1
  N  N55  1  0.10708468  0.42695736  0.57902249  1
  N  N56  1  0.88997535  0.53417092  0.32948869  1
  N  N57  1  0.79248150  0.39899511  0.07427661  1
  N  N58  1  0.55555286  0.54114754  0.83454775  1
  N  N59  1  0.44470840  0.42256576  0.62958653  1
  N  N60  1  0.22421184  0.87567983  0.31979837  1
  N  N61  1  0.11077588  0.76597844  0.08285624  1
  N  N62  1  0.85914332  0.88129784  0.86164988  1
  N  N63  1  0.79894924  0.77550304  0.57545406  1
  N  N64  1  0.55300467  0.87320381  0.39036867  1
  N  N65  1  0.45592812  0.77657576  0.07919454  1
  N  N66  1  0.22526883  0.87129501  0.83523120  1
  N  N67  1  0.07639335  0.78228229  0.60091509  1
  N  N68  1  0.88479763  0.87186400  0.31070227  1
  N  N69  1  0.74284525  0.76936808  0.10574660  1
  N  N70  1  0.58789512  0.85340511  0.83253822  1
  N  N71  1  0.43151178  0.75750883  0.58007075  1
