# generated using pymatgen
data_Al31B5N36
_symmetry_space_group_name_H-M   'P 1'
_cell_length_a   9.20844702
_cell_length_b   9.21110764
_cell_length_c   9.80167897
_cell_angle_alpha   89.44524399
_cell_angle_beta   89.28047884
_cell_angle_gamma   59.73941019
_symmetry_Int_Tables_number   1
_chemical_formula_structural   Al31B5N36
_chemical_formula_sum   'Al31 B5 N36'
_cell_volume   718.03470095
_cell_formula_units_Z   1
loop_
 _symmetry_equiv_pos_site_id
 _symmetry_equiv_pos_as_xyz
  1  'x, y, z'
loop_
 _atom_site_type_symbol
 _atom_site_label
 _atom_site_symmetry_multiplicity
 _atom_site_fract_x
 _atom_site_fract_y
 _atom_site_fract_z
 _atom_site_occupancy
  Al  Al0  1  0.10420584  0.09762414  0.30188326  1
  Al  Al1  1  0.22210150  0.20318174  0.05332088  1
  Al  Al2  1  0.88562851  0.19846910  0.56569323  1
  Al  Al3  1  0.44876141  0.08777223  0.29667112  1
  Al  Al4  1  0.57341399  0.19696232  0.04629328  1
  Al  Al5  1  0.10641407  0.09906829  0.81204665  1
  Al  Al6  1  0.22092250  0.20306890  0.55366708  1
  Al  Al7  1  0.78213568  0.09300170  0.30492367  1
  Al  Al8  1  0.45310231  0.08478806  0.80844805  1
  Al  Al9  1  0.55655682  0.19800670  0.55408440  1
  Al  Al10  1  0.10915163  0.42884859  0.30262464  1
  Al  Al11  1  0.22181730  0.54117019  0.05081099  1
  Al  Al12  1  0.78052510  0.43015968  0.81202782  1
  Al  Al13  1  0.88642115  0.54392540  0.56026959  1
  Al  Al14  1  0.44521395  0.42568981  0.30131323  1
  Al  Al15  1  0.56322492  0.53648054  0.05417432  1
  Al  Al16  1  0.10844270  0.43357012  0.80306785  1
  Al  Al17  1  0.21663493  0.54179415  0.55270361  1
  Al  Al18  1  0.78162762  0.42257845  0.30235401  1
  Al  Al19  1  0.88218301  0.54700064  0.04985294  1
  Al  Al20  1  0.45342320  0.42213446  0.80031084  1
  Al  Al21  1  0.55628143  0.53906665  0.55224081  1
  Al  Al22  1  0.10426430  0.76430286  0.30970139  1
  Al  Al23  1  0.21835486  0.87906741  0.05427580  1
  Al  Al24  1  0.44729339  0.76474721  0.29841494  1
  Al  Al25  1  0.09839901  0.76902400  0.79872244  1
  Al  Al26  1  0.21675393  0.87395668  0.55439260  1
  Al  Al27  1  0.77373774  0.76593472  0.30660559  1
  Al  Al28  1  0.87909121  0.88387260  0.04620951  1
  Al  Al29  1  0.44899786  0.76035652  0.81062482  1
  Al  Al30  1  0.55958502  0.87099494  0.55949094  1
  B  B31  1  0.75627003  0.05716485  0.78323476  1
  B  B32  1  0.89421846  0.21018810  0.04725633  1
  B  B33  1  0.77660539  0.76623433  0.80251393  1
  B  B34  1  0.88684860  0.86814762  0.56156872  1
  B  B35  1  0.56565724  0.86939676  0.04739607  1
  N  N36  1  0.22331659  0.20294889  0.35791190  1
  N  N37  1  0.08897034  0.10783430  0.10865389  1
  N  N38  1  0.89602970  0.21736791  0.88978758  1
  N  N39  1  0.78425302  0.06386412  0.62842197  1
  N  N40  1  0.55652444  0.20150325  0.36061331  1
  N  N41  1  0.46238256  0.06933111  0.09858132  1
  N  N42  1  0.22759656  0.20711512  0.86264116  1
  N  N43  1  0.10804455  0.09434490  0.61857222  1
  N  N44  1  0.88587832  0.20415320  0.37400382  1
  N  N45  1  0.79507159  0.10554469  0.10984126  1
  N  N46  1  0.58747568  0.18419259  0.84830778  1
  N  N47  1  0.44211495  0.09234169  0.61647063  1
  N  N48  1  0.22150029  0.53854680  0.36076672  1
  N  N49  1  0.10878972  0.43063412  0.10941985  1
  N  N50  1  0.87607436  0.57325842  0.85483469  1
  N  N51  1  0.77726785  0.42557442  0.61849664  1
  N  N52  1  0.55505626  0.53979695  0.35741377  1
  N  N53  1  0.44681441  0.42344937  0.10723154  1
  N  N54  1  0.22420051  0.54138244  0.85779120  1
  N  N55  1  0.11061512  0.42616374  0.61159688  1
  N  N56  1  0.88540441  0.54151435  0.36469829  1
  N  N57  1  0.79243268  0.40749542  0.10791842  1
  N  N58  1  0.55595775  0.53715611  0.86435862  1
  N  N59  1  0.44472051  0.42572380  0.60853771  1
  N  N60  1  0.22212694  0.87222974  0.35954831  1
  N  N61  1  0.10346892  0.76496818  0.11306078  1
  N  N62  1  0.86078671  0.88228135  0.85073630  1
  N  N63  1  0.78558290  0.77205560  0.62898497  1
  N  N64  1  0.55470849  0.87178896  0.36908045  1
  N  N65  1  0.45860501  0.77521185  0.10187367  1
  N  N66  1  0.21919583  0.87150560  0.86250353  1
  N  N67  1  0.08350409  0.77355065  0.60550220  1
  N  N68  1  0.88271887  0.87368984  0.38988320  1
  N  N69  1  0.75476921  0.77802922  0.11014513  1
  N  N70  1  0.58097618  0.85819636  0.87249615  1
  N  N71  1  0.44280443  0.76092136  0.61630862  1
