# generated using pymatgen
data_Al31B5N36
_symmetry_space_group_name_H-M   'P 1'
_cell_length_a   9.15510636
_cell_length_b   9.13536134
_cell_length_c   10.30749314
_cell_angle_alpha   90.13822278
_cell_angle_beta   89.58102309
_cell_angle_gamma   60.12781717
_symmetry_Int_Tables_number   1
_chemical_formula_structural   Al31B5N36
_chemical_formula_sum   'Al31 B5 N36'
_cell_volume   747.49541093
_cell_formula_units_Z   1
loop_
 _symmetry_equiv_pos_site_id
 _symmetry_equiv_pos_as_xyz
  1  'x, y, z'
loop_
 _atom_site_type_symbol
 _atom_site_label
 _atom_site_symmetry_multiplicity
 _atom_site_fract_x
 _atom_site_fract_y
 _atom_site_fract_z
 _atom_site_occupancy
  Al  Al0  1  0.11497115  0.09021839  0.39869198  1
  Al  Al1  1  0.21217038  0.20797301  0.13698002  1
  Al  Al2  1  0.88707786  0.19886352  0.61670721  1
  Al  Al3  1  0.45713091  0.07930865  0.31621371  1
  Al  Al4  1  0.57123808  0.19535296  0.05748050  1
  Al  Al5  1  0.09702566  0.09617575  0.88593739  1
  Al  Al6  1  0.21353231  0.21277552  0.64543037  1
  Al  Al7  1  0.78080359  0.10401411  0.31485629  1
  Al  Al8  1  0.46120557  0.08401756  0.81363906  1
  Al  Al9  1  0.56061710  0.19804655  0.56613977  1
  Al  Al10  1  0.10935542  0.42127601  0.39192642  1
  Al  Al11  1  0.23137551  0.53695047  0.06393732  1
  Al  Al12  1  0.77673228  0.42194377  0.88348467  1
  Al  Al13  1  0.88986009  0.55470619  0.64521414  1
  Al  Al14  1  0.44283784  0.42043486  0.31636344  1
  Al  Al15  1  0.56596968  0.53831842  0.13771056  1
  Al  Al16  1  0.09893774  0.43267454  0.89276408  1
  Al  Al17  1  0.21984779  0.55126500  0.56971454  1
  Al  Al18  1  0.77514891  0.43087621  0.40208214  1
  Al  Al19  1  0.88231900  0.53816221  0.14438573  1
  Al  Al20  1  0.44606192  0.41673815  0.81592450  1
  Al  Al21  1  0.55702164  0.54575795  0.64812097  1
  Al  Al22  1  0.11082588  0.75650421  0.30702986  1
  Al  Al23  1  0.22356846  0.88448814  0.13344670  1
  Al  Al24  1  0.43783914  0.75560004  0.39336716  1
  Al  Al25  1  0.09300447  0.76592356  0.84145320  1
  Al  Al26  1  0.21639053  0.87616349  0.65046506  1
  Al  Al27  1  0.78589956  0.76155980  0.38460382  1
  Al  Al28  1  0.87715007  0.87457324  0.11356997  1
  Al  Al29  1  0.45534405  0.76268823  0.88991611  1
  Al  Al30  1  0.55600105  0.87640062  0.58134765  1
  B  B31  1  0.77216726  0.08183403  0.81028061  1
  B  B32  1  0.88643292  0.20740058  0.09355013  1
  B  B33  1  0.76909157  0.77648461  0.85517880  1
  B  B34  1  0.88764886  0.86983802  0.61716109  1
  B  B35  1  0.56181092  0.86620216  0.10046124  1
  N  N36  1  0.22007254  0.20442863  0.32200345  1
  N  N37  1  0.07889399  0.11143758  0.07608830  1
  N  N38  1  0.87570557  0.19061843  0.82149393  1
  N  N39  1  0.78188141  0.06096553  0.64625818  1
  N  N40  1  0.55821350  0.20082552  0.37964675  1
  N  N41  1  0.46575518  0.06131226  0.12102256  1
  N  N42  1  0.21352020  0.20912658  0.83348060  1
  N  N43  1  0.12007732  0.08925941  0.58380822  1
  N  N44  1  0.88459714  0.20124088  0.39513476  1
  N  N45  1  0.79202954  0.11692379  0.12235936  1
  N  N46  1  0.58208441  0.19003592  0.87129651  1
  N  N47  1  0.44377603  0.09882906  0.63045021  1
  N  N48  1  0.22428956  0.54549958  0.38186664  1
  N  N49  1  0.10371462  0.42906994  0.07881920  1
  N  N50  1  0.87538668  0.57274360  0.83351735  1
  N  N51  1  0.77564565  0.44216830  0.58903047  1
  N  N52  1  0.56203956  0.53841785  0.32365308  1
  N  N53  1  0.44669132  0.41632463  0.12747359  1
  N  N54  1  0.22750619  0.53752132  0.87904297  1
  N  N55  1  0.10736150  0.42741276  0.57890270  1
  N  N56  1  0.89003775  0.53475881  0.32965513  1
  N  N57  1  0.79265146  0.39933422  0.07445717  1
  N  N58  1  0.55577155  0.54087275  0.83455803  1
  N  N59  1  0.44379099  0.42302885  0.62988585  1
  N  N60  1  0.22512252  0.87703476  0.31974194  1
  N  N61  1  0.11575722  0.75855182  0.11242345  1
  N  N62  1  0.85729208  0.88283957  0.86938896  1
  N  N63  1  0.80024881  0.77537424  0.57700959  1
  N  N64  1  0.55390110  0.87240459  0.39103958  1
  N  N65  1  0.45752230  0.77581926  0.07887668  1
  N  N66  1  0.22664489  0.87126968  0.83713140  1
  N  N67  1  0.07659303  0.77652676  0.63406615  1
  N  N68  1  0.88227544  0.87373716  0.31183071  1
  N  N69  1  0.74326661  0.76869790  0.10401288  1
  N  N70  1  0.58750354  0.85342502  0.83309346  1
  N  N71  1  0.43204346  0.75713575  0.58025084  1
