# generated using pymatgen
data_Al31B5N36
_symmetry_space_group_name_H-M   'P 1'
_cell_length_a   9.20841461
_cell_length_b   9.21104760
_cell_length_c   9.80164749
_cell_angle_alpha   89.44658200
_cell_angle_beta   89.28171787
_cell_angle_gamma   59.74031831
_symmetry_Int_Tables_number   1
_chemical_formula_structural   Al31B5N36
_chemical_formula_sum   'Al31 B5 N36'
_cell_volume   718.03206184
_cell_formula_units_Z   1
loop_
 _symmetry_equiv_pos_site_id
 _symmetry_equiv_pos_as_xyz
  1  'x, y, z'
loop_
 _atom_site_type_symbol
 _atom_site_label
 _atom_site_symmetry_multiplicity
 _atom_site_fract_x
 _atom_site_fract_y
 _atom_site_fract_z
 _atom_site_occupancy
  Al  Al0  1  0.10409953  0.09755114  0.30827428  1
  Al  Al1  1  0.22198959  0.20310937  0.05971636  1
  Al  Al2  1  0.88552554  0.19839887  0.57208067  1
  Al  Al3  1  0.44865358  0.08770128  0.30306760  1
  Al  Al4  1  0.57330042  0.19689204  0.05268924  1
  Al  Al5  1  0.10630330  0.09899145  0.81844034  1
  Al  Al6  1  0.22081661  0.20299899  0.56006319  1
  Al  Al7  1  0.78202693  0.09293121  0.31131764  1
  Al  Al8  1  0.45299291  0.08471930  0.81484329  1
  Al  Al9  1  0.55645381  0.19793676  0.56048308  1
  Al  Al10  1  0.10904264  0.42877791  0.30902284  1
  Al  Al11  1  0.22170650  0.54109760  0.05720761  1
  Al  Al12  1  0.78041710  0.43007879  0.81842249  1
  Al  Al13  1  0.88631285  0.54385712  0.56666600  1
  Al  Al14  1  0.44510541  0.42561960  0.30771093  1
  Al  Al15  1  0.56311516  0.53640732  0.06056617  1
  Al  Al16  1  0.10833293  0.43349795  0.80946316  1
  Al  Al17  1  0.21652775  0.54172490  0.55910101  1
  Al  Al18  1  0.78152043  0.42250685  0.30874392  1
  Al  Al19  1  0.88207387  0.54692730  0.05624454  1
  Al  Al20  1  0.45331181  0.42206375  0.80670682  1
  Al  Al21  1  0.55617622  0.53899625  0.55863715  1
  Al  Al22  1  0.10415656  0.76423206  0.31609671  1
  Al  Al23  1  0.21824810  0.87899154  0.06066732  1
  Al  Al24  1  0.44718709  0.76467516  0.30480638  1
  Al  Al25  1  0.09829084  0.76895165  0.80511517  1
  Al  Al26  1  0.21665028  0.87388574  0.56078699  1
  Al  Al27  1  0.77362934  0.76586417  0.31299845  1
  Al  Al28  1  0.87898302  0.88379833  0.05260353  1
  Al  Al29  1  0.44889339  0.76028378  0.81702060  1
  Al  Al30  1  0.55947883  0.87092622  0.56588737  1
  B  B31  1  0.75617365  0.05710925  0.78963842  1
  B  B32  1  0.89410120  0.21010219  0.05364684  1
  B  B33  1  0.77649853  0.76616840  0.80890691  1
  B  B34  1  0.88674130  0.86808230  0.56796448  1
  B  B35  1  0.56554884  0.86932514  0.05378811  1
  N  N36  1  0.22321001  0.20287836  0.36430708  1
  N  N37  1  0.08885840  0.10775879  0.11504337  1
  N  N38  1  0.89590699  0.21727150  0.89617112  1
  N  N39  1  0.78415019  0.06379948  0.63481897  1
  N  N40  1  0.55641890  0.20143374  0.36701091  1
  N  N41  1  0.46227166  0.06925906  0.10497729  1
  N  N42  1  0.22748311  0.20704377  0.86903666  1
  N  N43  1  0.10793913  0.09427411  0.62496615  1
  N  N44  1  0.88577422  0.20408344  0.38039286  1
  N  N45  1  0.79496027  0.10547260  0.11623552  1
  N  N46  1  0.58736448  0.18412589  0.85470585  1
  N  N47  1  0.44200840  0.09227356  0.62286665  1
  N  N48  1  0.22139321  0.53847775  0.36716447  1
  N  N49  1  0.10867854  0.43056162  0.11581748  1
  N  N50  1  0.87596649  0.57318459  0.86122835  1
  N  N51  1  0.77716262  0.42550213  0.62489128  1
  N  N52  1  0.55495198  0.53972646  0.36380881  1
  N  N53  1  0.44670324  0.42337855  0.11362878  1
  N  N54  1  0.22409112  0.54131171  0.86418765  1
  N  N55  1  0.11050700  0.42609456  0.61799242  1
  N  N56  1  0.88529624  0.54144540  0.37109333  1
  N  N57  1  0.79232383  0.40741837  0.11430541  1
  N  N58  1  0.55585124  0.53708398  0.87075202  1
  N  N59  1  0.44461238  0.42565548  0.61493401  1
  N  N60  1  0.22202249  0.87215914  0.36594266  1
  N  N61  1  0.10335927  0.76489610  0.11945637  1
  N  N62  1  0.86068100  0.88221360  0.85713262  1
  N  N63  1  0.78547600  0.77198855  0.63538098  1
  N  N64  1  0.55460254  0.87171912  0.37547623  1
  N  N65  1  0.45849701  0.77513823  0.10826583  1
  N  N66  1  0.21909239  0.87143043  0.86889627  1
  N  N67  1  0.08339702  0.77348218  0.61189655  1
  N  N68  1  0.88261160  0.87362217  0.39627773  1
  N  N69  1  0.75465969  0.77795694  0.11653922  1
  N  N70  1  0.58086916  0.85812770  0.87889137  1
  N  N71  1  0.44269976  0.76085118  0.62270483  1
