# generated using pymatgen
data_Al31B5N36
_symmetry_space_group_name_H-M   'P 1'
_cell_length_a   9.20842467
_cell_length_b   9.21103177
_cell_length_c   9.80164435
_cell_angle_alpha   89.44571167
_cell_angle_beta   89.28087090
_cell_angle_gamma   59.73966029
_symmetry_Int_Tables_number   1
_chemical_formula_structural   Al31B5N36
_chemical_formula_sum   'Al31 B5 N36'
_cell_volume   718.02641391
_cell_formula_units_Z   1
loop_
 _symmetry_equiv_pos_site_id
 _symmetry_equiv_pos_as_xyz
  1  'x, y, z'
loop_
 _atom_site_type_symbol
 _atom_site_label
 _atom_site_symmetry_multiplicity
 _atom_site_fract_x
 _atom_site_fract_y
 _atom_site_fract_z
 _atom_site_occupancy
  Al  Al0  1  0.10435449  0.09770954  0.29359707  1
  Al  Al1  1  0.22223151  0.20325890  0.04503821  1
  Al  Al2  1  0.88578289  0.19856187  0.55740621  1
  Al  Al3  1  0.44890143  0.08787434  0.28839886  1
  Al  Al4  1  0.57353838  0.19705016  0.03801583  1
  Al  Al5  1  0.10654990  0.09914744  0.80376456  1
  Al  Al6  1  0.22106827  0.20317063  0.54538909  1
  Al  Al7  1  0.78227778  0.09309710  0.29664162  1
  Al  Al8  1  0.45323833  0.08488661  0.80016480  1
  Al  Al9  1  0.55670814  0.19811564  0.54581077  1
  Al  Al10  1  0.10929162  0.42893782  0.29434530  1
  Al  Al11  1  0.22194248  0.54125017  0.04253635  1
  Al  Al12  1  0.78066410  0.43023712  0.80374315  1
  Al  Al13  1  0.88656545  0.54402726  0.55198640  1
  Al  Al14  1  0.44535517  0.42578889  0.29303651  1
  Al  Al15  1  0.56335805  0.53656058  0.04588883  1
  Al  Al16  1  0.10857296  0.43366102  0.79478778  1
  Al  Al17  1  0.21678021  0.54189388  0.54442342  1
  Al  Al18  1  0.78177223  0.42266489  0.29407178  1
  Al  Al19  1  0.88231083  0.54708012  0.04157374  1
  Al  Al20  1  0.45354976  0.42223263  0.79203534  1
  Al  Al21  1  0.55643048  0.53916859  0.54396629  1
  Al  Al22  1  0.10440447  0.76439402  0.30142471  1
  Al  Al23  1  0.21848806  0.87913951  0.04599681  1
  Al  Al24  1  0.44744320  0.76483737  0.29013285  1
  Al  Al25  1  0.09853450  0.76911285  0.79043930  1
  Al  Al26  1  0.21690800  0.87405285  0.54610744  1
  Al  Al27  1  0.77387854  0.76602964  0.29832327  1
  Al  Al28  1  0.87922185  0.88395302  0.03792856  1
  Al  Al29  1  0.44913794  0.76044922  0.80234450  1
  Al  Al30  1  0.55973284  0.87110340  0.55120979  1
  B  B31  1  0.75642223  0.05728229  0.77496850  1
  B  B32  1  0.89434027  0.21025182  0.03897219  1
  B  B33  1  0.77674124  0.76633356  0.79423429  1
  B  B34  1  0.88699299  0.86825276  0.55328948  1
  B  B35  1  0.56578654  0.86948350  0.03911681  1
  N  N36  1  0.22345809  0.20304092  0.34963393  1
  N  N37  1  0.08910147  0.10790853  0.10036657  1
  N  N38  1  0.89614845  0.21742508  0.88149293  1
  N  N39  1  0.78440235  0.06397233  0.62014772  1
  N  N40  1  0.55667040  0.20160356  0.35233722  1
  N  N41  1  0.46251060  0.06941784  0.09030664  1
  N  N42  1  0.22772590  0.20720201  0.85435810  1
  N  N43  1  0.10819663  0.09443852  0.61029028  1
  N  N44  1  0.88603077  0.20424038  0.36571853  1
  N  N45  1  0.79520159  0.10562887  0.10155743  1
  N  N46  1  0.58760550  0.18429238  0.84003314  1
  N  N47  1  0.44226160  0.09245027  0.60818830  1
  N  N48  1  0.22164156  0.53863794  0.35248729  1
  N  N49  1  0.10891771  0.43071162  0.10114081  1
  N  N50  1  0.87620637  0.57334607  0.84655543  1
  N  N51  1  0.77741949  0.42566812  0.61021219  1
  N  N52  1  0.55520421  0.53989045  0.34913808  1
  N  N53  1  0.44694159  0.42353870  0.09895371  1
  N  N54  1  0.22432881  0.54147302  0.84951637  1
  N  N55  1  0.11075688  0.42626683  0.60331703  1
  N  N56  1  0.88554481  0.54160921  0.35641469  1
  N  N57  1  0.79256376  0.40756971  0.09963211  1
  N  N58  1  0.55609637  0.53724634  0.85607375  1
  N  N59  1  0.44486040  0.42583421  0.60026250  1
  N  N60  1  0.22227722  0.87231576  0.35126357  1
  N  N61  1  0.10359543  0.76504890  0.10478524  1
  N  N62  1  0.86092420  0.88237656  0.84245760  1
  N  N63  1  0.78572869  0.77215791  0.62070430  1
  N  N64  1  0.55485194  0.87188749  0.36079994  1
  N  N65  1  0.45874008  0.77529182  0.09359100  1
  N  N66  1  0.21933655  0.87158513  0.85422368  1
  N  N67  1  0.08365024  0.77365218  0.59721882  1
  N  N68  1  0.88286013  0.87378783  0.38160191  1
  N  N69  1  0.75489840  0.77811280  0.10186382  1
  N  N70  1  0.58110959  0.85829345  0.86421590  1
  N  N71  1  0.44295511  0.76102626  0.60802906  1
