# generated using pymatgen
data_Al31B5N36
_symmetry_space_group_name_H-M   'P 1'
_cell_length_a   9.15915147
_cell_length_b   9.14031216
_cell_length_c   10.19995390
_cell_angle_alpha   90.13745774
_cell_angle_beta   89.47061296
_cell_angle_gamma   60.01756503
_symmetry_Int_Tables_number   1
_chemical_formula_structural   Al31B5N36
_chemical_formula_sum   'Al31 B5 N36'
_cell_volume   739.58682083
_cell_formula_units_Z   1
loop_
 _symmetry_equiv_pos_site_id
 _symmetry_equiv_pos_as_xyz
  1  'x, y, z'
loop_
 _atom_site_type_symbol
 _atom_site_label
 _atom_site_symmetry_multiplicity
 _atom_site_fract_x
 _atom_site_fract_y
 _atom_site_fract_z
 _atom_site_occupancy
  Al  Al0  1  0.11534156  0.09321491  0.39694927  1
  Al  Al1  1  0.21156906  0.20602235  0.13230664  1
  Al  Al2  1  0.88771383  0.19996873  0.61426785  1
  Al  Al3  1  0.45457459  0.08268192  0.31405828  1
  Al  Al4  1  0.57553623  0.18665849  0.05662791  1
  Al  Al5  1  0.09747725  0.09524028  0.88357931  1
  Al  Al6  1  0.21327805  0.21339057  0.64522285  1
  Al  Al7  1  0.77998705  0.10567150  0.31486171  1
  Al  Al8  1  0.46144472  0.08575256  0.81411886  1
  Al  Al9  1  0.56456956  0.19181872  0.56542203  1
  Al  Al10  1  0.11181738  0.42468760  0.38882719  1
  Al  Al11  1  0.22279243  0.53766942  0.14008429  1
  Al  Al12  1  0.77947424  0.42119149  0.87958293  1
  Al  Al13  1  0.88794997  0.55414245  0.64240469  1
  Al  Al14  1  0.44272858  0.43213507  0.38728908  1
  Al  Al15  1  0.56148004  0.53248924  0.13514968  1
  Al  Al16  1  0.10398661  0.43815104  0.89194305  1
  Al  Al17  1  0.21724565  0.54340953  0.63751661  1
  Al  Al18  1  0.77584395  0.43137387  0.39989967  1
  Al  Al19  1  0.88012463  0.53772945  0.14123447  1
  Al  Al20  1  0.44583710  0.42698994  0.88159984  1
  Al  Al21  1  0.55308836  0.54197405  0.64582782  1
  Al  Al22  1  0.10262492  0.76832710  0.38765804  1
  Al  Al23  1  0.21698709  0.87779489  0.13767564  1
  Al  Al24  1  0.43950430  0.75770353  0.39131133  1
  Al  Al25  1  0.09877418  0.76568404  0.88840046  1
  Al  Al26  1  0.21505969  0.87464486  0.64599228  1
  Al  Al27  1  0.78293761  0.76212621  0.37982795  1
  Al  Al28  1  0.88435510  0.86893959  0.12812142  1
  Al  Al29  1  0.45489135  0.76439060  0.88745800  1
  Al  Al30  1  0.55609285  0.87565259  0.58450933  1
  B  B31  1  0.77496231  0.07765585  0.80305969  1
  B  B32  1  0.88696424  0.20544702  0.09343822  1
  B  B33  1  0.77263513  0.77539849  0.84647232  1
  B  B34  1  0.88780063  0.86957783  0.60892640  1
  B  B35  1  0.56068922  0.86621561  0.10090886  1
  N  N36  1  0.21855151  0.20544480  0.31978498  1
  N  N37  1  0.07875825  0.10809959  0.07702652  1
  N  N38  1  0.87715523  0.18989264  0.81816848  1
  N  N39  1  0.78478451  0.06079597  0.63982625  1
  N  N40  1  0.55985167  0.19706556  0.37593933  1
  N  N41  1  0.46391931  0.06181314  0.11811957  1
  N  N42  1  0.21380878  0.21007701  0.83608897  1
  N  N43  1  0.12091780  0.09080071  0.58319955  1
  N  N44  1  0.88503586  0.20188915  0.39384354  1
  N  N45  1  0.79290263  0.11393858  0.12317503  1
  N  N46  1  0.58761298  0.18541634  0.86759361  1
  N  N47  1  0.44289089  0.10066756  0.62990522  1
  N  N48  1  0.22102977  0.54085364  0.32842847  1
  N  N49  1  0.10591451  0.43207176  0.07782114  1
  N  N50  1  0.87633708  0.57090998  0.83271682  1
  N  N51  1  0.77449288  0.44260543  0.58829863  1
  N  N52  1  0.55923100  0.53652012  0.32196877  1
  N  N53  1  0.44333644  0.42547677  0.07325160  1
  N  N54  1  0.22157466  0.53994676  0.82356928  1
  N  N55  1  0.10932957  0.42987194  0.57643347  1
  N  N56  1  0.88965877  0.53453787  0.32825238  1
  N  N57  1  0.79283827  0.39740462  0.07365229  1
  N  N58  1  0.55558756  0.54030894  0.83118635  1
  N  N59  1  0.44428039  0.43142816  0.57880740  1
  N  N60  1  0.22072166  0.87332092  0.32472087  1
  N  N61  1  0.11233850  0.75885857  0.07480365  1
  N  N62  1  0.86403726  0.87616658  0.84815568  1
  N  N63  1  0.79915723  0.77485778  0.57453006  1
  N  N64  1  0.55227225  0.87525715  0.38880050  1
  N  N65  1  0.45598195  0.77563351  0.08005306  1
  N  N66  1  0.22453872  0.86943255  0.83262128  1
  N  N67  1  0.08033397  0.77975235  0.58172428  1
  N  N68  1  0.89076678  0.87121100  0.31649717  1
  N  N69  1  0.74314700  0.77187791  0.10760124  1
  N  N70  1  0.58870139  0.85292449  0.82901086  1
  N  N71  1  0.43414292  0.75743179  0.58021737  1
