# generated using pymatgen
data_Al31B5N36
_symmetry_space_group_name_H-M   'P 1'
_cell_length_a   9.15572719
_cell_length_b   9.14023254
_cell_length_c   10.30521078
_cell_angle_alpha   90.14278430
_cell_angle_beta   89.53630975
_cell_angle_gamma   60.11092369
_symmetry_Int_Tables_number   1
_chemical_formula_structural   Al31B5N36
_chemical_formula_sum   'Al31 B5 N36'
_cell_volume   747.64497932
_cell_formula_units_Z   1
loop_
 _symmetry_equiv_pos_site_id
 _symmetry_equiv_pos_as_xyz
  1  'x, y, z'
loop_
 _atom_site_type_symbol
 _atom_site_label
 _atom_site_symmetry_multiplicity
 _atom_site_fract_x
 _atom_site_fract_y
 _atom_site_fract_z
 _atom_site_occupancy
  Al  Al0  1  0.11521547  0.09108019  0.39958096  1
  Al  Al1  1  0.21205503  0.20724294  0.13656658  1
  Al  Al2  1  0.88749770  0.19880421  0.61814794  1
  Al  Al3  1  0.45685674  0.07968355  0.31590716  1
  Al  Al4  1  0.57168369  0.19478036  0.05659155  1
  Al  Al5  1  0.09730077  0.09705922  0.88510793  1
  Al  Al6  1  0.21372749  0.21244398  0.64563678  1
  Al  Al7  1  0.78034400  0.10505219  0.31428452  1
  Al  Al8  1  0.46160795  0.08410869  0.81341169  1
  Al  Al9  1  0.56141071  0.19771192  0.56630353  1
  Al  Al10  1  0.10907344  0.42013701  0.39191005  1
  Al  Al11  1  0.23232906  0.53352516  0.06591759  1
  Al  Al12  1  0.77671542  0.42211663  0.88301069  1
  Al  Al13  1  0.88942452  0.55546504  0.64496844  1
  Al  Al14  1  0.44427288  0.41944714  0.31574893  1
  Al  Al15  1  0.56592206  0.53874136  0.13729501  1
  Al  Al16  1  0.09906465  0.43319315  0.89183946  1
  Al  Al17  1  0.22055653  0.54937149  0.57041332  1
  Al  Al18  1  0.77535550  0.43029116  0.40228958  1
  Al  Al19  1  0.88188090  0.53786322  0.14430727  1
  Al  Al20  1  0.44602013  0.41671247  0.81564573  1
  Al  Al21  1  0.55676180  0.54618865  0.64799359  1
  Al  Al22  1  0.10693041  0.76360624  0.33970245  1
  Al  Al23  1  0.22073983  0.88329969  0.13381052  1
  Al  Al24  1  0.43910932  0.75493505  0.39374780  1
  Al  Al25  1  0.09598507  0.77122556  0.88442432  1
  Al  Al26  1  0.21292050  0.87423205  0.65009201  1
  Al  Al27  1  0.78473695  0.76071169  0.38435292  1
  Al  Al28  1  0.87722289  0.87377452  0.11869587  1
  Al  Al29  1  0.45535194  0.76322172  0.88918214  1
  Al  Al30  1  0.55555186  0.87645463  0.58202386  1
  B  B31  1  0.77331104  0.07937273  0.80816446  1
  B  B32  1  0.88643498  0.20725102  0.09365684  1
  B  B33  1  0.77053163  0.77679141  0.85234169  1
  B  B34  1  0.88985947  0.86968246  0.61203724  1
  B  B35  1  0.56117604  0.86652750  0.10058311  1
  N  N36  1  0.22013130  0.20363192  0.32173449  1
  N  N37  1  0.07872272  0.11130449  0.07637296  1
  N  N38  1  0.87616230  0.19081360  0.82123366  1
  N  N39  1  0.78222505  0.06137205  0.64541560  1
  N  N40  1  0.55891536  0.20003780  0.37938114  1
  N  N41  1  0.46551326  0.06164610  0.12087879  1
  N  N42  1  0.21403119  0.20909377  0.83368659  1
  N  N43  1  0.12049233  0.08929458  0.58414945  1
  N  N44  1  0.88541863  0.20065849  0.39383043  1
  N  N45  1  0.79173696  0.11657336  0.12283246  1
  N  N46  1  0.58269236  0.18957105  0.87084948  1
  N  N47  1  0.44383221  0.09918154  0.63016642  1
  N  N48  1  0.22639726  0.54073776  0.37992133  1
  N  N49  1  0.10319646  0.42874609  0.07920948  1
  N  N50  1  0.87528188  0.57239847  0.83325267  1
  N  N51  1  0.77572233  0.44191219  0.58884191  1
  N  N52  1  0.56230198  0.53827616  0.32350750  1
  N  N53  1  0.44737678  0.41615419  0.12772493  1
  N  N54  1  0.22864345  0.53558410  0.87871962  1
  N  N55  1  0.10719225  0.42701972  0.57888803  1
  N  N56  1  0.88998015  0.53426183  0.32951098  1
  N  N57  1  0.79246515  0.39909865  0.07432202  1
  N  N58  1  0.55554294  0.54113876  0.83453775  1
  N  N59  1  0.44437601  0.42278863  0.62944630  1
  N  N60  1  0.22453250  0.87585416  0.31926415  1
  N  N61  1  0.11132019  0.76521784  0.08582563  1
  N  N62  1  0.85872494  0.88173813  0.86349981  1
  N  N63  1  0.79898728  0.77550972  0.57557268  1
  N  N64  1  0.55309289  0.87301874  0.39038991  1
  N  N65  1  0.45621892  0.77642123  0.07909354  1
  N  N66  1  0.22550867  0.87146999  0.83601572  1
  N  N67  1  0.07623425  0.78149613  0.60597693  1
  N  N68  1  0.88409208  0.87212216  0.31030240  1
  N  N69  1  0.74277500  0.76915032  0.10543309  1
  N  N70  1  0.58792402  0.85347150  0.83259711  1
  N  N71  1  0.43138040  0.75761205  0.58022839  1
