# generated using pymatgen
data_Al31B5N36
_symmetry_space_group_name_H-M   'P 1'
_cell_length_a   9.16925195
_cell_length_b   9.16558274
_cell_length_c   9.82460560
_cell_angle_alpha   90.05017042
_cell_angle_beta   90.10317231
_cell_angle_gamma   60.07543907
_symmetry_Int_Tables_number   1
_chemical_formula_structural   Al31B5N36
_chemical_formula_sum   'Al31 B5 N36'
_cell_volume   715.59727623
_cell_formula_units_Z   1
loop_
 _symmetry_equiv_pos_site_id
 _symmetry_equiv_pos_as_xyz
  1  'x, y, z'
loop_
 _atom_site_type_symbol
 _atom_site_label
 _atom_site_symmetry_multiplicity
 _atom_site_fract_x
 _atom_site_fract_y
 _atom_site_fract_z
 _atom_site_occupancy
  Al  Al0  1  0.10562584  0.09568762  0.39688679  1
  Al  Al1  1  0.21890269  0.20217268  0.15260936  1
  Al  Al2  1  0.88750375  0.19463343  0.65615139  1
  Al  Al3  1  0.44655524  0.09038870  0.39681502  1
  Al  Al4  1  0.56280268  0.20006341  0.14844935  1
  Al  Al5  1  0.10090933  0.09370348  0.90771668  1
  Al  Al6  1  0.22179329  0.20334813  0.65368025  1
  Al  Al7  1  0.78093509  0.08883016  0.39579008  1
  Al  Al8  1  0.45588485  0.08440529  0.90859337  1
  Al  Al9  1  0.56603044  0.19377570  0.65870713  1
  Al  Al10  1  0.10818230  0.42779119  0.40359840  1
  Al  Al11  1  0.22092989  0.54032410  0.15495455  1
  Al  Al12  1  0.77830759  0.42146203  0.90627547  1
  Al  Al13  1  0.88633627  0.54849857  0.65868909  1
  Al  Al14  1  0.44542780  0.42511684  0.40446359  1
  Al  Al15  1  0.56052410  0.53616023  0.15360457  1
  Al  Al16  1  0.10602883  0.43360114  0.90429181  1
  Al  Al17  1  0.21699251  0.54126171  0.65329010  1
  Al  Al18  1  0.78016924  0.42294767  0.39758557  1
  Al  Al19  1  0.88224049  0.54115891  0.14645882  1
  Al  Al20  1  0.44767068  0.42466023  0.90381227  1
  Al  Al21  1  0.55734565  0.53831334  0.65410451  1
  Al  Al22  1  0.10300885  0.76448825  0.40351697  1
  Al  Al23  1  0.21872283  0.87590530  0.15313897  1
  Al  Al24  1  0.44684829  0.76203629  0.39670575  1
  Al  Al25  1  0.09858092  0.76648399  0.89802714  1
  Al  Al26  1  0.21829819  0.87390411  0.65288489  1
  Al  Al27  1  0.77761823  0.76450737  0.39538276  1
  Al  Al28  1  0.88249538  0.87801324  0.13624957  1
  Al  Al29  1  0.45169019  0.76241574  0.90756579  1
  Al  Al30  1  0.56597912  0.87089187  0.65627505  1
  B  B31  1  0.77607776  0.09388661  0.90887883  1
  B  B32  1  0.88703914  0.20495288  0.14881278  1
  B  B33  1  0.76306621  0.77722612  0.90961607  1
  B  B34  1  0.88367417  0.87416825  0.63825334  1
  B  B35  1  0.55436469  0.87239310  0.15061231  1
  N  N36  1  0.22123151  0.20497178  0.34393658  1
  N  N37  1  0.08384656  0.10656558  0.10056723  1
  N  N38  1  0.87474765  0.18910839  0.84698181  1
  N  N39  1  0.79140276  0.06510364  0.59242772  1
  N  N40  1  0.55738040  0.20380612  0.34123318  1
  N  N41  1  0.45454305  0.06941511  0.10124298  1
  N  N42  1  0.22213762  0.20280638  0.84853217  1
  N  N43  1  0.10678244  0.09552504  0.59072891  1
  N  N44  1  0.88573671  0.20304835  0.31982607  1
  N  N45  1  0.78727790  0.10679192  0.07924131  1
  N  N46  1  0.57964214  0.19206430  0.85499875  1
  N  N47  1  0.44600709  0.09169575  0.59296778  1
  N  N48  1  0.22095704  0.53988280  0.34841028  1
  N  N49  1  0.11049967  0.42775487  0.09508025  1
  N  N50  1  0.87370878  0.56485406  0.85427238  1
  N  N51  1  0.78204123  0.42275213  0.59433749  1
  N  N52  1  0.55564005  0.53734767  0.34455157  1
  N  N53  1  0.44343337  0.42753128  0.09508013  1
  N  N54  1  0.22269717  0.53857327  0.84318240  1
  N  N55  1  0.10790079  0.42732032  0.59622775  1
  N  N56  1  0.88630601  0.54070996  0.34027829  1
  N  N57  1  0.79016903  0.40130559  0.09897850  1
  N  N58  1  0.55612475  0.53986941  0.84672949  1
  N  N59  1  0.44663464  0.42301294  0.59797557  1
  N  N60  1  0.22104248  0.87024226  0.34547103  1
  N  N61  1  0.11182223  0.76017960  0.09019019  1
  N  N62  1  0.86138360  0.88581066  0.85722712  1
  N  N63  1  0.79090026  0.77515509  0.59248427  1
  N  N64  1  0.55854551  0.87022169  0.32014708  1
  N  N65  1  0.45539230  0.77350014  0.10155838  1
  N  N66  1  0.22470774  0.87126223  0.84565432  1
  N  N67  1  0.08145901  0.77555989  0.60212487  1
  N  N68  1  0.88792649  0.87160208  0.32902838  1
  N  N69  1  0.75077873  0.77430587  0.08008731  1
  N  N70  1  0.57960246  0.86037042  0.84736756  1
  N  N71  1  0.44741458  0.76271614  0.59203173  1
