# generated using pymatgen
data_Al31B5N36
_symmetry_space_group_name_H-M   'P 1'
_cell_length_a   9.16232403
_cell_length_b   9.19456184
_cell_length_c   9.91996030
_cell_angle_alpha   89.49135665
_cell_angle_beta   90.02808299
_cell_angle_gamma   60.22413091
_symmetry_Int_Tables_number   1
_chemical_formula_structural   Al31B5N36
_chemical_formula_sum   'Al31 B5 N36'
_cell_volume   725.31998877
_cell_formula_units_Z   1
loop_
 _symmetry_equiv_pos_site_id
 _symmetry_equiv_pos_as_xyz
  1  'x, y, z'
loop_
 _atom_site_type_symbol
 _atom_site_label
 _atom_site_symmetry_multiplicity
 _atom_site_fract_x
 _atom_site_fract_y
 _atom_site_fract_z
 _atom_site_occupancy
  Al  Al0  1  0.10885854  0.09616039  0.39607205  1
  Al  Al1  1  0.21760809  0.20374024  0.14923101  1
  Al  Al2  1  0.88866388  0.19192815  0.64761728  1
  Al  Al3  1  0.44636178  0.09057043  0.39418650  1
  Al  Al4  1  0.56069041  0.20512821  0.15002151  1
  Al  Al5  1  0.09929058  0.09114227  0.90435022  1
  Al  Al6  1  0.22403136  0.20122887  0.65048936  1
  Al  Al7  1  0.78206536  0.09170544  0.37795313  1
  Al  Al8  1  0.45101172  0.08946402  0.90613453  1
  Al  Al9  1  0.56573613  0.19337622  0.64657763  1
  Al  Al10  1  0.10922331  0.42740569  0.39697528  1
  Al  Al11  1  0.22115794  0.53987236  0.14989157  1
  Al  Al12  1  0.77975485  0.41024198  0.90275523  1
  Al  Al13  1  0.89187386  0.53645976  0.65434010  1
  Al  Al14  1  0.44459274  0.42746199  0.40185320  1
  Al  Al15  1  0.55965413  0.53711105  0.14939124  1
  Al  Al16  1  0.10719536  0.42468186  0.89869127  1
  Al  Al17  1  0.21491745  0.54058847  0.64862632  1
  Al  Al18  1  0.77993567  0.42542194  0.39331831  1
  Al  Al19  1  0.88149738  0.54188539  0.13837882  1
  Al  Al20  1  0.44527772  0.42591938  0.89805999  1
  Al  Al21  1  0.55924694  0.53682640  0.65147664  1
  Al  Al22  1  0.10770708  0.76230051  0.39275061  1
  Al  Al23  1  0.21963771  0.87866363  0.15060819  1
  Al  Al24  1  0.44840608  0.76188637  0.39485325  1
  Al  Al25  1  0.09635266  0.76579268  0.90048735  1
  Al  Al26  1  0.22006996  0.87226827  0.64990196  1
  Al  Al27  1  0.77829544  0.76275892  0.38662156  1
  Al  Al28  1  0.88314056  0.88667266  0.13146887  1
  Al  Al29  1  0.45312215  0.76086734  0.90518295  1
  Al  Al30  1  0.57221594  0.86920943  0.65485347  1
  B  B31  1  0.77095309  0.08955689  0.88161676  1
  B  B32  1  0.88349087  0.20815928  0.15316845  1
  B  B33  1  0.73961777  0.82352924  0.92785998  1
  B  B34  1  0.88937435  0.86990588  0.59710243  1
  B  B35  1  0.55105734  0.87574295  0.14942358  1
  N  N36  1  0.22257664  0.20548529  0.33906410  1
  N  N37  1  0.08407393  0.10786584  0.09618709  1
  N  N38  1  0.87158104  0.17879467  0.83947675  1
  N  N39  1  0.79402223  0.06069931  0.57972380  1
  N  N40  1  0.55296465  0.20809160  0.34166379  1
  N  N41  1  0.45438692  0.07314701  0.09803012  1
  N  N42  1  0.22714906  0.19511404  0.84358884  1
  N  N43  1  0.10968889  0.09320115  0.58827597  1
  N  N44  1  0.89136753  0.20831111  0.32188678  1
  N  N45  1  0.78597511  0.11772664  0.10859073  1
  N  N46  1  0.57809208  0.19227623  0.84408365  1
  N  N47  1  0.44793636  0.08803151  0.58856151  1
  N  N48  1  0.22236116  0.53940395  0.34152348  1
  N  N49  1  0.11036001  0.42859421  0.08916719  1
  N  N50  1  0.89075622  0.51854676  0.83958808  1
  N  N51  1  0.78060343  0.41974123  0.58621341  1
  N  N52  1  0.55455002  0.53949013  0.33956337  1
  N  N53  1  0.44209490  0.42896590  0.08813952  1
  N  N54  1  0.21706084  0.54053325  0.83802117  1
  N  N55  1  0.11185354  0.42352067  0.58746690  1
  N  N56  1  0.88683219  0.54180041  0.33220972  1
  N  N57  1  0.78807313  0.40376706  0.09575668  1
  N  N58  1  0.55571987  0.53959312  0.84269948  1
  N  N59  1  0.44517631  0.42502010  0.59398420  1
  N  N60  1  0.22300677  0.87249665  0.34204346  1
  N  N61  1  0.11451025  0.76074636  0.08986002  1
  N  N62  1  0.85060940  0.89797140  0.88684117  1
  N  N63  1  0.79576510  0.77074199  0.58488372  1
  N  N64  1  0.55710885  0.87235837  0.31644377  1
  N  N65  1  0.45472980  0.77592118  0.09763209  1
  N  N66  1  0.22330511  0.86848340  0.84168225  1
  N  N67  1  0.08271640  0.77453502  0.59093797  1
  N  N68  1  0.89060416  0.86950925  0.32556629  1
  N  N69  1  0.74504880  0.78273450  0.08091860  1
  N  N70  1  0.58172618  0.86467580  0.84823173  1
  N  N71  1  0.45100030  0.76208226  0.59069028  1
