# generated using pymatgen
data_Al31B5N36
_symmetry_space_group_name_H-M   'P 1'
_cell_length_a   9.16664577
_cell_length_b   9.14241258
_cell_length_c   10.11942293
_cell_angle_alpha   90.21680753
_cell_angle_beta   89.81527024
_cell_angle_gamma   60.11842632
_symmetry_Int_Tables_number   1
_chemical_formula_structural   Al31B5N36
_chemical_formula_sum   'Al31 B5 N36'
_cell_volume   735.29907605
_cell_formula_units_Z   1
loop_
 _symmetry_equiv_pos_site_id
 _symmetry_equiv_pos_as_xyz
  1  'x, y, z'
loop_
 _atom_site_type_symbol
 _atom_site_label
 _atom_site_symmetry_multiplicity
 _atom_site_fract_x
 _atom_site_fract_y
 _atom_site_fract_z
 _atom_site_occupancy
  Al  Al0  1  0.11183246  0.09677125  0.39945407  1
  Al  Al1  1  0.21036235  0.20722092  0.14710263  1
  Al  Al2  1  0.88526117  0.19162255  0.65039636  1
  Al  Al3  1  0.45445672  0.08195756  0.32647949  1
  Al  Al4  1  0.57103696  0.19313902  0.08299711  1
  Al  Al5  1  0.09565585  0.09260927  0.90804672  1
  Al  Al6  1  0.21193066  0.20945608  0.65462198  1
  Al  Al7  1  0.77992636  0.09693459  0.33309559  1
  Al  Al8  1  0.45558880  0.09053648  0.83326020  1
  Al  Al9  1  0.56431127  0.18745340  0.57075984  1
  Al  Al10  1  0.11025410  0.42747087  0.40090109  1
  Al  Al11  1  0.22167985  0.54011021  0.15405238  1
  Al  Al12  1  0.77730658  0.41846957  0.90673757  1
  Al  Al13  1  0.88845777  0.54815762  0.66019428  1
  Al  Al14  1  0.44078197  0.43480472  0.40018732  1
  Al  Al15  1  0.56155260  0.53598073  0.15275554  1
  Al  Al16  1  0.10245896  0.43571449  0.90471535  1
  Al  Al17  1  0.21760741  0.54047750  0.64989742  1
  Al  Al18  1  0.77955106  0.42892775  0.40150292  1
  Al  Al19  1  0.87975873  0.54237064  0.14943917  1
  Al  Al20  1  0.44355405  0.42983870  0.90030041  1
  Al  Al21  1  0.55671748  0.53416382  0.65610991  1
  Al  Al22  1  0.10448788  0.76594732  0.39665226  1
  Al  Al23  1  0.21988010  0.87842882  0.15274254  1
  Al  Al24  1  0.44310670  0.76096014  0.40868591  1
  Al  Al25  1  0.09954125  0.76596726  0.90132451  1
  Al  Al26  1  0.21494650  0.87414058  0.65384769  1
  Al  Al27  1  0.78259635  0.76293253  0.40093274  1
  Al  Al28  1  0.88487734  0.87598416  0.13043902  1
  Al  Al29  1  0.45124081  0.76298276  0.89706176  1
  Al  Al30  1  0.56695513  0.86778120  0.63149443  1
  B  B31  1  0.77447586  0.07819951  0.87093252  1
  B  B32  1  0.88876266  0.21002838  0.15901798  1
  B  B33  1  0.76114575  0.77744956  0.90530455  1
  B  B34  1  0.89083504  0.87253025  0.60339476  1
  B  B35  1  0.55451333  0.87148719  0.10488793  1
  N  N36  1  0.22152261  0.20762860  0.33497400  1
  N  N37  1  0.08204588  0.10683824  0.09710510  1
  N  N38  1  0.87037063  0.18084193  0.84252732  1
  N  N39  1  0.79763910  0.05719825  0.59271415  1
  N  N40  1  0.55497755  0.20265553  0.38107599  1
  N  N41  1  0.46216644  0.06169347  0.12784898  1
  N  N42  1  0.20860265  0.20807847  0.84822699  1
  N  N43  1  0.10806204  0.09454798  0.58847807  1
  N  N44  1  0.89708676  0.21453017  0.32424335  1
  N  N45  1  0.78731469  0.11294684  0.13973560  1
  N  N46  1  0.58415147  0.18683891  0.89087208  1
  N  N47  1  0.44330199  0.10002879  0.64565056  1
  N  N48  1  0.22102960  0.54067550  0.34150084  1
  N  N49  1  0.10724043  0.43254523  0.09108684  1
  N  N50  1  0.87360353  0.56449386  0.85209827  1
  N  N51  1  0.78103759  0.42441675  0.59435098  1
  N  N52  1  0.55638378  0.54025414  0.33942138  1
  N  N53  1  0.44172327  0.43079098  0.09009839  1
  N  N54  1  0.22021935  0.53905926  0.83767479  1
  N  N55  1  0.10766548  0.42790681  0.59014195  1
  N  N56  1  0.88775513  0.54204313  0.33786720  1
  N  N57  1  0.79032345  0.40246086  0.09661886  1
  N  N58  1  0.55749794  0.53660521  0.84388397  1
  N  N59  1  0.44355917  0.42810043  0.59085110  1
  N  N60  1  0.22353284  0.87183698  0.34054214  1
  N  N61  1  0.11667597  0.75909871  0.08808373  1
  N  N62  1  0.85840532  0.88992829  0.88358600  1
  N  N63  1  0.80231112  0.76997956  0.59269858  1
  N  N64  1  0.55715051  0.87209209  0.38927190  1
  N  N65  1  0.45691622  0.77674390  0.09154612  1
  N  N66  1  0.22153970  0.87131845  0.84282088  1
  N  N67  1  0.08580547  0.77344328  0.59138749  1
  N  N68  1  0.89215398  0.86307075  0.32332206  1
  N  N69  1  0.74536085  0.77443504  0.07563425  1
  N  N70  1  0.58430769  0.85485589  0.84054866  1
  N  N71  1  0.44070324  0.75667414  0.59859745  1
