# generated using pymatgen
data_Al31B5N36
_symmetry_space_group_name_H-M   'P 1'
_cell_length_a   9.11900412
_cell_length_b   9.19606278
_cell_length_c   10.39929816
_cell_angle_alpha   90.91013942
_cell_angle_beta   90.03013163
_cell_angle_gamma   59.97192079
_symmetry_Int_Tables_number   1
_chemical_formula_structural   Al31B5N36
_chemical_formula_sum   'Al31 B5 N36'
_cell_volume   754.90150024
_cell_formula_units_Z   1
loop_
 _symmetry_equiv_pos_site_id
 _symmetry_equiv_pos_as_xyz
  1  'x, y, z'
loop_
 _atom_site_type_symbol
 _atom_site_label
 _atom_site_symmetry_multiplicity
 _atom_site_fract_x
 _atom_site_fract_y
 _atom_site_fract_z
 _atom_site_occupancy
  Al  Al0  1  0.11873034  0.09047548  0.39579430  1
  Al  Al1  1  0.21096479  0.20878978  0.13567011  1
  Al  Al2  1  0.88559372  0.19967405  0.58461620  1
  Al  Al3  1  0.45508646  0.08459424  0.31478490  1
  Al  Al4  1  0.57239330  0.19584626  0.05914025  1
  Al  Al5  1  0.09401860  0.09501436  0.89040982  1
  Al  Al6  1  0.21137955  0.21182318  0.64823519  1
  Al  Al7  1  0.78157562  0.09695635  0.31745645  1
  Al  Al8  1  0.46701497  0.08010479  0.81494118  1
  Al  Al9  1  0.55536097  0.19960082  0.56604137  1
  Al  Al10  1  0.10835846  0.42345581  0.39333651  1
  Al  Al11  1  0.23033355  0.53876718  0.06322447  1
  Al  Al12  1  0.77037376  0.42849627  0.81413993  1
  Al  Al13  1  0.88921167  0.55649063  0.64248465  1
  Al  Al14  1  0.44256394  0.42555381  0.31674003  1
  Al  Al15  1  0.56957296  0.52676899  0.07181596  1
  Al  Al16  1  0.10055825  0.42865720  0.89240183  1
  Al  Al17  1  0.21631061  0.55254062  0.57012044  1
  Al  Al18  1  0.77998872  0.41809741  0.32598166  1
  Al  Al19  1  0.88593808  0.54551371  0.14634565  1
  Al  Al20  1  0.44939620  0.42549307  0.81511403  1
  Al  Al21  1  0.55846717  0.53064565  0.56545322  1
  Al  Al22  1  0.10727968  0.75834116  0.31042161  1
  Al  Al23  1  0.22424024  0.88137472  0.13697841  1
  Al  Al24  1  0.43408774  0.76546752  0.39294141  1
  Al  Al25  1  0.09454369  0.75672930  0.82938308  1
  Al  Al26  1  0.21730395  0.87711716  0.65199980  1
  Al  Al27  1  0.78305279  0.76674609  0.38209849  1
  Al  Al28  1  0.88180437  0.87177818  0.07330360  1
  Al  Al29  1  0.45295340  0.76717688  0.89201367  1
  Al  Al30  1  0.55421513  0.87865272  0.58018893  1
  B  B31  1  0.76018348  0.12496842  0.80121298  1
  B  B32  1  0.88834643  0.20336029  0.10574604  1
  B  B33  1  0.77600920  0.76040716  0.85988239  1
  B  B34  1  0.88350589  0.87277577  0.61616110  1
  B  B35  1  0.56164050  0.86906450  0.10544550  1
  N  N36  1  0.21619700  0.20851124  0.31990995  1
  N  N37  1  0.08004004  0.10825076  0.07872609  1
  N  N38  1  0.87065450  0.19406776  0.83650531  1
  N  N39  1  0.78164950  0.06923452  0.64780228  1
  N  N40  1  0.55480419  0.20534636  0.38039245  1
  N  N41  1  0.46443180  0.06576668  0.12122741  1
  N  N42  1  0.21389843  0.20409344  0.83450492  1
  N  N43  1  0.12109347  0.08701785  0.58000543  1
  N  N44  1  0.88201390  0.20806888  0.39521596  1
  N  N45  1  0.79544444  0.10773801  0.12604098  1
  N  N46  1  0.58389753  0.19426417  0.86887191  1
  N  N47  1  0.44412788  0.09877471  0.63386960  1
  N  N48  1  0.22320974  0.54671854  0.38462164  1
  N  N49  1  0.10456428  0.42819703  0.07622535  1
  N  N50  1  0.87735802  0.56526399  0.83104045  1
  N  N51  1  0.77459796  0.43201455  0.63057476  1
  N  N52  1  0.55713932  0.53245192  0.37847628  1
  N  N53  1  0.44881106  0.41973785  0.13035532  1
  N  N54  1  0.23068445  0.53319105  0.87867622  1
  N  N55  1  0.10771146  0.42494731  0.57878789  1
  N  N56  1  0.89035148  0.54153104  0.33070729  1
  N  N57  1  0.79547331  0.39219424  0.13361165  1
  N  N58  1  0.55841675  0.53276959  0.88914249  1
  N  N59  1  0.44373944  0.42687953  0.63139260  1
  N  N60  1  0.22461274  0.87853851  0.31950420  1
  N  N61  1  0.11316414  0.75602737  0.12301110  1
  N  N62  1  0.87447138  0.84685547  0.89062554  1
  N  N63  1  0.79461013  0.77741739  0.58460357  1
  N  N64  1  0.54991263  0.88029861  0.39108448  1
  N  N65  1  0.45828203  0.77926334  0.08352336  1
  N  N66  1  0.22437564  0.86981533  0.83700187  1
  N  N67  1  0.07411225  0.77611582  0.64016774  1
  N  N68  1  0.89010362  0.88044105  0.35515073  1
  N  N69  1  0.74409393  0.77566563  0.11824831  1
  N  N70  1  0.59091667  0.85049518  0.84122282  1
  N  N71  1  0.43280428  0.76121730  0.58215161  1
