# generated using pymatgen
data_Al31B5N36
_symmetry_space_group_name_H-M   'P 1'
_cell_length_a   9.17277296
_cell_length_b   9.15046013
_cell_length_c   10.19168121
_cell_angle_alpha   90.08744852
_cell_angle_beta   89.47131381
_cell_angle_gamma   60.01117012
_symmetry_Int_Tables_number   1
_chemical_formula_structural   Al31B5N36
_chemical_formula_sum   'Al31 B5 N36'
_cell_volume   740.86574506
_cell_formula_units_Z   1
loop_
 _symmetry_equiv_pos_site_id
 _symmetry_equiv_pos_as_xyz
  1  'x, y, z'
loop_
 _atom_site_type_symbol
 _atom_site_label
 _atom_site_symmetry_multiplicity
 _atom_site_fract_x
 _atom_site_fract_y
 _atom_site_fract_z
 _atom_site_occupancy
  Al  Al0  1  0.11542918  0.09330597  0.39707517  1
  Al  Al1  1  0.21204925  0.20596000  0.13227525  1
  Al  Al2  1  0.88749702  0.19980316  0.61464556  1
  Al  Al3  1  0.45478191  0.08189133  0.31394266  1
  Al  Al4  1  0.57264062  0.19307088  0.05646813  1
  Al  Al5  1  0.09736291  0.09522568  0.88370326  1
  Al  Al6  1  0.21372999  0.21299208  0.64519453  1
  Al  Al7  1  0.78129091  0.10474516  0.31491918  1
  Al  Al8  1  0.46133775  0.08398247  0.81429064  1
  Al  Al9  1  0.56222676  0.19573676  0.56641307  1
  Al  Al10  1  0.11127760  0.42451565  0.38968156  1
  Al  Al11  1  0.21899430  0.53976678  0.13871286  1
  Al  Al12  1  0.77992586  0.42094940  0.88094707  1
  Al  Al13  1  0.88849679  0.55411992  0.64287528  1
  Al  Al14  1  0.44585059  0.42526843  0.34879689  1
  Al  Al15  1  0.56272325  0.53482851  0.13340767  1
  Al  Al16  1  0.10324547  0.43799381  0.89264947  1
  Al  Al17  1  0.21453894  0.54497958  0.63736806  1
  Al  Al18  1  0.77662433  0.43117123  0.40058438  1
  Al  Al19  1  0.88004958  0.53772591  0.14166754  1
  Al  Al20  1  0.44993477  0.41848948  0.84056959  1
  Al  Al21  1  0.55614370  0.54451024  0.64624991  1
  Al  Al22  1  0.10193048  0.76936731  0.38852492  1
  Al  Al23  1  0.21674786  0.87803708  0.13794659  1
  Al  Al24  1  0.43920957  0.75796686  0.39217097  1
  Al  Al25  1  0.09855751  0.76606915  0.88923576  1
  Al  Al26  1  0.21502456  0.87477225  0.64630971  1
  Al  Al27  1  0.78308516  0.76178329  0.37974138  1
  Al  Al28  1  0.88296405  0.87018696  0.12764889  1
  Al  Al29  1  0.45437992  0.76465921  0.88863481  1
  Al  Al30  1  0.55649256  0.87598158  0.58423330  1
  B  B31  1  0.77589306  0.07598963  0.80276044  1
  B  B32  1  0.88706370  0.20521937  0.09379156  1
  B  B33  1  0.77263419  0.77505507  0.84678833  1
  B  B34  1  0.88729780  0.86998041  0.60903790  1
  B  B35  1  0.56055889  0.86718299  0.10106671  1
  N  N36  1  0.21902826  0.20552496  0.32016784  1
  N  N37  1  0.07887314  0.10819132  0.07728745  1
  N  N38  1  0.87682835  0.18981659  0.81831901  1
  N  N39  1  0.78446979  0.06060589  0.63979503  1
  N  N40  1  0.55998278  0.19739444  0.37766334  1
  N  N41  1  0.46436584  0.06223430  0.11819999  1
  N  N42  1  0.21392803  0.20992691  0.83626547  1
  N  N43  1  0.12067488  0.09092718  0.58345785  1
  N  N44  1  0.88518234  0.20185557  0.39386978  1
  N  N45  1  0.79293151  0.11393803  0.12290786  1
  N  N46  1  0.58730466  0.18431023  0.86801230  1
  N  N47  1  0.44309288  0.10000482  0.62964516  1
  N  N48  1  0.21638744  0.54352265  0.32999318  1
  N  N49  1  0.10488437  0.43197495  0.07803654  1
  N  N50  1  0.87612655  0.57076584  0.83300854  1
  N  N51  1  0.77600906  0.44241578  0.58830584  1
  N  N52  1  0.56183368  0.53890070  0.32278528  1
  N  N53  1  0.44554726  0.42132779  0.09917473  1
  N  N54  1  0.21661005  0.54239279  0.82532754  1
  N  N55  1  0.10931484  0.42954797  0.57669481  1
  N  N56  1  0.88988900  0.53435349  0.32861618  1
  N  N57  1  0.79367531  0.39715031  0.07398388  1
  N  N58  1  0.55714012  0.54168664  0.83408184  1
  N  N59  1  0.44834874  0.42444428  0.61011205  1
  N  N60  1  0.22074149  0.87326454  0.32516533  1
  N  N61  1  0.11113949  0.76032193  0.07517972  1
  N  N62  1  0.86377288  0.87620905  0.84845805  1
  N  N63  1  0.79948810  0.77462477  0.57469011  1
  N  N64  1  0.55257413  0.87510745  0.38894531  1
  N  N65  1  0.45547882  0.77704404  0.08052830  1
  N  N66  1  0.22445986  0.86946402  0.83290394  1
  N  N67  1  0.07995425  0.78044037  0.58201598  1
  N  N68  1  0.89034347  0.87143994  0.31672974  1
  N  N69  1  0.74292357  0.77178745  0.10795369  1
  N  N70  1  0.58890282  0.85224146  0.82939190  1
  N  N71  1  0.43388087  0.75804098  0.58032508  1
