# generated using pymatgen
data_Al31B5N36
_symmetry_space_group_name_H-M   'P 1'
_cell_length_a   9.20198349
_cell_length_b   9.24163539
_cell_length_c   10.08313749
_cell_angle_alpha   90.09512893
_cell_angle_beta   89.50113812
_cell_angle_gamma   59.74750014
_symmetry_Int_Tables_number   1
_chemical_formula_structural   Al31B5N36
_chemical_formula_sum   'Al31 B5 N36'
_cell_volume   740.65995535
_cell_formula_units_Z   1
loop_
 _symmetry_equiv_pos_site_id
 _symmetry_equiv_pos_as_xyz
  1  'x, y, z'
loop_
 _atom_site_type_symbol
 _atom_site_label
 _atom_site_symmetry_multiplicity
 _atom_site_fract_x
 _atom_site_fract_y
 _atom_site_fract_z
 _atom_site_occupancy
  Al  Al0  1  0.11810091  0.08980992  0.39597368  1
  Al  Al1  1  0.22408787  0.20374136  0.08888874  1
  Al  Al2  1  0.88425711  0.20268301  0.59370730  1
  Al  Al3  1  0.45104344  0.08736548  0.31178997  1
  Al  Al4  1  0.57568854  0.19992450  0.06232953  1
  Al  Al5  1  0.08910975  0.09791097  0.88984960  1
  Al  Al6  1  0.22410503  0.20298942  0.62740760  1
  Al  Al7  1  0.78165182  0.09607300  0.32166090  1
  Al  Al8  1  0.46736156  0.08006821  0.83323359  1
  Al  Al9  1  0.55740324  0.19818818  0.57102779  1
  Al  Al10  1  0.11049071  0.42853449  0.31703124  1
  Al  Al11  1  0.22803493  0.53548455  0.06608734  1
  Al  Al12  1  0.77068632  0.43576711  0.81532442  1
  Al  Al13  1  0.88833501  0.55000650  0.56913815  1
  Al  Al14  1  0.44370061  0.42582866  0.32236746  1
  Al  Al15  1  0.56082263  0.53523077  0.07272319  1
  Al  Al16  1  0.10321940  0.43629169  0.82801463  1
  Al  Al17  1  0.21093221  0.54808705  0.57312623  1
  Al  Al18  1  0.78307334  0.41891667  0.32797116  1
  Al  Al19  1  0.88305603  0.53693493  0.07554562  1
  Al  Al20  1  0.44867969  0.42746817  0.81611664  1
  Al  Al21  1  0.55272299  0.54518062  0.56721716  1
  Al  Al22  1  0.10798046  0.75766918  0.31421306  1
  Al  Al23  1  0.21661448  0.88494802  0.13085899  1
  Al  Al24  1  0.45149092  0.76292159  0.31558045  1
  Al  Al25  1  0.09105306  0.76021866  0.84035319  1
  Al  Al26  1  0.21276636  0.87600586  0.65258705  1
  Al  Al27  1  0.77083913  0.76217943  0.32193711  1
  Al  Al28  1  0.88365209  0.87188183  0.09256017  1
  Al  Al29  1  0.45425827  0.75928033  0.83476135  1
  Al  Al30  1  0.56145547  0.87334980  0.57353292  1
  B  B31  1  0.75678765  0.13273300  0.79979386  1
  B  B32  1  0.88679242  0.20728638  0.10815080  1
  B  B33  1  0.77884300  0.75697412  0.88281485  1
  B  B34  1  0.88004697  0.86893845  0.62772670  1
  B  B35  1  0.56548092  0.86303212  0.07167670  1
  N  N36  1  0.22337314  0.20231385  0.33924946  1
  N  N37  1  0.07509689  0.11369238  0.08157009  1
  N  N38  1  0.86827750  0.20065324  0.83128226  1
  N  N39  1  0.78161582  0.06912109  0.65089555  1
  N  N40  1  0.55597910  0.20238656  0.38182811  1
  N  N41  1  0.46955902  0.06693394  0.11425262  1
  N  N42  1  0.22319842  0.20287563  0.87213967  1
  N  N43  1  0.11938273  0.08773476  0.58739051  1
  N  N44  1  0.88114380  0.20558743  0.39790718  1
  N  N45  1  0.79562194  0.11280145  0.12717738  1
  N  N46  1  0.58563195  0.19709467  0.86991087  1
  N  N47  1  0.45152453  0.08975057  0.64422912  1
  N  N48  1  0.21916763  0.54096325  0.38440010  1
  N  N49  1  0.10827552  0.43443235  0.12567489  1
  N  N50  1  0.87136955  0.55946504  0.88429567  1
  N  N51  1  0.77439066  0.43875292  0.62842033  1
  N  N52  1  0.55332995  0.54179034  0.37703612  1
  N  N53  1  0.44852405  0.42161366  0.13134979  1
  N  N54  1  0.22907533  0.53135832  0.87973824  1
  N  N55  1  0.10683844  0.43181649  0.63823067  1
  N  N56  1  0.88819792  0.53772588  0.37918663  1
  N  N57  1  0.79346869  0.39743300  0.13138494  1
  N  N58  1  0.55463584  0.53732437  0.88630355  1
  N  N59  1  0.44342370  0.42965501  0.62778103  1
  N  N60  1  0.21957808  0.87712117  0.32535159  1
  N  N61  1  0.11804935  0.75432580  0.11951262  1
  N  N62  1  0.87373621  0.84270999  0.90261948  1
  N  N63  1  0.79083020  0.77869650  0.61258370  1
  N  N64  1  0.55040960  0.87496221  0.38723034  1
  N  N65  1  0.46080701  0.77307586  0.11934970  1
  N  N66  1  0.21539242  0.87327615  0.84627227  1
  N  N67  1  0.07368007  0.77616678  0.64107636  1
  N  N68  1  0.88398540  0.87297803  0.33404360  1
  N  N69  1  0.74795623  0.76411697  0.13127939  1
  N  N70  1  0.58349947  0.85474559  0.90296214  1
  N  N71  1  0.45043930  0.76113459  0.64074030  1
