# generated using pymatgen
data_Al31B5N36
_symmetry_space_group_name_H-M   'P 1'
_cell_length_a   9.16918874
_cell_length_b   9.15285412
_cell_length_c   10.23520144
_cell_angle_alpha   90.10898732
_cell_angle_beta   89.46779382
_cell_angle_gamma   60.05208117
_symmetry_Int_Tables_number   1
_chemical_formula_structural   Al31B5N36
_chemical_formula_sum   'Al31 B5 N36'
_cell_volume   744.23665292
_cell_formula_units_Z   1
loop_
 _symmetry_equiv_pos_site_id
 _symmetry_equiv_pos_as_xyz
  1  'x, y, z'
loop_
 _atom_site_type_symbol
 _atom_site_label
 _atom_site_symmetry_multiplicity
 _atom_site_fract_x
 _atom_site_fract_y
 _atom_site_fract_z
 _atom_site_occupancy
  Al  Al0  1  0.11610561  0.09389282  0.39771111  1
  Al  Al1  1  0.21299267  0.20521041  0.13397007  1
  Al  Al2  1  0.88707616  0.20015741  0.61429355  1
  Al  Al3  1  0.45600566  0.08152735  0.31522681  1
  Al  Al4  1  0.57395909  0.19234986  0.05645474  1
  Al  Al5  1  0.09669851  0.09493271  0.88464528  1
  Al  Al6  1  0.21387569  0.21128125  0.64659013  1
  Al  Al7  1  0.78115900  0.10545876  0.31645895  1
  Al  Al8  1  0.46154411  0.08338881  0.81420698  1
  Al  Al9  1  0.56080516  0.19793713  0.56387089  1
  Al  Al10  1  0.11219854  0.42396707  0.39202563  1
  Al  Al11  1  0.22349910  0.53831184  0.09663762  1
  Al  Al12  1  0.77785043  0.42069584  0.88199353  1
  Al  Al13  1  0.88731175  0.55464749  0.64412298  1
  Al  Al14  1  0.44382942  0.42225426  0.31764225  1
  Al  Al15  1  0.56633519  0.53862110  0.13499103  1
  Al  Al16  1  0.10062688  0.43505637  0.88858205  1
  Al  Al17  1  0.21822214  0.54442845  0.60994552  1
  Al  Al18  1  0.77573410  0.43157944  0.40067289  1
  Al  Al19  1  0.88143538  0.53763474  0.14343878  1
  Al  Al20  1  0.44998440  0.41409449  0.81778602  1
  Al  Al21  1  0.55741704  0.54631487  0.64800246  1
  Al  Al22  1  0.10193374  0.77175258  0.39016438  1
  Al  Al23  1  0.21672645  0.87955449  0.13941454  1
  Al  Al24  1  0.43942163  0.75571864  0.39221295  1
  Al  Al25  1  0.09592576  0.76879999  0.88489068  1
  Al  Al26  1  0.21443869  0.87581363  0.64744075  1
  Al  Al27  1  0.78436489  0.76111969  0.38173740  1
  Al  Al28  1  0.88319247  0.87017151  0.13098819  1
  Al  Al29  1  0.45340795  0.76394604  0.88921184  1
  Al  Al30  1  0.55554193  0.87662181  0.58268255  1
  B  B31  1  0.77396034  0.07778222  0.80257713  1
  B  B32  1  0.88759765  0.20509970  0.09470820  1
  B  B33  1  0.77108819  0.77513939  0.84601390  1
  B  B34  1  0.88543928  0.87164267  0.61277188  1
  B  B35  1  0.56125506  0.86757100  0.10133190  1
  N  N36  1  0.21990984  0.20593847  0.32045707  1
  N  N37  1  0.07922147  0.10859127  0.07791672  1
  N  N38  1  0.87618599  0.18971576  0.81892834  1
  N  N39  1  0.78155148  0.06336056  0.64034039  1
  N  N40  1  0.55877913  0.20092138  0.37719408  1
  N  N41  1  0.46534097  0.06219211  0.11931309  1
  N  N42  1  0.21430073  0.20719573  0.83580785  1
  N  N43  1  0.12047518  0.09067089  0.58329828  1
  N  N44  1  0.88597314  0.20210332  0.39430954  1
  N  N45  1  0.79334934  0.11386049  0.12395409  1
  N  N46  1  0.58517612  0.18611772  0.87011955  1
  N  N47  1  0.44348449  0.10009355  0.62961627  1
  N  N48  1  0.22274750  0.54295794  0.36411399  1
  N  N49  1  0.10395085  0.42904996  0.07592832  1
  N  N50  1  0.87377964  0.57092851  0.83276403  1
  N  N51  1  0.77522896  0.44270027  0.58799189  1
  N  N52  1  0.56326222  0.53889028  0.32205814  1
  N  N53  1  0.44910679  0.41618413  0.12280467  1
  N  N54  1  0.21961791  0.53976429  0.84270917  1
  N  N55  1  0.10668192  0.42679674  0.58040049  1
  N  N56  1  0.89133051  0.53396692  0.32929314  1
  N  N57  1  0.79421082  0.39711654  0.07426638  1
  N  N58  1  0.55550883  0.54097521  0.83654483  1
  N  N59  1  0.45167318  0.41920799  0.62809041  1
  N  N60  1  0.22083928  0.87466828  0.32506746  1
  N  N61  1  0.10881963  0.76605554  0.07324109  1
  N  N62  1  0.86203015  0.87658948  0.84510747  1
  N  N63  1  0.79890545  0.77497655  0.57562587  1
  N  N64  1  0.55291371  0.87428955  0.38945646  1
  N  N65  1  0.45514298  0.77781719  0.08060092  1
  N  N66  1  0.22407852  0.87027572  0.83265539  1
  N  N67  1  0.07699448  0.78498610  0.58563828  1
  N  N68  1  0.89055448  0.87183433  0.31788296  1
  N  N69  1  0.74372612  0.77146414  0.10862949  1
  N  N70  1  0.58748509  0.85232927  0.83079458  1
  N  N71  1  0.43278257  0.75742106  0.57998429  1
