# generated using pymatgen
data_Al31B5N36
_symmetry_space_group_name_H-M   'P 1'
_cell_length_a   9.21020455
_cell_length_b   9.20671001
_cell_length_c   9.82331606
_cell_angle_alpha   89.72355818
_cell_angle_beta   89.38398905
_cell_angle_gamma   59.98268390
_symmetry_Int_Tables_number   1
_chemical_formula_structural   Al31B5N36
_chemical_formula_sum   'Al31 B5 N36'
_cell_volume   721.20959051
_cell_formula_units_Z   1
loop_
 _symmetry_equiv_pos_site_id
 _symmetry_equiv_pos_as_xyz
  1  'x, y, z'
loop_
 _atom_site_type_symbol
 _atom_site_label
 _atom_site_symmetry_multiplicity
 _atom_site_fract_x
 _atom_site_fract_y
 _atom_site_fract_z
 _atom_site_occupancy
  Al  Al0  1  0.10806162  0.09447023  0.38240310  1
  Al  Al1  1  0.22113228  0.20436461  0.06370073  1
  Al  Al2  1  0.88476000  0.19910396  0.59829289  1
  Al  Al3  1  0.44912824  0.08800449  0.30498259  1
  Al  Al4  1  0.57084330  0.20020709  0.05483982  1
  Al  Al5  1  0.09209999  0.09680076  0.86409394  1
  Al  Al6  1  0.22880216  0.20827183  0.56545209  1
  Al  Al7  1  0.78194489  0.09268911  0.32290780  1
  Al  Al8  1  0.45439437  0.08709682  0.81861711  1
  Al  Al9  1  0.56021419  0.19736045  0.56350373  1
  Al  Al10  1  0.10981074  0.42969430  0.31112426  1
  Al  Al11  1  0.22131427  0.53912037  0.05954698  1
  Al  Al12  1  0.77531223  0.42825712  0.80876789  1
  Al  Al13  1  0.88726386  0.54889955  0.56703542  1
  Al  Al14  1  0.44448695  0.42651591  0.31155392  1
  Al  Al15  1  0.56384390  0.53309954  0.06342623  1
  Al  Al16  1  0.10698990  0.43193130  0.81150500  1
  Al  Al17  1  0.21764007  0.54364600  0.56202180  1
  Al  Al18  1  0.78241129  0.42246028  0.31850326  1
  Al  Al19  1  0.88323965  0.54423095  0.05815657  1
  Al  Al20  1  0.45214449  0.42215275  0.80973620  1
  Al  Al21  1  0.55604206  0.54146931  0.55819384  1
  Al  Al22  1  0.10331540  0.76354801  0.31781591  1
  Al  Al23  1  0.21922776  0.87317722  0.07332877  1
  Al  Al24  1  0.44922027  0.76511013  0.30465729  1
  Al  Al25  1  0.09675475  0.76535502  0.81181329  1
  Al  Al26  1  0.22246820  0.86606106  0.58129106  1
  Al  Al27  1  0.77352200  0.76695120  0.31475681  1
  Al  Al28  1  0.87915083  0.88258931  0.05460982  1
  Al  Al29  1  0.45228110  0.75936658  0.82386340  1
  Al  Al30  1  0.56044428  0.87254009  0.56971562  1
  B  B31  1  0.77463686  0.08294197  0.79592454  1
  B  B32  1  0.89043922  0.20443480  0.10212585  1
  B  B33  1  0.77571076  0.77423102  0.81105957  1
  B  B34  1  0.88162841  0.87361007  0.57283113  1
  B  B35  1  0.56740981  0.86828720  0.05397327  1
  N  N36  1  0.22698867  0.20721071  0.36543552  1
  N  N37  1  0.07565135  0.11169810  0.08119420  1
  N  N38  1  0.87106374  0.18838529  0.81621995  1
  N  N39  1  0.78302863  0.06167306  0.62969601  1
  N  N40  1  0.55528778  0.20262251  0.36946233  1
  N  N41  1  0.46150249  0.06907746  0.10689513  1
  N  N42  1  0.22090312  0.20555644  0.87007023  1
  N  N43  1  0.11702854  0.09199737  0.58726379  1
  N  N44  1  0.87917932  0.20890911  0.38751558  1
  N  N45  1  0.79489961  0.10752756  0.12387259  1
  N  N46  1  0.58300333  0.19053076  0.86044633  1
  N  N47  1  0.44529386  0.09330104  0.62764250  1
  N  N48  1  0.22150033  0.53959081  0.37061392  1
  N  N49  1  0.10787713  0.42943870  0.11890081  1
  N  N50  1  0.87632559  0.56530009  0.86470090  1
  N  N51  1  0.77463101  0.43695979  0.61839265  1
  N  N52  1  0.55454450  0.54200157  0.36409170  1
  N  N53  1  0.44492597  0.42471256  0.11817850  1
  N  N54  1  0.22417552  0.53774667  0.86784956  1
  N  N55  1  0.11036155  0.42956580  0.62091733  1
  N  N56  1  0.88677219  0.54355219  0.37123959  1
  N  N57  1  0.79523309  0.39788668  0.11796308  1
  N  N58  1  0.55806277  0.53498288  0.87466802  1
  N  N59  1  0.44598953  0.42709468  0.61724640  1
  N  N60  1  0.22493929  0.86812089  0.35378093  1
  N  N61  1  0.10037417  0.76189178  0.12167941  1
  N  N62  1  0.86305348  0.88412846  0.86187599  1
  N  N63  1  0.78591604  0.77425866  0.63954500  1
  N  N64  1  0.55499403  0.87275328  0.37863860  1
  N  N65  1  0.46250338  0.77244604  0.10821537  1
  N  N66  1  0.22212110  0.86513753  0.87221780  1
  N  N67  1  0.08375769  0.77310836  0.61817531  1
  N  N68  1  0.88374023  0.87226450  0.39843596  1
  N  N69  1  0.75446938  0.77690871  0.11836686  1
  N  N70  1  0.58259066  0.85982155  0.88202434  1
  N  N71  1  0.44750548  0.75956728  0.62930231  1
