# generated using pymatgen
data_Al31B5N36
_symmetry_space_group_name_H-M   'P 1'
_cell_length_a   9.15106612
_cell_length_b   9.13181984
_cell_length_c   10.22589302
_cell_angle_alpha   90.20858585
_cell_angle_beta   89.44851798
_cell_angle_gamma   60.01521907
_symmetry_Int_Tables_number   1
_chemical_formula_structural   Al31B5N36
_chemical_formula_sum   'Al31 B5 N36'
_cell_volume   740.09367986
_cell_formula_units_Z   1
loop_
 _symmetry_equiv_pos_site_id
 _symmetry_equiv_pos_as_xyz
  1  'x, y, z'
loop_
 _atom_site_type_symbol
 _atom_site_label
 _atom_site_symmetry_multiplicity
 _atom_site_fract_x
 _atom_site_fract_y
 _atom_site_fract_z
 _atom_site_occupancy
  Al  Al0  1  0.11519106  0.09303242  0.40474137  1
  Al  Al1  1  0.21145518  0.20564897  0.14026242  1
  Al  Al2  1  0.88754485  0.20011470  0.62183985  1
  Al  Al3  1  0.45423732  0.08260739  0.32171733  1
  Al  Al4  1  0.57613011  0.18502435  0.06453164  1
  Al  Al5  1  0.09749035  0.09539500  0.89134064  1
  Al  Al6  1  0.21286769  0.21363489  0.65313128  1
  Al  Al7  1  0.77959776  0.10573006  0.32266390  1
  Al  Al8  1  0.46140045  0.08669554  0.82155921  1
  Al  Al9  1  0.56460550  0.19160905  0.57265421  1
  Al  Al10  1  0.11147378  0.42467457  0.39682643  1
  Al  Al11  1  0.22299488  0.53705935  0.14861123  1
  Al  Al12  1  0.77917693  0.42151314  0.88725968  1
  Al  Al13  1  0.88729933  0.55430828  0.65022373  1
  Al  Al14  1  0.44205263  0.43249140  0.39635398  1
  Al  Al15  1  0.56165612  0.53178772  0.14384993  1
  Al  Al16  1  0.10393889  0.43838425  0.89984745  1
  Al  Al17  1  0.21714747  0.54323009  0.64591762  1
  Al  Al18  1  0.77534328  0.43138756  0.40797706  1
  Al  Al19  1  0.88025215  0.53717201  0.14923053  1
  Al  Al20  1  0.44553861  0.42791468  0.89237496  1
  Al  Al21  1  0.55215832  0.54175488  0.65391032  1
  Al  Al22  1  0.10253760  0.76811932  0.39581737  1
  Al  Al23  1  0.21727873  0.87722247  0.14546147  1
  Al  Al24  1  0.43917582  0.75755528  0.39931352  1
  Al  Al25  1  0.09880109  0.76571311  0.89628003  1
  Al  Al26  1  0.21469442  0.87475258  0.65390135  1
  Al  Al27  1  0.78266965  0.76208493  0.38818771  1
  Al  Al28  1  0.88507229  0.86792248  0.13693949  1
  Al  Al29  1  0.45497116  0.76458898  0.89518261  1
  Al  Al30  1  0.55535734  0.87594980  0.59207684  1
  B  B31  1  0.77485135  0.07860322  0.81092725  1
  B  B32  1  0.88705495  0.20490973  0.10107825  1
  B  B33  1  0.77255766  0.77592945  0.85378223  1
  B  B34  1  0.88745399  0.86972706  0.61720215  1
  B  B35  1  0.56096576  0.86536111  0.10872694  1
  N  N36  1  0.21801099  0.20544158  0.32727063  1
  N  N37  1  0.07895401  0.10752627  0.08446634  1
  N  N38  1  0.87723848  0.19010337  0.82576807  1
  N  N39  1  0.78432577  0.06136790  0.64776211  1
  N  N40  1  0.55939973  0.19709414  0.38377652  1
  N  N41  1  0.46390325  0.06108921  0.12628488  1
  N  N42  1  0.21349560  0.21040444  0.84347964  1
  N  N43  1  0.12092441  0.09071389  0.59059574  1
  N  N44  1  0.88475380  0.20171527  0.40187877  1
  N  N45  1  0.79321054  0.11316516  0.13139769  1
  N  N46  1  0.58763576  0.18597999  0.87615802  1
  N  N47  1  0.44274160  0.10108214  0.63792361  1
  N  N48  1  0.22093125  0.54056989  0.33631136  1
  N  N49  1  0.10615264  0.43161334  0.08550337  1
  N  N50  1  0.87627394  0.57114528  0.84018872  1
  N  N51  1  0.77369905  0.44274208  0.59604130  1
  N  N52  1  0.55886550  0.53615255  0.33005207  1
  N  N53  1  0.44362965  0.42473447  0.08171687  1
  N  N54  1  0.22230926  0.53959343  0.83166558  1
  N  N55  1  0.10891463  0.43002519  0.58415167  1
  N  N56  1  0.88927239  0.53441288  0.33600800  1
  N  N57  1  0.79271056  0.39699479  0.08122622  1
  N  N58  1  0.55514773  0.54030891  0.83886289  1
  N  N59  1  0.44345518  0.43186001  0.58548773  1
  N  N60  1  0.22061358  0.87303393  0.33222975  1
  N  N61  1  0.11277059  0.75802833  0.08247389  1
  N  N62  1  0.86430673  0.87639424  0.85498890  1
  N  N63  1  0.79856054  0.77508527  0.58232317  1
  N  N64  1  0.55173824  0.87547662  0.39688365  1
  N  N65  1  0.45636708  0.77460676  0.08769737  1
  N  N66  1  0.22454545  0.86949996  0.84018008  1
  N  N67  1  0.08015747  0.77959879  0.58962683  1
  N  N68  1  0.89071073  0.87090955  0.32457772  1
  N  N69  1  0.74355296  0.77131869  0.11536666  1
  N  N70  1  0.58843310  0.85366330  0.83698842  1
  N  N71  1  0.43384175  0.75721928  0.58789698  1
