# generated using pymatgen
data_Al31B5N36
_symmetry_space_group_name_H-M   'P 1'
_cell_length_a   9.17067621
_cell_length_b   9.16391648
_cell_length_c   9.83638612
_cell_angle_alpha   89.81916894
_cell_angle_beta   89.60304053
_cell_angle_gamma   60.04401625
_symmetry_Int_Tables_number   1
_chemical_formula_structural   Al31B5N36
_chemical_formula_sum   'Al31 B5 N36'
_cell_volume   716.19401503
_cell_formula_units_Z   1
loop_
 _symmetry_equiv_pos_site_id
 _symmetry_equiv_pos_as_xyz
  1  'x, y, z'
loop_
 _atom_site_type_symbol
 _atom_site_label
 _atom_site_symmetry_multiplicity
 _atom_site_fract_x
 _atom_site_fract_y
 _atom_site_fract_z
 _atom_site_occupancy
  Al  Al0  1  0.10543485  0.09651276  0.31513612  1
  Al  Al1  1  0.21927638  0.20297557  0.06218874  1
  Al  Al2  1  0.88795990  0.19884952  0.57639003  1
  Al  Al3  1  0.44919727  0.08810252  0.30632110  1
  Al  Al4  1  0.57000622  0.19974885  0.05561153  1
  Al  Al5  1  0.10377028  0.09205113  0.81368787  1
  Al  Al6  1  0.22370554  0.20386460  0.56182229  1
  Al  Al7  1  0.78109036  0.09224874  0.32130950  1
  Al  Al8  1  0.45367498  0.08745912  0.81901435  1
  Al  Al9  1  0.56057763  0.19731789  0.56735327  1
  Al  Al10  1  0.10937069  0.42923554  0.31200388  1
  Al  Al11  1  0.22091801  0.54057305  0.06054129  1
  Al  Al12  1  0.77777076  0.42254468  0.81450708  1
  Al  Al13  1  0.88630669  0.54778383  0.56949008  1
  Al  Al14  1  0.44452455  0.42584290  0.31207189  1
  Al  Al15  1  0.56214130  0.53526343  0.06300532  1
  Al  Al16  1  0.10675447  0.43232448  0.81176810  1
  Al  Al17  1  0.21686370  0.54280761  0.56298464  1
  Al  Al18  1  0.78188653  0.42275143  0.31485962  1
  Al  Al19  1  0.88269683  0.54464847  0.05778612  1
  Al  Al20  1  0.45095439  0.42314881  0.81082368  1
  Al  Al21  1  0.55575219  0.54042328  0.56048003  1
  Al  Al22  1  0.10394269  0.76378962  0.31975347  1
  Al  Al23  1  0.21847062  0.87653059  0.06304235  1
  Al  Al24  1  0.44796728  0.76467293  0.30712322  1
  Al  Al25  1  0.09775977  0.76781355  0.80918389  1
  Al  Al26  1  0.21901343  0.87205602  0.56255986  1
  Al  Al27  1  0.77363848  0.76652508  0.31582783  1
  Al  Al28  1  0.88055895  0.88158812  0.05580950  1
  Al  Al29  1  0.45129925  0.76002593  0.81977884  1
  Al  Al30  1  0.56017370  0.87268542  0.56999800  1
  B  B31  1  0.77762494  0.08536095  0.80549801  1
  B  B32  1  0.88899782  0.20220689  0.08603035  1
  B  B33  1  0.77607713  0.77375700  0.81289158  1
  B  B34  1  0.88458989  0.87404677  0.57536456  1
  B  B35  1  0.56554603  0.86941596  0.05597186  1
  N  N36  1  0.22439793  0.20362050  0.36631864  1
  N  N37  1  0.08244111  0.10792669  0.11842951  1
  N  N38  1  0.87418064  0.18616004  0.85653595  1
  N  N39  1  0.78742537  0.06767220  0.63505590  1
  N  N40  1  0.55581759  0.20262979  0.37251632  1
  N  N41  1  0.46037012  0.06959233  0.10842102  1
  N  N42  1  0.21902470  0.20524516  0.87215773  1
  N  N43  1  0.11366572  0.09242237  0.62194481  1
  N  N44  1  0.88739431  0.20486401  0.38362481  1
  N  N45  1  0.79369930  0.10579089  0.12474130  1
  N  N46  1  0.58226735  0.19126058  0.86194728  1
  N  N47  1  0.44264765  0.09394834  0.62770226  1
  N  N48  1  0.22167798  0.53897412  0.37164927  1
  N  N49  1  0.10790503  0.42952655  0.11970420  1
  N  N50  1  0.87593018  0.56609913  0.86477602  1
  N  N51  1  0.77655656  0.42973643  0.62258528  1
  N  N52  1  0.55547507  0.54044948  0.36605253  1
  N  N53  1  0.44507647  0.42464152  0.11928333  1
  N  N54  1  0.22289629  0.54023248  0.86864598  1
  N  N55  1  0.11049886  0.42687715  0.62096019  1
  N  N56  1  0.88612193  0.54269374  0.37340908  1
  N  N57  1  0.79452956  0.39876890  0.11592441  1
  N  N58  1  0.55691553  0.53684538  0.87442519  1
  N  N59  1  0.44454728  0.42735142  0.61906073  1
  N  N60  1  0.22378730  0.87098711  0.36818995  1
  N  N61  1  0.10347916  0.76410352  0.12427786  1
  N  N62  1  0.86455820  0.88336966  0.86356583  1
  N  N63  1  0.78570294  0.77544500  0.64086281  1
  N  N64  1  0.55515253  0.87252257  0.37934352  1
  N  N65  1  0.45875383  0.77437549  0.11119784  1
  N  N66  1  0.22177289  0.86895496  0.87259925  1
  N  N67  1  0.08418630  0.77440074  0.61627455  1
  N  N68  1  0.88338767  0.87339425  0.39973130  1
  N  N69  1  0.75440384  0.77655358  0.11966748  1
  N  N70  1  0.58139226  0.86010290  0.88309833  1
  N  N71  1  0.44395167  0.76128728  0.62619570  1
