# generated using pymatgen
data_Al31B5N36
_symmetry_space_group_name_H-M   'P 1'
_cell_length_a   9.16136800
_cell_length_b   9.19475597
_cell_length_c   9.91104082
_cell_angle_alpha   89.51611719
_cell_angle_beta   90.06652120
_cell_angle_gamma   60.22702912
_symmetry_Int_Tables_number   1
_chemical_formula_structural   Al31B5N36
_chemical_formula_sum   'Al31 B5 N36'
_cell_volume   724.62894020
_cell_formula_units_Z   1
loop_
 _symmetry_equiv_pos_site_id
 _symmetry_equiv_pos_as_xyz
  1  'x, y, z'
loop_
 _atom_site_type_symbol
 _atom_site_label
 _atom_site_symmetry_multiplicity
 _atom_site_fract_x
 _atom_site_fract_y
 _atom_site_fract_z
 _atom_site_occupancy
  Al  Al0  1  0.10830408  0.09615506  0.39550671  1
  Al  Al1  1  0.21759197  0.20375843  0.14913012  1
  Al  Al2  1  0.88872987  0.19185223  0.64861231  1
  Al  Al3  1  0.44646515  0.09060131  0.39408353  1
  Al  Al4  1  0.56068953  0.20492151  0.14927362  1
  Al  Al5  1  0.09957850  0.09134593  0.90412099  1
  Al  Al6  1  0.22407611  0.20117780  0.65028016  1
  Al  Al7  1  0.78187109  0.09134257  0.38104083  1
  Al  Al8  1  0.45116137  0.08956220  0.90616640  1
  Al  Al9  1  0.56608705  0.19315385  0.64846673  1
  Al  Al10  1  0.10917777  0.42738259  0.39700784  1
  Al  Al11  1  0.22121992  0.53982875  0.14990338  1
  Al  Al12  1  0.77992862  0.41063426  0.90246208  1
  Al  Al13  1  0.89184587  0.53648695  0.65417975  1
  Al  Al14  1  0.44480683  0.42715381  0.40175982  1
  Al  Al15  1  0.55950186  0.53730319  0.14929417  1
  Al  Al16  1  0.10725640  0.42483222  0.89849029  1
  Al  Al17  1  0.21510853  0.54047050  0.64856422  1
  Al  Al18  1  0.77991463  0.42493908  0.39281669  1
  Al  Al19  1  0.88149893  0.54187984  0.13821091  1
  Al  Al20  1  0.44512347  0.42612106  0.89822383  1
  Al  Al21  1  0.55932453  0.53671700  0.65136592  1
  Al  Al22  1  0.10743538  0.76249092  0.39239618  1
  Al  Al23  1  0.21974474  0.87854186  0.15048346  1
  Al  Al24  1  0.44838280  0.76188174  0.39488026  1
  Al  Al25  1  0.09605887  0.76590518  0.90037206  1
  Al  Al26  1  0.22000853  0.87233372  0.64977110  1
  Al  Al27  1  0.77831001  0.76285453  0.38630929  1
  Al  Al28  1  0.88312426  0.88615746  0.13031457  1
  Al  Al29  1  0.45312097  0.76100530  0.90498997  1
  Al  Al30  1  0.57224605  0.86925803  0.65483397  1
  B  B31  1  0.77150792  0.09146964  0.88946604  1
  B  B32  1  0.88342235  0.20818768  0.15127603  1
  B  B33  1  0.74008587  0.82317090  0.92774654  1
  B  B34  1  0.88955334  0.86952550  0.59803884  1
  B  B35  1  0.55107233  0.87556237  0.14945658  1
  N  N36  1  0.22235814  0.20547182  0.33911543  1
  N  N37  1  0.08390494  0.10788804  0.09611517  1
  N  N38  1  0.87210535  0.17961845  0.84013045  1
  N  N39  1  0.79406571  0.06053524  0.58062826  1
  N  N40  1  0.55389028  0.20757268  0.34087965  1
  N  N41  1  0.45420197  0.07299930  0.09816115  1
  N  N42  1  0.22722384  0.19523950  0.84349509  1
  N  N43  1  0.10937597  0.09331417  0.58795159  1
  N  N44  1  0.89013780  0.20728007  0.32037846  1
  N  N45  1  0.78541945  0.11767315  0.10073622  1
  N  N46  1  0.57799096  0.19280705  0.84563522  1
  N  N47  1  0.44818441  0.08824111  0.58862975  1
  N  N48  1  0.22230114  0.53934700  0.34166878  1
  N  N49  1  0.11037482  0.42855219  0.08914056  1
  N  N50  1  0.89059432  0.51928160  0.83958701  1
  N  N51  1  0.78077534  0.41936390  0.58596977  1
  N  N52  1  0.55444948  0.53950380  0.33955898  1
  N  N53  1  0.44209305  0.42904400  0.08844096  1
  N  N54  1  0.21705942  0.54068769  0.83801924  1
  N  N55  1  0.11184208  0.42350957  0.58749871  1
  N  N56  1  0.88680546  0.54162585  0.33219187  1
  N  N57  1  0.78804715  0.40370432  0.09561421  1
  N  N58  1  0.55570605  0.53970491  0.84269959  1
  N  N59  1  0.44547785  0.42452966  0.59404750  1
  N  N60  1  0.22298216  0.87245551  0.34198983  1
  N  N61  1  0.11480224  0.76057166  0.09006991  1
  N  N62  1  0.85119117  0.89721969  0.88761245  1
  N  N63  1  0.79583904  0.77069916  0.58475691  1
  N  N64  1  0.55702055  0.87233861  0.31655657  1
  N  N65  1  0.45464649  0.77592836  0.09760933  1
  N  N66  1  0.22323246  0.86858904  0.84164890  1
  N  N67  1  0.08270818  0.77445555  0.59082158  1
  N  N68  1  0.88988800  0.87068976  0.32480661  1
  N  N69  1  0.74474697  0.78234362  0.08116175  1
  N  N70  1  0.58170047  0.86478766  0.84817395  1
  N  N71  1  0.45099518  0.76207322  0.59069174  1
