# generated using pymatgen
data_Al31B5N36
_symmetry_space_group_name_H-M   'P 1'
_cell_length_a   9.17521409
_cell_length_b   9.21395234
_cell_length_c   9.93537237
_cell_angle_alpha   89.42115839
_cell_angle_beta   89.85042969
_cell_angle_gamma   60.23395824
_symmetry_Int_Tables_number   1
_chemical_formula_structural   Al31B5N36
_chemical_formula_sum   'Al31 B5 N36'
_cell_volume   729.07491468
_cell_formula_units_Z   1
loop_
 _symmetry_equiv_pos_site_id
 _symmetry_equiv_pos_as_xyz
  1  'x, y, z'
loop_
 _atom_site_type_symbol
 _atom_site_label
 _atom_site_symmetry_multiplicity
 _atom_site_fract_x
 _atom_site_fract_y
 _atom_site_fract_z
 _atom_site_occupancy
  Al  Al0  1  0.11032181  0.09631127  0.39962156  1
  Al  Al1  1  0.21545298  0.20455708  0.14941638  1
  Al  Al2  1  0.88807623  0.19015976  0.64779275  1
  Al  Al3  1  0.44407877  0.08801947  0.38963905  1
  Al  Al4  1  0.55761310  0.20645667  0.14558970  1
  Al  Al5  1  0.09795114  0.09112568  0.90440162  1
  Al  Al6  1  0.22465429  0.20075292  0.65165553  1
  Al  Al7  1  0.78613650  0.09265415  0.34727661  1
  Al  Al8  1  0.45087743  0.09014205  0.90681832  1
  Al  Al9  1  0.56699624  0.19316795  0.60513111  1
  Al  Al10  1  0.10889331  0.42774276  0.39742131  1
  Al  Al11  1  0.21936893  0.54128096  0.15009118  1
  Al  Al12  1  0.77917405  0.40943256  0.90286589  1
  Al  Al13  1  0.89231297  0.53552088  0.65501750  1
  Al  Al14  1  0.44153696  0.43359590  0.39810402  1
  Al  Al15  1  0.56009972  0.53819095  0.14972906  1
  Al  Al16  1  0.10719657  0.42424006  0.89887056  1
  Al  Al17  1  0.21539243  0.53977217  0.64924680  1
  Al  Al18  1  0.78002717  0.42722482  0.39624251  1
  Al  Al19  1  0.88117974  0.54149568  0.13947088  1
  Al  Al20  1  0.44588242  0.42511670  0.89887548  1
  Al  Al21  1  0.55930336  0.53648699  0.65262963  1
  Al  Al22  1  0.10729313  0.76263558  0.39455353  1
  Al  Al23  1  0.21914531  0.87905926  0.15149366  1
  Al  Al24  1  0.44828865  0.76215254  0.39641973  1
  Al  Al25  1  0.09712869  0.76574836  0.90035836  1
  Al  Al26  1  0.22066236  0.87167574  0.65069641  1
  Al  Al27  1  0.77868729  0.76245019  0.38801177  1
  Al  Al28  1  0.88437395  0.88340374  0.13005766  1
  Al  Al29  1  0.45281748  0.76128377  0.90537042  1
  Al  Al30  1  0.57341747  0.86939545  0.65562299  1
  B  B31  1  0.76574617  0.08919830  0.86967831  1
  B  B32  1  0.88709369  0.21059747  0.15851320  1
  B  B33  1  0.73745193  0.82554363  0.92964065  1
  B  B34  1  0.89036379  0.87006975  0.59537222  1
  B  B35  1  0.55042089  0.87448319  0.15025563  1
  N  N36  1  0.22144855  0.20646700  0.33843167  1
  N  N37  1  0.08293265  0.10819461  0.09644325  1
  N  N38  1  0.86958464  0.17772506  0.84063417  1
  N  N39  1  0.79922987  0.05669643  0.57996366  1
  N  N40  1  0.55165510  0.20903799  0.35177225  1
  N  N41  1  0.45279032  0.07266174  0.10030475  1
  N  N42  1  0.22727249  0.19454038  0.84451330  1
  N  N43  1  0.11031468  0.09281031  0.59076181  1
  N  N44  1  0.89724329  0.21389545  0.32486209  1
  N  N45  1  0.78725213  0.11555479  0.13772999  1
  N  N46  1  0.57815830  0.19277288  0.85750323  1
  N  N47  1  0.44595183  0.08471728  0.58462257  1
  N  N48  1  0.22054978  0.54087562  0.34080052  1
  N  N49  1  0.10986666  0.42902549  0.08929646  1
  N  N50  1  0.89160432  0.51603515  0.83978054  1
  N  N51  1  0.78049418  0.41898785  0.58804491  1
  N  N52  1  0.55577486  0.54094227  0.33929550  1
  N  N53  1  0.44116622  0.43121472  0.09055922  1
  N  N54  1  0.21739507  0.54018188  0.83859828  1
  N  N55  1  0.11274761  0.42259970  0.58794428  1
  N  N56  1  0.88668966  0.54230705  0.33301064  1
  N  N57  1  0.78840420  0.40293736  0.09606800  1
  N  N58  1  0.55513573  0.54004728  0.84358031  1
  N  N59  1  0.44376857  0.42851046  0.59064838  1
  N  N60  1  0.22278172  0.87310589  0.34315564  1
  N  N61  1  0.11515743  0.76101772  0.08902466  1
  N  N62  1  0.84888339  0.90101188  0.89174787  1
  N  N63  1  0.79658640  0.76981652  0.58542830  1
  N  N64  1  0.55789419  0.87044258  0.31594414  1
  N  N65  1  0.45406881  0.77621509  0.09771589  1
  N  N66  1  0.22326192  0.86875686  0.84220942  1
  N  N67  1  0.08454426  0.77283015  0.59186295  1
  N  N68  1  0.89370290  0.86351395  0.32515303  1
  N  N69  1  0.74406273  0.78216077  0.08121186  1
  N  N70  1  0.58170006  0.86535483  0.84896342  1
  N  N71  1  0.45198195  0.76150258  0.59194934  1
