# generated using pymatgen
data_Al31B5N36
_symmetry_space_group_name_H-M   'P 1'
_cell_length_a   9.18944711
_cell_length_b   9.24634043
_cell_length_c   10.14204962
_cell_angle_alpha   90.16097783
_cell_angle_beta   89.58486334
_cell_angle_gamma   59.78878140
_symmetry_Int_Tables_number   1
_chemical_formula_structural   Al31B5N36
_chemical_formula_sum   'Al31 B5 N36'
_cell_volume   744.66994095
_cell_formula_units_Z   1
loop_
 _symmetry_equiv_pos_site_id
 _symmetry_equiv_pos_as_xyz
  1  'x, y, z'
loop_
 _atom_site_type_symbol
 _atom_site_label
 _atom_site_symmetry_multiplicity
 _atom_site_fract_x
 _atom_site_fract_y
 _atom_site_fract_z
 _atom_site_occupancy
  Al  Al0  1  0.11925991  0.09137777  0.39760762  1
  Al  Al1  1  0.21935443  0.20185706  0.12598376  1
  Al  Al2  1  0.88644716  0.20172807  0.59289748  1
  Al  Al3  1  0.45616157  0.08480666  0.31185992  1
  Al  Al4  1  0.57513964  0.19838938  0.06058471  1
  Al  Al5  1  0.08925700  0.10187063  0.89058155  1
  Al  Al6  1  0.22141728  0.20101229  0.65061891  1
  Al  Al7  1  0.78264232  0.09561052  0.32046540  1
  Al  Al8  1  0.46873392  0.08006131  0.82895020  1
  Al  Al9  1  0.55759199  0.19715187  0.57089343  1
  Al  Al10  1  0.10816334  0.43346251  0.31788269  1
  Al  Al11  1  0.22775755  0.53445586  0.06473550  1
  Al  Al12  1  0.76880002  0.43821936  0.81342486  1
  Al  Al13  1  0.88845563  0.55041420  0.56881684  1
  Al  Al14  1  0.44383296  0.42363569  0.32111632  1
  Al  Al15  1  0.56264773  0.53034700  0.07437543  1
  Al  Al16  1  0.10061724  0.44036054  0.82532412  1
  Al  Al17  1  0.21119172  0.54830398  0.57339756  1
  Al  Al18  1  0.78413532  0.41758481  0.32698083  1
  Al  Al19  1  0.88243504  0.53714610  0.07326957  1
  Al  Al20  1  0.44834497  0.42742053  0.81498357  1
  Al  Al21  1  0.55349681  0.54226009  0.56793752  1
  Al  Al22  1  0.10812050  0.75728539  0.31289507  1
  Al  Al23  1  0.21797383  0.88393152  0.13156333  1
  Al  Al24  1  0.44677107  0.76195674  0.33413614  1
  Al  Al25  1  0.09148501  0.76123276  0.83833141  1
  Al  Al26  1  0.21790442  0.87532895  0.65304775  1
  Al  Al27  1  0.77064407  0.76104442  0.31922610  1
  Al  Al28  1  0.88520490  0.87084185  0.09248373  1
  Al  Al29  1  0.44684802  0.76399635  0.86996357  1
  Al  Al30  1  0.56123439  0.87258660  0.57385840  1
  B  B31  1  0.75681895  0.13508225  0.79917798  1
  B  B32  1  0.88711087  0.20663789  0.10698911  1
  B  B33  1  0.77979649  0.75822686  0.88237897  1
  B  B34  1  0.88116821  0.86909266  0.62818936  1
  B  B35  1  0.56539973  0.86633433  0.07037650  1
  N  N36  1  0.22186861  0.20076959  0.32057662  1
  N  N37  1  0.07660903  0.11347468  0.08059360  1
  N  N38  1  0.86787749  0.20257147  0.83206646  1
  N  N39  1  0.78257998  0.06998117  0.65125278  1
  N  N40  1  0.55674842  0.20162339  0.38200839  1
  N  N41  1  0.46954604  0.06658633  0.11479452  1
  N  N42  1  0.21917151  0.20280161  0.84720349  1
  N  N43  1  0.12197493  0.08817497  0.58471177  1
  N  N44  1  0.88244073  0.20488893  0.39698185  1
  N  N45  1  0.79589791  0.11247390  0.12640717  1
  N  N46  1  0.58564443  0.19726014  0.86925556  1
  N  N47  1  0.45263167  0.08885120  0.64118989  1
  N  N48  1  0.21990215  0.54134753  0.38469301  1
  N  N49  1  0.10612880  0.43665993  0.12581443  1
  N  N50  1  0.86989411  0.56118889  0.88343224  1
  N  N51  1  0.77555382  0.43750833  0.62779175  1
  N  N52  1  0.55507442  0.53700883  0.37606298  1
  N  N53  1  0.44818518  0.41916770  0.13145026  1
  N  N54  1  0.22879886  0.53216526  0.87945279  1
  N  N55  1  0.10666489  0.43284208  0.63550873  1
  N  N56  1  0.88726171  0.53788328  0.37924222  1
  N  N57  1  0.79471937  0.39639940  0.13153219  1
  N  N58  1  0.55507794  0.53478483  0.88781545  1
  N  N59  1  0.44394758  0.42760024  0.62787177  1
  N  N60  1  0.21812634  0.87949095  0.32385925  1
  N  N61  1  0.12019883  0.75276954  0.12027279  1
  N  N62  1  0.87632944  0.84162088  0.90367676  1
  N  N63  1  0.79171970  0.77932334  0.61129381  1
  N  N64  1  0.55166452  0.87506708  0.38604285  1
  N  N65  1  0.45688832  0.77440053  0.10287157  1
  N  N66  1  0.21364686  0.87637331  0.84584102  1
  N  N67  1  0.07487489  0.77706170  0.64147116  1
  N  N68  1  0.88373126  0.87237407  0.33044415  1
  N  N69  1  0.74684040  0.76373584  0.13025326  1
  N  N70  1  0.58558735  0.85881722  0.90232705  1
  N  N71  1  0.44791824  0.76038693  0.62636796  1
