# generated using pymatgen
data_Al31B5N36
_symmetry_space_group_name_H-M   'P 1'
_cell_length_a   9.14970106
_cell_length_b   9.13747842
_cell_length_c   10.31646787
_cell_angle_alpha   90.15754979
_cell_angle_beta   89.50125455
_cell_angle_gamma   60.09777692
_symmetry_Int_Tables_number   1
_chemical_formula_structural   Al31B5N36
_chemical_formula_sum   'Al31 B5 N36'
_cell_volume   747.63737801
_cell_formula_units_Z   1
loop_
 _symmetry_equiv_pos_site_id
 _symmetry_equiv_pos_as_xyz
  1  'x, y, z'
loop_
 _atom_site_type_symbol
 _atom_site_label
 _atom_site_symmetry_multiplicity
 _atom_site_fract_x
 _atom_site_fract_y
 _atom_site_fract_z
 _atom_site_occupancy
  Al  Al0  1  0.11577523  0.09260493  0.39922559  1
  Al  Al1  1  0.21218787  0.20655930  0.13595594  1
  Al  Al2  1  0.88762165  0.19971838  0.61797633  1
  Al  Al3  1  0.45672798  0.08040707  0.31537324  1
  Al  Al4  1  0.57237867  0.19384107  0.05663197  1
  Al  Al5  1  0.09743233  0.09575761  0.88504116  1
  Al  Al6  1  0.21386470  0.21229372  0.64635448  1
  Al  Al7  1  0.78015480  0.10554548  0.31454074  1
  Al  Al8  1  0.46189631  0.08370972  0.81348797  1
  Al  Al9  1  0.56149799  0.19772893  0.56534710  1
  Al  Al10  1  0.10939839  0.42106902  0.39142162  1
  Al  Al11  1  0.23113944  0.53484256  0.06608189  1
  Al  Al12  1  0.77687296  0.42174427  0.88302424  1
  Al  Al13  1  0.88897078  0.55516676  0.64495134  1
  Al  Al14  1  0.44256041  0.42107093  0.31500311  1
  Al  Al15  1  0.56565628  0.53883390  0.13690478  1
  Al  Al16  1  0.09919883  0.43293004  0.89159957  1
  Al  Al17  1  0.22433694  0.54359259  0.57082641  1
  Al  Al18  1  0.77513670  0.43027560  0.40198599  1
  Al  Al19  1  0.88200011  0.53754047  0.14414644  1
  Al  Al20  1  0.44674025  0.41596570  0.81635382  1
  Al  Al21  1  0.55693471  0.54635842  0.64848349  1
  Al  Al22  1  0.10077460  0.77345138  0.37804845  1
  Al  Al23  1  0.21745529  0.88088138  0.13778828  1
  Al  Al24  1  0.43939858  0.75489534  0.39291851  1
  Al  Al25  1  0.09553959  0.77201868  0.88864059  1
  Al  Al26  1  0.21345503  0.87480929  0.64796465  1
  Al  Al27  1  0.78413640  0.76059525  0.38245481  1
  Al  Al28  1  0.88173939  0.87080225  0.12602122  1
  Al  Al29  1  0.45422443  0.76351218  0.88932192  1
  Al  Al30  1  0.55516297  0.87666972  0.58157334  1
  B  B31  1  0.77391676  0.07808132  0.80631932  1
  B  B32  1  0.88685020  0.20629647  0.09404389  1
  B  B33  1  0.77116782  0.77649281  0.84942487  1
  B  B34  1  0.88723154  0.87159051  0.60903025  1
  B  B35  1  0.56101408  0.86694534  0.10090944  1
  N  N36  1  0.22014767  0.20439866  0.32114323  1
  N  N37  1  0.07906185  0.10995626  0.07681474  1
  N  N38  1  0.87632484  0.19038999  0.82030683  1
  N  N39  1  0.78259561  0.06198788  0.64312087  1
  N  N40  1  0.55842493  0.20093611  0.37892042  1
  N  N41  1  0.46535372  0.06188220  0.12077715  1
  N  N42  1  0.21425167  0.20813512  0.83402182  1
  N  N43  1  0.12056032  0.09024581  0.58372794  1
  N  N44  1  0.88584328  0.20066028  0.39371664  1
  N  N45  1  0.79213459  0.11532786  0.12357658  1
  N  N46  1  0.58389758  0.18820462  0.87074003  1
  N  N47  1  0.44415441  0.09931946  0.63024718  1
  N  N48  1  0.22692412  0.54066012  0.38155235  1
  N  N49  1  0.10322837  0.42853522  0.07878480  1
  N  N50  1  0.87525277  0.57176246  0.83267102  1
  N  N51  1  0.77545761  0.44217984  0.58840582  1
  N  N52  1  0.56257717  0.53822855  0.32285477  1
  N  N53  1  0.44691045  0.41643598  0.12701065  1
  N  N54  1  0.22834646  0.53528534  0.87691654  1
  N  N55  1  0.10679186  0.42680941  0.57961253  1
  N  N56  1  0.89001863  0.53388279  0.32932647  1
  N  N57  1  0.79262598  0.39842650  0.07403568  1
  N  N58  1  0.55556856  0.54115314  0.83470740  1
  N  N59  1  0.44604480  0.42162283  0.63039088  1
  N  N60  1  0.22243507  0.87507788  0.32255179  1
  N  N61  1  0.10933282  0.76752457  0.07734628  1
  N  N62  1  0.86080007  0.87935568  0.85438374  1
  N  N63  1  0.79890263  0.77546019  0.57514041  1
  N  N64  1  0.55271027  0.87383790  0.39025652  1
  N  N65  1  0.45498842  0.77708873  0.07962322  1
  N  N66  1  0.22438563  0.87049554  0.83249588  1
  N  N67  1  0.07661010  0.78516785  0.58524638  1
  N  N68  1  0.88775754  0.87124810  0.31358257  1
  N  N69  1  0.74324247  0.77015476  0.10716209  1
  N  N70  1  0.58779511  0.85301221  0.83248114  1
  N  N71  1  0.43207241  0.75703497  0.57947778  1
