# generated using pymatgen
data_Al31B5N36
_symmetry_space_group_name_H-M   'P 1'
_cell_length_a   9.14791880
_cell_length_b   9.22430016
_cell_length_c   10.33539587
_cell_angle_alpha   90.63134421
_cell_angle_beta   89.83289936
_cell_angle_gamma   59.92181414
_symmetry_Int_Tables_number   1
_chemical_formula_structural   Al31B5N36
_chemical_formula_sum   'Al31 B5 N36'
_cell_volume   754.61208234
_cell_formula_units_Z   1
loop_
 _symmetry_equiv_pos_site_id
 _symmetry_equiv_pos_as_xyz
  1  'x, y, z'
loop_
 _atom_site_type_symbol
 _atom_site_label
 _atom_site_symmetry_multiplicity
 _atom_site_fract_x
 _atom_site_fract_y
 _atom_site_fract_z
 _atom_site_occupancy
  Al  Al0  1  0.11742878  0.09166403  0.39752073  1
  Al  Al1  1  0.21305593  0.20572130  0.13620554  1
  Al  Al2  1  0.88615439  0.20043204  0.58911135  1
  Al  Al3  1  0.45325714  0.08760784  0.31681980  1
  Al  Al4  1  0.57350335  0.19537183  0.05903888  1
  Al  Al5  1  0.09310948  0.09631435  0.88933074  1
  Al  Al6  1  0.21353332  0.21110241  0.64879443  1
  Al  Al7  1  0.78233005  0.09596524  0.31980544  1
  Al  Al8  1  0.47022179  0.07742175  0.81598904  1
  Al  Al9  1  0.55646306  0.19970337  0.56737370  1
  Al  Al10  1  0.11115089  0.42451330  0.38793180  1
  Al  Al11  1  0.23201198  0.53797932  0.06400780  1
  Al  Al12  1  0.77001638  0.43477029  0.81730070  1
  Al  Al13  1  0.88537667  0.55568882  0.60778085  1
  Al  Al14  1  0.44411098  0.42593777  0.31723586  1
  Al  Al15  1  0.56717574  0.52628617  0.07125930  1
  Al  Al16  1  0.10270715  0.42688063  0.89348270  1
  Al  Al17  1  0.21595174  0.55392284  0.57052039  1
  Al  Al18  1  0.78123607  0.41736594  0.32415460  1
  Al  Al19  1  0.88514918  0.53762991  0.12180145  1
  Al  Al20  1  0.44846518  0.42617752  0.81506921  1
  Al  Al21  1  0.55775967  0.53254585  0.56565236  1
  Al  Al22  1  0.10602435  0.75928363  0.31229219  1
  Al  Al23  1  0.22380072  0.88150806  0.13795787  1
  Al  Al24  1  0.43384947  0.76615496  0.39208006  1
  Al  Al25  1  0.09315671  0.75664396  0.83080435  1
  Al  Al26  1  0.21858863  0.87691484  0.65224868  1
  Al  Al27  1  0.77107295  0.76954751  0.32551123  1
  Al  Al28  1  0.88526615  0.87227501  0.07663965  1
  Al  Al29  1  0.45050246  0.76809087  0.89284499  1
  Al  Al30  1  0.56077474  0.87826460  0.57405180  1
  B  B31  1  0.75802732  0.13092867  0.80021352  1
  B  B32  1  0.88832073  0.20208370  0.10475672  1
  B  B33  1  0.77686363  0.75564185  0.86811871  1
  B  B34  1  0.88207042  0.87211028  0.62336821  1
  B  B35  1  0.55821285  0.87081641  0.10329095  1
  N  N36  1  0.21689715  0.20717507  0.32091309  1
  N  N37  1  0.07977178  0.10840361  0.07919484  1
  N  N38  1  0.86911417  0.19846042  0.83533646  1
  N  N39  1  0.78139799  0.07179260  0.65002108  1
  N  N40  1  0.55496477  0.20576576  0.38090410  1
  N  N41  1  0.46540205  0.06455324  0.12140207  1
  N  N42  1  0.21587732  0.20314338  0.83548297  1
  N  N43  1  0.12098176  0.08846536  0.58218935  1
  N  N44  1  0.88116081  0.20800716  0.39676724  1
  N  N45  1  0.79580015  0.10774332  0.12625023  1
  N  N46  1  0.58415529  0.19514864  0.86892544  1
  N  N47  1  0.44615612  0.09659592  0.63343013  1
  N  N48  1  0.22496582  0.54713715  0.38378258  1
  N  N49  1  0.11252774  0.42361193  0.07977715  1
  N  N50  1  0.87066106  0.56246693  0.86442991  1
  N  N51  1  0.77448563  0.43552139  0.63128778  1
  N  N52  1  0.55789167  0.53322747  0.37732272  1
  N  N53  1  0.45011172  0.41810969  0.13046097  1
  N  N54  1  0.23033560  0.53260797  0.87823560  1
  N  N55  1  0.11155772  0.42316780  0.57691423  1
  N  N56  1  0.88982219  0.53884799  0.33522577  1
  N  N57  1  0.79423842  0.39090092  0.13073161  1
  N  N58  1  0.55452803  0.53467464  0.88810866  1
  N  N59  1  0.44420998  0.42741887  0.63068565  1
  N  N60  1  0.22230419  0.87991149  0.32186933  1
  N  N61  1  0.11637754  0.75472745  0.12364743  1
  N  N62  1  0.87639054  0.84169947  0.89674642  1
  N  N63  1  0.79209847  0.78203920  0.60472895  1
  N  N64  1  0.55173301  0.87916600  0.38712224  1
  N  N65  1  0.45849514  0.77838037  0.08627112  1
  N  N66  1  0.22259504  0.87084659  0.83858629  1
  N  N67  1  0.07541081  0.77703775  0.64085196  1
  N  N68  1  0.88619390  0.87720568  0.35007724  1
  N  N69  1  0.74313101  0.77566545  0.13186965  1
  N  N70  1  0.59039742  0.85253676  0.85568631  1
  N  N71  1  0.43524468  0.76305773  0.58231508  1
