# generated using pymatgen
data_Al31B5N36
_symmetry_space_group_name_H-M   'P 1'
_cell_length_a   9.16207757
_cell_length_b   9.14142558
_cell_length_c   10.11155463
_cell_angle_alpha   90.16896048
_cell_angle_beta   89.76981169
_cell_angle_gamma   60.15897259
_symmetry_Int_Tables_number   1
_chemical_formula_structural   Al31B5N36
_chemical_formula_sum   'Al31 B5 N36'
_cell_volume   734.58044170
_cell_formula_units_Z   1
loop_
 _symmetry_equiv_pos_site_id
 _symmetry_equiv_pos_as_xyz
  1  'x, y, z'
loop_
 _atom_site_type_symbol
 _atom_site_label
 _atom_site_symmetry_multiplicity
 _atom_site_fract_x
 _atom_site_fract_y
 _atom_site_fract_z
 _atom_site_occupancy
  Al  Al0  1  0.11189687  0.09625371  0.39939989  1
  Al  Al1  1  0.21001959  0.20760466  0.14619159  1
  Al  Al2  1  0.88560542  0.19137922  0.65077092  1
  Al  Al3  1  0.45388728  0.08403096  0.32237018  1
  Al  Al4  1  0.57043008  0.19387284  0.08188430  1
  Al  Al5  1  0.09545127  0.09252873  0.90810086  1
  Al  Al6  1  0.21249896  0.20876942  0.65476067  1
  Al  Al7  1  0.77982406  0.09648083  0.33327743  1
  Al  Al8  1  0.45267095  0.09347696  0.83775902  1
  Al  Al9  1  0.56406151  0.18690114  0.57244719  1
  Al  Al10  1  0.11089495  0.42661073  0.40085995  1
  Al  Al11  1  0.22167608  0.54011590  0.15383107  1
  Al  Al12  1  0.77693019  0.41916638  0.90667083  1
  Al  Al13  1  0.88859177  0.54766538  0.65913930  1
  Al  Al14  1  0.44103326  0.43370833  0.40084487  1
  Al  Al15  1  0.56116131  0.53596968  0.15353450  1
  Al  Al16  1  0.10129275  0.43685168  0.90479857  1
  Al  Al17  1  0.21730725  0.54065150  0.65034784  1
  Al  Al18  1  0.78019901  0.42782551  0.40145455  1
  Al  Al19  1  0.87966258  0.54239431  0.14998297  1
  Al  Al20  1  0.44331856  0.43128949  0.89984180  1
  Al  Al21  1  0.55708085  0.53544608  0.65505023  1
  Al  Al22  1  0.10510524  0.76495038  0.39677732  1
  Al  Al23  1  0.21984856  0.87811798  0.15366220  1
  Al  Al24  1  0.44594569  0.76121643  0.40469235  1
  Al  Al25  1  0.09919721  0.76664718  0.90137025  1
  Al  Al26  1  0.21686743  0.87385072  0.65256148  1
  Al  Al27  1  0.78084017  0.76279753  0.39739884  1
  Al  Al28  1  0.88492707  0.87593310  0.13093986  1
  Al  Al29  1  0.45049709  0.76346030  0.90155149  1
  Al  Al30  1  0.57069433  0.86478470  0.64912416  1
  B  B31  1  0.77422284  0.07907577  0.87098526  1
  B  B32  1  0.88844374  0.20988734  0.15905163  1
  B  B33  1  0.75997136  0.77927693  0.91008667  1
  B  B34  1  0.88977999  0.87325573  0.60221527  1
  B  B35  1  0.55489044  0.87030576  0.11861545  1
  N  N36  1  0.22171136  0.20695244  0.33513592  1
  N  N37  1  0.08175268  0.10656378  0.09721033  1
  N  N38  1  0.87036399  0.18120857  0.84272004  1
  N  N39  1  0.79749156  0.05724486  0.59358926  1
  N  N40  1  0.55519003  0.20097575  0.38304937  1
  N  N41  1  0.45911235  0.06623059  0.12441239  1
  N  N42  1  0.20734945  0.20926392  0.84831547  1
  N  N43  1  0.10818418  0.09444520  0.58851817  1
  N  N44  1  0.89726196  0.21371499  0.32435929  1
  N  N45  1  0.78637328  0.11316841  0.13998497  1
  N  N46  1  0.58403967  0.18853153  0.88963756  1
  N  N47  1  0.44442699  0.09710682  0.64682249  1
  N  N48  1  0.22168481  0.53982808  0.34151567  1
  N  N49  1  0.10668572  0.43304391  0.09105543  1
  N  N50  1  0.87284549  0.56517908  0.85169314  1
  N  N51  1  0.78162385  0.42359259  0.59438000  1
  N  N52  1  0.55706428  0.53798026  0.34023568  1
  N  N53  1  0.44157059  0.43125702  0.08962922  1
  N  N54  1  0.21971492  0.53973543  0.83788817  1
  N  N55  1  0.10819338  0.42756461  0.59034191  1
  N  N56  1  0.88931362  0.54017285  0.33840213  1
  N  N57  1  0.79004423  0.40254743  0.09670392  1
  N  N58  1  0.55695425  0.53866214  0.84322673  1
  N  N59  1  0.44336630  0.42867818  0.59169755  1
  N  N60  1  0.22372480  0.87125305  0.34165115  1
  N  N61  1  0.11659195  0.75929393  0.08819544  1
  N  N62  1  0.85767128  0.89093949  0.88481652  1
  N  N63  1  0.79779269  0.77176940  0.58963590  1
  N  N64  1  0.56215151  0.86240323  0.35238911  1
  N  N65  1  0.45586817  0.77611646  0.09336851  1
  N  N66  1  0.22239123  0.87122387  0.84199239  1
  N  N67  1  0.08518536  0.77326225  0.59169134  1
  N  N68  1  0.89315952  0.86283559  0.32398211  1
  N  N69  1  0.74547605  0.77444511  0.07687427  1
  N  N70  1  0.58321300  0.85639318  0.84400459  1
  N  N71  1  0.44528105  0.75952659  0.59533510  1
