# generated using pymatgen
data_Al31B5N36
_symmetry_space_group_name_H-M   'P 1'
_cell_length_a   9.16291462
_cell_length_b   9.16441352
_cell_length_c   10.32165606
_cell_angle_alpha   90.23389641
_cell_angle_beta   89.60495686
_cell_angle_gamma   60.09910072
_symmetry_Int_Tables_number   1
_chemical_formula_structural   Al31B5N36
_chemical_formula_sum   'Al31 B5 N36'
_cell_volume   751.31921043
_cell_formula_units_Z   1
loop_
 _symmetry_equiv_pos_site_id
 _symmetry_equiv_pos_as_xyz
  1  'x, y, z'
loop_
 _atom_site_type_symbol
 _atom_site_label
 _atom_site_symmetry_multiplicity
 _atom_site_fract_x
 _atom_site_fract_y
 _atom_site_fract_z
 _atom_site_occupancy
  Al  Al0  1  0.11796771  0.08941891  0.39931947  1
  Al  Al1  1  0.21137016  0.20811003  0.13627046  1
  Al  Al2  1  0.89016525  0.18959804  0.61302413  1
  Al  Al3  1  0.45657351  0.08228130  0.31577277  1
  Al  Al4  1  0.57304058  0.19469683  0.05944246  1
  Al  Al5  1  0.09325926  0.09536891  0.88934054  1
  Al  Al6  1  0.21129587  0.21312761  0.64698359  1
  Al  Al7  1  0.78015763  0.10476977  0.31634867  1
  Al  Al8  1  0.45833008  0.08770583  0.81537621  1
  Al  Al9  1  0.55811488  0.19690840  0.56552709  1
  Al  Al10  1  0.11198214  0.42191592  0.39030517  1
  Al  Al11  1  0.23090655  0.53860431  0.06444865  1
  Al  Al12  1  0.77563512  0.42449566  0.82863626  1
  Al  Al13  1  0.89253414  0.55682528  0.64387638  1
  Al  Al14  1  0.44735539  0.42549054  0.31672379  1
  Al  Al15  1  0.56868379  0.52767564  0.06643474  1
  Al  Al16  1  0.09687336  0.43316773  0.89543838  1
  Al  Al17  1  0.21739142  0.55068399  0.57007578  1
  Al  Al18  1  0.78617227  0.42453097  0.39584489  1
  Al  Al19  1  0.87936745  0.53830550  0.14511159  1
  Al  Al20  1  0.44827191  0.42163726  0.81649805  1
  Al  Al21  1  0.54977114  0.53488702  0.57692324  1
  Al  Al22  1  0.11259520  0.75603212  0.30835392  1
  Al  Al23  1  0.22670871  0.88245908  0.13434198  1
  Al  Al24  1  0.43556397  0.76557167  0.39637311  1
  Al  Al25  1  0.09124015  0.76285239  0.83124889  1
  Al  Al26  1  0.21757128  0.87700977  0.65268818  1
  Al  Al27  1  0.78455327  0.76494280  0.38628440  1
  Al  Al28  1  0.87937586  0.87404357  0.11774454  1
  Al  Al29  1  0.45204148  0.76838106  0.88563147  1
  Al  Al30  1  0.55640665  0.87772981  0.58868597  1
  B  B31  1  0.77102011  0.08126522  0.81061178  1
  B  B32  1  0.88715038  0.20952928  0.09878334  1
  B  B33  1  0.76839438  0.77845215  0.85266638  1
  B  B34  1  0.88543136  0.87012118  0.61790327  1
  B  B35  1  0.56254536  0.86695480  0.10138137  1
  N  N36  1  0.21887433  0.20546698  0.32165142  1
  N  N37  1  0.08134819  0.10839295  0.07762170  1
  N  N38  1  0.87635018  0.18420609  0.81851835  1
  N  N39  1  0.77934039  0.05988598  0.64331557  1
  N  N40  1  0.55660561  0.20368420  0.37933296  1
  N  N41  1  0.46617666  0.06308304  0.12175789  1
  N  N42  1  0.20884162  0.20988489  0.83457795  1
  N  N43  1  0.12214608  0.08736247  0.58347460  1
  N  N44  1  0.88598958  0.19866715  0.40231023  1
  N  N45  1  0.79348914  0.11483762  0.12503284  1
  N  N46  1  0.58091237  0.19136075  0.87187138  1
  N  N47  1  0.44098527  0.10161625  0.63239545  1
  N  N48  1  0.22559922  0.54563178  0.38292661  1
  N  N49  1  0.10397608  0.43038223  0.08068924  1
  N  N50  1  0.87603374  0.57584539  0.83031411  1
  N  N51  1  0.77766071  0.43517522  0.61545235  1
  N  N52  1  0.55679532  0.53222537  0.38596549  1
  N  N53  1  0.44953621  0.42082790  0.12955793  1
  N  N54  1  0.22639244  0.53757060  0.87861384  1
  N  N55  1  0.10719424  0.42594217  0.57730108  1
  N  N56  1  0.88995445  0.53796307  0.33281062  1
  N  N57  1  0.79884346  0.39401897  0.09415323  1
  N  N58  1  0.55438500  0.53498086  0.88008781  1
  N  N59  1  0.44181522  0.42323491  0.63297388  1
  N  N60  1  0.22667216  0.87704280  0.32086640  1
  N  N61  1  0.11762897  0.75691503  0.11859202  1
  N  N62  1  0.85640174  0.88287296  0.86503731  1
  N  N63  1  0.79978744  0.77499962  0.57777931  1
  N  N64  1  0.55332751  0.87750442  0.39363619  1
  N  N65  1  0.45819861  0.77955430  0.07828531  1
  N  N66  1  0.22381759  0.87082244  0.83719297  1
  N  N67  1  0.07624017  0.77559811  0.63602449  1
  N  N68  1  0.88379393  0.87492969  0.31638801  1
  N  N69  1  0.74449329  0.77023948  0.10530220  1
  N  N70  1  0.58659956  0.85486776  0.82852264  1
  N  N71  1  0.43206217  0.76334402  0.58718186  1
