# generated using pymatgen
data_Al31B5N36
_symmetry_space_group_name_H-M   'P 1'
_cell_length_a   9.14613413
_cell_length_b   9.12401749
_cell_length_c   10.24121740
_cell_angle_alpha   90.24088491
_cell_angle_beta   89.48398978
_cell_angle_gamma   60.07667622
_symmetry_Int_Tables_number   1
_chemical_formula_structural   Al31B5N36
_chemical_formula_sum   'Al31 B5 N36'
_cell_volume   740.63025224
_cell_formula_units_Z   1
loop_
 _symmetry_equiv_pos_site_id
 _symmetry_equiv_pos_as_xyz
  1  'x, y, z'
loop_
 _atom_site_type_symbol
 _atom_site_label
 _atom_site_symmetry_multiplicity
 _atom_site_fract_x
 _atom_site_fract_y
 _atom_site_fract_z
 _atom_site_occupancy
  Al  Al0  1  0.11568815  0.09306465  0.40733541  1
  Al  Al1  1  0.21060216  0.20595071  0.14359223  1
  Al  Al2  1  0.88756538  0.19818924  0.62299579  1
  Al  Al3  1  0.45382126  0.08291487  0.32406292  1
  Al  Al4  1  0.57452537  0.18600165  0.06959802  1
  Al  Al5  1  0.09756748  0.09431672  0.89465019  1
  Al  Al6  1  0.21286068  0.21323896  0.65606804  1
  Al  Al7  1  0.77994217  0.10552601  0.32571347  1
  Al  Al8  1  0.46133697  0.08683022  0.82466905  1
  Al  Al9  1  0.56502916  0.19072694  0.57396031  1
  Al  Al10  1  0.11131776  0.42495221  0.40006280  1
  Al  Al11  1  0.22247602  0.53735826  0.15187713  1
  Al  Al12  1  0.77900473  0.42081001  0.89066888  1
  Al  Al13  1  0.88743618  0.55418704  0.65371868  1
  Al  Al14  1  0.44194668  0.43289853  0.39895769  1
  Al  Al15  1  0.56152737  0.53228512  0.14723191  1
  Al  Al16  1  0.10364752  0.43836472  0.90289542  1
  Al  Al17  1  0.21741796  0.54280292  0.64852475  1
  Al  Al18  1  0.77564327  0.43163489  0.41094655  1
  Al  Al19  1  0.88010203  0.53721058  0.15234634  1
  Al  Al20  1  0.44513825  0.42834982  0.89621395  1
  Al  Al21  1  0.55267085  0.54080063  0.65674647  1
  Al  Al22  1  0.10320457  0.76785686  0.39762030  1
  Al  Al23  1  0.21742896  0.87717542  0.14859741  1
  Al  Al24  1  0.43943137  0.75770992  0.40252208  1
  Al  Al25  1  0.09892604  0.76567641  0.89995851  1
  Al  Al26  1  0.21511116  0.87400527  0.65633177  1
  Al  Al27  1  0.78252223  0.76224143  0.39010213  1
  Al  Al28  1  0.88442491  0.86860443  0.13835285  1
  Al  Al29  1  0.45510935  0.76423119  0.89809916  1
  Al  Al30  1  0.55586518  0.87616674  0.59431708  1
  B  B31  1  0.77549417  0.07860428  0.82246976  1
  B  B32  1  0.88653878  0.20502518  0.10449028  1
  B  B33  1  0.77183581  0.77751884  0.85912141  1
  B  B34  1  0.88724462  0.87131839  0.61322193  1
  B  B35  1  0.56033743  0.86529318  0.11168103  1
  N  N36  1  0.21792286  0.20595900  0.33019822  1
  N  N37  1  0.07864055  0.10738488  0.08742946  1
  N  N38  1  0.87610907  0.18717605  0.83083475  1
  N  N39  1  0.78611373  0.05966251  0.64373477  1
  N  N40  1  0.55885585  0.19787077  0.38513120  1
  N  N41  1  0.46292446  0.06109502  0.12951700  1
  N  N42  1  0.21252278  0.21042204  0.84608993  1
  N  N43  1  0.12098513  0.09013956  0.59320011  1
  N  N44  1  0.88580241  0.20245353  0.40248564  1
  N  N45  1  0.79235227  0.11375853  0.13482741  1
  N  N46  1  0.58725352  0.18611833  0.88114998  1
  N  N47  1  0.44304649  0.10104579  0.64139012  1
  N  N48  1  0.22098300  0.54046750  0.33899819  1
  N  N49  1  0.10588763  0.43164680  0.08834736  1
  N  N50  1  0.87607987  0.57178529  0.84365579  1
  N  N51  1  0.77457432  0.44107695  0.59940193  1
  N  N52  1  0.55907352  0.53661697  0.33315598  1
  N  N53  1  0.44296809  0.42557490  0.08516119  1
  N  N54  1  0.22218171  0.53960376  0.83446965  1
  N  N55  1  0.10889477  0.42959173  0.58715563  1
  N  N56  1  0.88941810  0.53460709  0.33881963  1
  N  N57  1  0.79241320  0.39712946  0.08419836  1
  N  N58  1  0.55537142  0.53979349  0.84158477  1
  N  N59  1  0.44367411  0.43126519  0.58780816  1
  N  N60  1  0.22132884  0.87306886  0.33495585  1
  N  N61  1  0.11307004  0.75791130  0.08578221  1
  N  N62  1  0.86236966  0.87957098  0.86487149  1
  N  N63  1  0.79902852  0.77416254  0.58461181  1
  N  N64  1  0.55157106  0.87628826  0.39990994  1
  N  N65  1  0.45593587  0.77440524  0.09040757  1
  N  N66  1  0.22489465  0.86882107  0.84259024  1
  N  N67  1  0.08103311  0.77862816  0.59086128  1
  N  N68  1  0.89113226  0.87074219  0.32677916  1
  N  N69  1  0.74277170  0.77128150  0.11912908  1
  N  N70  1  0.58821914  0.85427371  0.84148239  1
  N  N71  1  0.43483291  0.75669290  0.59092220  1
