# generated using pymatgen
data_Al31B5N36
_symmetry_space_group_name_H-M   'P 1'
_cell_length_a   9.14445480
_cell_length_b   9.12130829
_cell_length_c   10.25099115
_cell_angle_alpha   90.24677075
_cell_angle_beta   89.49492793
_cell_angle_gamma   60.08867222
_symmetry_Int_Tables_number   1
_chemical_formula_structural   Al31B5N36
_chemical_formula_sum   'Al31 B5 N36'
_cell_volume   741.07136842
_cell_formula_units_Z   1
loop_
 _symmetry_equiv_pos_site_id
 _symmetry_equiv_pos_as_xyz
  1  'x, y, z'
loop_
 _atom_site_type_symbol
 _atom_site_label
 _atom_site_symmetry_multiplicity
 _atom_site_fract_x
 _atom_site_fract_y
 _atom_site_fract_z
 _atom_site_occupancy
  Al  Al0  1  0.11585353  0.09312158  0.40719878  1
  Al  Al1  1  0.21036555  0.20602394  0.14378806  1
  Al  Al2  1  0.88727657  0.19722894  0.62143502  1
  Al  Al3  1  0.45366257  0.08298620  0.32385964  1
  Al  Al4  1  0.57379243  0.18646317  0.07102463  1
  Al  Al5  1  0.09777591  0.09387665  0.89483942  1
  Al  Al6  1  0.21287670  0.21313941  0.65600556  1
  Al  Al7  1  0.78004845  0.10536929  0.32639749  1
  Al  Al8  1  0.46147682  0.08672606  0.82456744  1
  Al  Al9  1  0.56524273  0.19028461  0.57290678  1
  Al  Al10  1  0.11128216  0.42503715  0.40012201  1
  Al  Al11  1  0.22227687  0.53751996  0.15203547  1
  Al  Al12  1  0.77886421  0.42080181  0.89086628  1
  Al  Al13  1  0.88752757  0.55408445  0.65372423  1
  Al  Al14  1  0.44175647  0.43315345  0.39884480  1
  Al  Al15  1  0.56154344  0.53245129  0.14744185  1
  Al  Al16  1  0.10361931  0.43837347  0.90299537  1
  Al  Al17  1  0.21750510  0.54272803  0.64837682  1
  Al  Al18  1  0.77569353  0.43185876  0.41085472  1
  Al  Al19  1  0.88008600  0.53729741  0.15246094  1
  Al  Al20  1  0.44502758  0.42865971  0.89665294  1
  Al  Al21  1  0.55276711  0.54051478  0.65663313  1
  Al  Al22  1  0.10339276  0.76779681  0.39764732  1
  Al  Al23  1  0.21745976  0.87715613  0.14871892  1
  Al  Al24  1  0.43943535  0.75780940  0.40263420  1
  Al  Al25  1  0.09914840  0.76563948  0.90007766  1
  Al  Al26  1  0.21511707  0.87375484  0.65612720  1
  Al  Al27  1  0.78257827  0.76228264  0.39034762  1
  Al  Al28  1  0.88440364  0.86869321  0.13855912  1
  Al  Al29  1  0.45513645  0.76415742  0.89813127  1
  Al  Al30  1  0.55613168  0.87619988  0.59402985  1
  B  B31  1  0.77580718  0.07910560  0.83058876  1
  B  B32  1  0.88645461  0.20501542  0.10484877  1
  B  B33  1  0.77148134  0.77797765  0.85962624  1
  B  B34  1  0.88683399  0.87252967  0.61034377  1
  B  B35  1  0.56028177  0.86527552  0.11162877  1
  N  N36  1  0.21790934  0.20609684  0.33014370  1
  N  N37  1  0.07861697  0.10733498  0.08737438  1
  N  N38  1  0.87530652  0.18552972  0.83217079  1
  N  N39  1  0.78730911  0.05894607  0.63576059  1
  N  N40  1  0.55816966  0.19850910  0.38411651  1
  N  N41  1  0.46263567  0.06107207  0.12959097  1
  N  N42  1  0.21222097  0.21046494  0.84596477  1
  N  N43  1  0.12089391  0.09008069  0.59317352  1
  N  N44  1  0.88634633  0.20308330  0.40116434  1
  N  N45  1  0.79216847  0.11385313  0.13512243  1
  N  N46  1  0.58738922  0.18592660  0.88239975  1
  N  N47  1  0.44322457  0.10106353  0.64164546  1
  N  N48  1  0.22088325  0.54055575  0.33885949  1
  N  N49  1  0.10586979  0.43163444  0.08830062  1
  N  N50  1  0.87611705  0.57208798  0.84371453  1
  N  N51  1  0.77487149  0.44037193  0.59959265  1
  N  N52  1  0.55904942  0.53683662  0.33317561  1
  N  N53  1  0.44276325  0.42593169  0.08527534  1
  N  N54  1  0.22227205  0.53947931  0.83447459  1
  N  N55  1  0.10898212  0.42938821  0.58711674  1
  N  N56  1  0.88940784  0.53482469  0.33874046  1
  N  N57  1  0.79237433  0.39717364  0.08411750  1
  N  N58  1  0.55546111  0.53964398  0.84147381  1
  N  N59  1  0.44377546  0.43102477  0.58758927  1
  N  N60  1  0.22146743  0.87308851  0.33487829  1
  N  N61  1  0.11306523  0.75794415  0.08573756  1
  N  N62  1  0.86168146  0.88111331  0.86655915  1
  N  N63  1  0.79917513  0.77348105  0.58453819  1
  N  N64  1  0.55150963  0.87653096  0.39988587  1
  N  N65  1  0.45590296  0.77434223  0.09030647  1
  N  N66  1  0.22507485  0.86863847  0.84242582  1
  N  N67  1  0.08176802  0.77786740  0.59049404  1
  N  N68  1  0.89132385  0.87053680  0.32663884  1
  N  N69  1  0.74272213  0.77132957  0.11899505  1
  N  N70  1  0.58816920  0.85443395  0.84195704  1
  N  N71  1  0.43511797  0.75661989  0.59095521  1
