# generated using pymatgen
data_Al31B5N36
_symmetry_space_group_name_H-M   'P 1'
_cell_length_a   9.14169946
_cell_length_b   9.11737208
_cell_length_c   10.27141632
_cell_angle_alpha   90.25447374
_cell_angle_beta   89.52015343
_cell_angle_gamma   60.11158448
_symmetry_Int_Tables_number   1
_chemical_formula_structural   Al31B5N36
_chemical_formula_sum   'Al31 B5 N36'
_cell_volume   742.17809656
_cell_formula_units_Z   1
loop_
 _symmetry_equiv_pos_site_id
 _symmetry_equiv_pos_as_xyz
  1  'x, y, z'
loop_
 _atom_site_type_symbol
 _atom_site_label
 _atom_site_symmetry_multiplicity
 _atom_site_fract_x
 _atom_site_fract_y
 _atom_site_fract_z
 _atom_site_occupancy
  Al  Al0  1  0.11634410  0.09316407  0.40682882  1
  Al  Al1  1  0.20991824  0.20619364  0.14414210  1
  Al  Al2  1  0.88674090  0.19564133  0.61705186  1
  Al  Al3  1  0.45336284  0.08310889  0.32348646  1
  Al  Al4  1  0.57227739  0.18750304  0.07388009  1
  Al  Al5  1  0.09813546  0.09313185  0.89519642  1
  Al  Al6  1  0.21294860  0.21290531  0.65595851  1
  Al  Al7  1  0.78035347  0.10480632  0.32830679  1
  Al  Al8  1  0.46179006  0.08657144  0.82453100  1
  Al  Al9  1  0.56538197  0.18965861  0.57093559  1
  Al  Al10  1  0.11120527  0.42523273  0.40021671  1
  Al  Al11  1  0.22183213  0.53791342  0.15231686  1
  Al  Al12  1  0.77855480  0.42077643  0.89128651  1
  Al  Al13  1  0.88767890  0.55383516  0.65366018  1
  Al  Al14  1  0.44135977  0.43367930  0.39858037  1
  Al  Al15  1  0.56156037  0.53280702  0.14783982  1
  Al  Al16  1  0.10358737  0.43837018  0.90315282  1
  Al  Al17  1  0.21772621  0.54253774  0.64814583  1
  Al  Al18  1  0.77569246  0.43250679  0.41051194  1
  Al  Al19  1  0.88005740  0.53752591  0.15261784  1
  Al  Al20  1  0.44484806  0.42914966  0.89755383  1
  Al  Al21  1  0.55294328  0.53997535  0.65644121  1
  Al  Al22  1  0.10368767  0.76768518  0.39783844  1
  Al  Al23  1  0.21747616  0.87715608  0.14890054  1
  Al  Al24  1  0.43941745  0.75801742  0.40286376  1
  Al  Al25  1  0.09964105  0.76554132  0.90018085  1
  Al  Al26  1  0.21514253  0.87325315  0.65579085  1
  Al  Al27  1  0.78272935  0.76236508  0.39092862  1
  Al  Al28  1  0.88441761  0.86886834  0.13934885  1
  Al  Al29  1  0.45514650  0.76398935  0.89818036  1
  Al  Al30  1  0.55667636  0.87618684  0.59350496  1
  B  B31  1  0.77654530  0.07996145  0.84652535  1
  B  B32  1  0.88628327  0.20502890  0.10554942  1
  B  B33  1  0.77072164  0.77852627  0.86047617  1
  B  B34  1  0.88640654  0.87403999  0.60588969  1
  B  B35  1  0.56016571  0.86531561  0.11152767  1
  N  N36  1  0.21787930  0.20641249  0.33002218  1
  N  N37  1  0.07857215  0.10728183  0.08732044  1
  N  N38  1  0.87371263  0.18266975  0.83536070  1
  N  N39  1  0.78968938  0.05744932  0.61967087  1
  N  N40  1  0.55676567  0.19979583  0.38220701  1
  N  N41  1  0.46207011  0.06102481  0.12980839  1
  N  N42  1  0.21172068  0.21051951  0.84573950  1
  N  N43  1  0.12082075  0.08989412  0.59305028  1
  N  N44  1  0.88739867  0.20441261  0.39889246  1
  N  N45  1  0.79182560  0.11405313  0.13582526  1
  N  N46  1  0.58735952  0.18566647  0.88505445  1
  N  N47  1  0.44368948  0.10101072  0.64219924  1
  N  N48  1  0.22065586  0.54076944  0.33858584  1
  N  N49  1  0.10583337  0.43163390  0.08817368  1
  N  N50  1  0.87611250  0.57270968  0.84376259  1
  N  N51  1  0.77533039  0.43917524  0.59977793  1
  N  N52  1  0.55894812  0.53731208  0.33319396  1
  N  N53  1  0.44230949  0.42676338  0.08559047  1
  N  N54  1  0.22246328  0.53922691  0.83450130  1
  N  N55  1  0.10917551  0.42895651  0.58705377  1
  N  N56  1  0.88938964  0.53529257  0.33849193  1
  N  N57  1  0.79227713  0.39731850  0.08404044  1
  N  N58  1  0.55557784  0.53937093  0.84126870  1
  N  N59  1  0.44395054  0.43061355  0.58713286  1
  N  N60  1  0.22168294  0.87311317  0.33470355  1
  N  N61  1  0.11288749  0.75812742  0.08552446  1
  N  N62  1  0.86058110  0.88377793  0.86878281  1
  N  N63  1  0.79940907  0.77207928  0.58424757  1
  N  N64  1  0.55138120  0.87699350  0.39983851  1
  N  N65  1  0.45586770  0.77427140  0.09011339  1
  N  N66  1  0.22539242  0.86836155  0.84213211  1
  N  N67  1  0.08331722  0.77630544  0.58994774  1
  N  N68  1  0.89180394  0.86994304  0.32624023  1
  N  N69  1  0.74268428  0.77152892  0.11851850  1
  N  N70  1  0.58804913  0.85468957  0.84282948  1
  N  N71  1  0.43563830  0.75648041  0.59102048  1
