# generated using pymatgen
data_Al31B5N36
_symmetry_space_group_name_H-M   'P 1'
_cell_length_a   9.16558374
_cell_length_b   9.20198575
_cell_length_c   9.86702484
_cell_angle_alpha   89.71667681
_cell_angle_beta   90.29268327
_cell_angle_gamma   60.20058268
_symmetry_Int_Tables_number   1
_chemical_formula_structural   Al31B5N36
_chemical_formula_sum   'Al31 B5 N36'
_cell_volume   722.12266582
_cell_formula_units_Z   1
loop_
 _symmetry_equiv_pos_site_id
 _symmetry_equiv_pos_as_xyz
  1  'x, y, z'
loop_
 _atom_site_type_symbol
 _atom_site_label
 _atom_site_symmetry_multiplicity
 _atom_site_fract_x
 _atom_site_fract_y
 _atom_site_fract_z
 _atom_site_occupancy
  Al  Al0  1  0.10610869  0.09613583  0.39772381  1
  Al  Al1  1  0.21743172  0.20353883  0.15290892  1
  Al  Al2  1  0.88880803  0.19156640  0.65629276  1
  Al  Al3  1  0.44671612  0.09037774  0.39791819  1
  Al  Al4  1  0.55982854  0.20371569  0.15054286  1
  Al  Al5  1  0.10085902  0.09267255  0.90733202  1
  Al  Al6  1  0.22415382  0.20120049  0.65352277  1
  Al  Al7  1  0.78142789  0.08970262  0.38989073  1
  Al  Al8  1  0.45185182  0.08972239  0.91025519  1
  Al  Al9  1  0.56797915  0.19194220  0.65918202  1
  Al  Al10  1  0.10889204  0.42693044  0.40150653  1
  Al  Al11  1  0.22178462  0.53912469  0.15445288  1
  Al  Al12  1  0.78032675  0.41460885  0.90530807  1
  Al  Al13  1  0.89139311  0.53811388  0.65782642  1
  Al  Al14  1  0.44590014  0.42514972  0.40556267  1
  Al  Al15  1  0.55903624  0.53764404  0.15309594  1
  Al  Al16  1  0.10721706  0.42691041  0.90191306  1
  Al  Al17  1  0.21636129  0.53991923  0.65194518  1
  Al  Al18  1  0.77984609  0.42302719  0.39597954  1
  Al  Al19  1  0.88161373  0.54106563  0.14256200  1
  Al  Al20  1  0.44483764  0.42736287  0.90298750  1
  Al  Al21  1  0.55953260  0.53642961  0.65502209  1
  Al  Al22  1  0.10593234  0.76287558  0.39434641  1
  Al  Al23  1  0.21975239  0.87809888  0.15421869  1
  Al  Al24  1  0.44789911  0.76148014  0.39903824  1
  Al  Al25  1  0.09616725  0.76612452  0.90405834  1
  Al  Al26  1  0.21945173  0.87273985  0.65273109  1
  Al  Al27  1  0.77822649  0.76300155  0.38871069  1
  Al  Al28  1  0.88295881  0.88267320  0.12761533  1
  Al  Al29  1  0.45247964  0.76224384  0.90812761  1
  Al  Al30  1  0.57204625  0.86954339  0.65835102  1
  B  B31  1  0.77357758  0.09834226  0.91726804  1
  B  B32  1  0.88379460  0.20884214  0.15011463  1
  B  B33  1  0.74235701  0.81825992  0.93136324  1
  B  B34  1  0.89022832  0.86854726  0.60396811  1
  B  B35  1  0.55075862  0.87380374  0.15386516  1
  N  N36  1  0.22151232  0.20497372  0.34368536  1
  N  N37  1  0.08313793  0.10786322  0.09992286  1
  N  N38  1  0.87329939  0.18362303  0.84768920  1
  N  N39  1  0.79454289  0.05976699  0.58783905  1
  N  N40  1  0.55594847  0.20542994  0.34233643  1
  N  N41  1  0.45330299  0.07161668  0.10260895  1
  N  N42  1  0.22679684  0.19706060  0.84742434  1
  N  N43  1  0.10795947  0.09398695  0.59130094  1
  N  N44  1  0.88666659  0.20470249  0.31986655  1
  N  N45  1  0.78349289  0.11724909  0.08613366  1
  N  N46  1  0.57775932  0.19472532  0.85590203  1
  N  N47  1  0.44899450  0.08917521  0.59347210  1
  N  N48  1  0.22224296  0.53841263  0.34683186  1
  N  N49  1  0.11039264  0.42826872  0.09345308  1
  N  N50  1  0.88815183  0.52760213  0.84497407  1
  N  N51  1  0.78167592  0.41829967  0.59052113  1
  N  N52  1  0.55413871  0.53893099  0.34401535  1
  N  N53  1  0.44232362  0.42877755  0.09380100  1
  N  N54  1  0.21761364  0.54153027  0.84193990  1
  N  N55  1  0.11152451  0.42372129  0.59236987  1
  N  N56  1  0.88653280  0.54042047  0.33695571  1
  N  N57  1  0.78799854  0.40341880  0.09899747  1
  N  N58  1  0.55546222  0.54077253  0.84697571  1
  N  N59  1  0.44727720  0.42213269  0.59874800  1
  N  N60  1  0.22240610  0.87214888  0.34612812  1
  N  N61  1  0.11676224  0.75909330  0.09495432  1
  N  N62  1  0.85351504  0.89386887  0.89855680  1
  N  N63  1  0.79586823  0.77112360  0.58823930  1
  N  N64  1  0.55620695  0.87168955  0.32131012  1
  N  N65  1  0.45365917  0.77565642  0.10166569  1
  N  N66  1  0.22250121  0.86976637  0.84531078  1
  N  N67  1  0.08266199  0.77405051  0.59422336  1
  N  N68  1  0.88770392  0.87277675  0.32498220  1
  N  N69  1  0.74285964  0.77900423  0.08648734  1
  N  N70  1  0.58123281  0.86523724  0.85167216  1
  N  N71  1  0.45072454  0.76200610  0.59480766  1
