# generated using pymatgen
data_Al31B5N36
_symmetry_space_group_name_H-M   'P 1'
_cell_length_a   9.17276281
_cell_length_b   9.20859733
_cell_length_c   9.93052320
_cell_angle_alpha   89.43153422
_cell_angle_beta   89.87626444
_cell_angle_gamma   60.22429201
_symmetry_Int_Tables_number   1
_chemical_formula_structural   Al31B5N36
_chemical_formula_sum   'Al31 B5 N36'
_cell_volume   728.03113056
_cell_formula_units_Z   1
loop_
 _symmetry_equiv_pos_site_id
 _symmetry_equiv_pos_as_xyz
  1  'x, y, z'
loop_
 _atom_site_type_symbol
 _atom_site_label
 _atom_site_symmetry_multiplicity
 _atom_site_fract_x
 _atom_site_fract_y
 _atom_site_fract_z
 _atom_site_occupancy
  Al  Al0  1  0.11050240  0.09625707  0.39905023  1
  Al  Al1  1  0.21610478  0.20430789  0.14938333  1
  Al  Al2  1  0.88827202  0.19051538  0.64663784  1
  Al  Al3  1  0.44526475  0.08929203  0.39171715  1
  Al  Al4  1  0.55708837  0.20685504  0.15066169  1
  Al  Al5  1  0.09825454  0.09103935  0.90445395  1
  Al  Al6  1  0.22456826  0.20082788  0.65135342  1
  Al  Al7  1  0.78488036  0.09287029  0.35198727  1
  Al  Al8  1  0.45089464  0.09010541  0.90623196  1
  Al  Al9  1  0.56665685  0.19303367  0.62705328  1
  Al  Al10  1  0.10913582  0.42760240  0.39717625  1
  Al  Al11  1  0.21997976  0.54079983  0.14992708  1
  Al  Al12  1  0.77924321  0.40962776  0.90292443  1
  Al  Al13  1  0.89230317  0.53574460  0.65487699  1
  Al  Al14  1  0.44294116  0.43070065  0.39970022  1
  Al  Al15  1  0.56000073  0.53762241  0.14958758  1
  Al  Al16  1  0.10719562  0.42426077  0.89892630  1
  Al  Al17  1  0.21516838  0.54011567  0.64885857  1
  Al  Al18  1  0.77990104  0.42715143  0.39586074  1
  Al  Al19  1  0.88122570  0.54154058  0.13937905  1
  Al  Al20  1  0.44582942  0.42505888  0.89810069  1
  Al  Al21  1  0.55920287  0.53663839  0.65226533  1
  Al  Al22  1  0.10769567  0.76225820  0.39415063  1
  Al  Al23  1  0.21913413  0.87908281  0.15141970  1
  Al  Al24  1  0.44833824  0.76203751  0.39589146  1
  Al  Al25  1  0.09727062  0.76562527  0.90043513  1
  Al  Al26  1  0.22058267  0.87168831  0.65047457  1
  Al  Al27  1  0.77853113  0.76257816  0.38778200  1
  Al  Al28  1  0.88396682  0.88439069  0.13064335  1
  Al  Al29  1  0.45281941  0.76117247  0.90544209  1
  Al  Al30  1  0.57308352  0.86914281  0.65520076  1
  B  B31  1  0.76738273  0.08820623  0.86799622  1
  B  B32  1  0.88632349  0.21016698  0.15823680  1
  B  B33  1  0.73740188  0.82532595  0.92944863  1
  B  B34  1  0.88973850  0.87073252  0.59478017  1
  B  B35  1  0.55061043  0.87492787  0.15006692  1
  N  N36  1  0.22221265  0.20599908  0.33863380  1
  N  N37  1  0.08316837  0.10815007  0.09635754  1
  N  N38  1  0.86970911  0.17755293  0.84003630  1
  N  N39  1  0.79716772  0.05833011  0.57890702  1
  N  N40  1  0.55055458  0.20949323  0.34598546  1
  N  N41  1  0.45356750  0.07321218  0.09893263  1
  N  N42  1  0.22726163  0.19462319  0.84434180  1
  N  N43  1  0.11046603  0.09276851  0.59041651  1
  N  N44  1  0.89671985  0.21326035  0.32481914  1
  N  N45  1  0.78668198  0.11619723  0.13505154  1
  N  N46  1  0.57765784  0.19234316  0.84501408  1
  N  N47  1  0.44679467  0.08583038  0.58595180  1
  N  N48  1  0.22142902  0.54031101  0.34089961  1
  N  N49  1  0.10990049  0.42898608  0.08930910  1
  N  N50  1  0.89156080  0.51624062  0.83976107  1
  N  N51  1  0.78049592  0.41940858  0.58785848  1
  N  N52  1  0.55538976  0.54034831  0.33939243  1
  N  N53  1  0.44178574  0.42975991  0.08893853  1
  N  N54  1  0.21730810  0.54017949  0.83836852  1
  N  N55  1  0.11256585  0.42278126  0.58782191  1
  N  N56  1  0.88670128  0.54228198  0.33290976  1
  N  N57  1  0.78835196  0.40309830  0.09599380  1
  N  N58  1  0.55529622  0.53982639  0.84342751  1
  N  N59  1  0.44422126  0.42739388  0.59165501  1
  N  N60  1  0.22282256  0.87299581  0.34298023  1
  N  N61  1  0.11495190  0.76099270  0.08905012  1
  N  N62  1  0.84848899  0.90124959  0.89082562  1
  N  N63  1  0.79640614  0.77007653  0.58538990  1
  N  N64  1  0.55757375  0.87122647  0.31605981  1
  N  N65  1  0.45416349  0.77620690  0.09774647  1
  N  N66  1  0.22326623  0.86866286  0.84207335  1
  N  N67  1  0.08398713  0.77343996  0.59163736  1
  N  N68  1  0.89356472  0.86399363  0.32535007  1
  N  N69  1  0.74434723  0.78231328  0.08106449  1
  N  N70  1  0.58167914  0.86513961  0.84878865  1
  N  N71  1  0.45176067  0.76163523  0.59165705  1
