# generated using pymatgen
data_Al31B5N36
_symmetry_space_group_name_H-M   'P 1'
_cell_length_a   9.16551451
_cell_length_b   9.20584189
_cell_length_c   9.86776446
_cell_angle_alpha   89.66060645
_cell_angle_beta   90.29922804
_cell_angle_gamma   60.20854366
_symmetry_Int_Tables_number   1
_chemical_formula_structural   Al31B5N36
_chemical_formula_sum   'Al31 B5 N36'
_cell_volume   722.52308695
_cell_formula_units_Z   1
loop_
 _symmetry_equiv_pos_site_id
 _symmetry_equiv_pos_as_xyz
  1  'x, y, z'
loop_
 _atom_site_type_symbol
 _atom_site_label
 _atom_site_symmetry_multiplicity
 _atom_site_fract_x
 _atom_site_fract_y
 _atom_site_fract_z
 _atom_site_occupancy
  Al  Al0  1  0.10620370  0.09613658  0.39500155  1
  Al  Al1  1  0.21731051  0.20376518  0.15013393  1
  Al  Al2  1  0.88892767  0.19128282  0.65346827  1
  Al  Al3  1  0.44681610  0.09044575  0.39524538  1
  Al  Al4  1  0.55967308  0.20416895  0.14791456  1
  Al  Al5  1  0.10091335  0.09266601  0.90447922  1
  Al  Al6  1  0.22447758  0.20087742  0.65065835  1
  Al  Al7  1  0.78146350  0.08979329  0.38727912  1
  Al  Al8  1  0.45172794  0.09012876  0.90763668  1
  Al  Al9  1  0.56805856  0.19191364  0.65647339  1
  Al  Al10  1  0.10898391  0.42690131  0.39842228  1
  Al  Al11  1  0.22165561  0.53933611  0.15156479  1
  Al  Al12  1  0.78031530  0.41389994  0.90249313  1
  Al  Al13  1  0.89184244  0.53691129  0.65458120  1
  Al  Al14  1  0.44585620  0.42529701  0.40283282  1
  Al  Al15  1  0.55884310  0.53796864  0.15027185  1
  Al  Al16  1  0.10743356  0.42627872  0.89889753  1
  Al  Al17  1  0.21628393  0.53978864  0.64910499  1
  Al  Al18  1  0.77980950  0.42303157  0.39280941  1
  Al  Al19  1  0.88151160  0.54133266  0.13937124  1
  Al  Al20  1  0.44448822  0.42775442  0.90013609  1
  Al  Al21  1  0.55972849  0.53624549  0.65220392  1
  Al  Al22  1  0.10612527  0.76286138  0.39154689  1
  Al  Al23  1  0.21979394  0.87834334  0.15147852  1
  Al  Al24  1  0.44802616  0.76153887  0.39642021  1
  Al  Al25  1  0.09596773  0.76625713  0.90142064  1
  Al  Al26  1  0.21970381  0.87252283  0.65006239  1
  Al  Al27  1  0.77838867  0.76291788  0.38590120  1
  Al  Al28  1  0.88305804  0.88325165  0.12521278  1
  Al  Al29  1  0.45265919  0.76232149  0.90541339  1
  Al  Al30  1  0.57265348  0.86929603  0.65579036  1
  B  B31  1  0.77345838  0.09884499  0.91463080  1
  B  B32  1  0.88368713  0.20910638  0.14744744  1
  B  B33  1  0.74116239  0.82084766  0.92966232  1
  B  B34  1  0.89050904  0.86814388  0.60100475  1
  B  B35  1  0.55053082  0.87424990  0.15139309  1
  N  N36  1  0.22157507  0.20500065  0.34087605  1
  N  N37  1  0.08308156  0.10809460  0.09709033  1
  N  N38  1  0.87322915  0.18332115  0.84491776  1
  N  N39  1  0.79471034  0.05938753  0.58518522  1
  N  N40  1  0.55592995  0.20567576  0.33970489  1
  N  N41  1  0.45321534  0.07200112  0.10001405  1
  N  N42  1  0.22730040  0.19656044  0.84454874  1
  N  N43  1  0.10813175  0.09376643  0.58859239  1
  N  N44  1  0.88673275  0.20475040  0.31705861  1
  N  N45  1  0.78331327  0.11775754  0.08357666  1
  N  N46  1  0.57753494  0.19517997  0.85322925  1
  N  N47  1  0.44935866  0.08889122  0.59076267  1
  N  N48  1  0.22220950  0.53856729  0.34391180  1
  N  N49  1  0.11034042  0.42843684  0.09050043  1
  N  N50  1  0.88938928  0.52433418  0.84116916  1
  N  N51  1  0.78160054  0.41778166  0.58719238  1
  N  N52  1  0.55395329  0.53920862  0.34116088  1
  N  N53  1  0.44213700  0.42914114  0.09096277  1
  N  N54  1  0.21715396  0.54177108  0.83913596  1
  N  N55  1  0.11195269  0.42328780  0.58919379  1
  N  N56  1  0.88649947  0.54056605  0.33384937  1
  N  N57  1  0.78778889  0.40369398  0.09624435  1
  N  N58  1  0.55536671  0.54094923  0.84419527  1
  N  N59  1  0.44724361  0.42214088  0.59603181  1
  N  N60  1  0.22249919  0.87228096  0.34341549  1
  N  N61  1  0.11671779  0.75938454  0.09230751  1
  N  N62  1  0.85313838  0.89470178  0.89639919  1
  N  N63  1  0.79631314  0.77056648  0.58548582  1
  N  N64  1  0.55620505  0.87189301  0.31866814  1
  N  N65  1  0.45365577  0.77600903  0.09894246  1
  N  N66  1  0.22250237  0.86973988  0.84265148  1
  N  N67  1  0.08290116  0.77386506  0.59139069  1
  N  N68  1  0.88773194  0.87300310  0.32242077  1
  N  N69  1  0.74267049  0.77981787  0.08399123  1
  N  N70  1  0.58146170  0.86562398  0.84926130  1
  N  N71  1  0.45106980  0.76193054  0.59224303  1
