# generated using pymatgen
data_Al31B5N36
_symmetry_space_group_name_H-M   'P 1'
_cell_length_a   9.16933349
_cell_length_b   9.15205125
_cell_length_c   10.23336226
_cell_angle_alpha   90.10811744
_cell_angle_beta   89.46633274
_cell_angle_gamma   60.05101503
_symmetry_Int_Tables_number   1
_chemical_formula_structural   Al31B5N36
_chemical_formula_sum   'Al31 B5 N36'
_cell_volume   744.04125635
_cell_formula_units_Z   1
loop_
 _symmetry_equiv_pos_site_id
 _symmetry_equiv_pos_as_xyz
  1  'x, y, z'
loop_
 _atom_site_type_symbol
 _atom_site_label
 _atom_site_symmetry_multiplicity
 _atom_site_fract_x
 _atom_site_fract_y
 _atom_site_fract_z
 _atom_site_occupancy
  Al  Al0  1  0.11608605  0.09387988  0.39766258  1
  Al  Al1  1  0.21303024  0.20518348  0.13388268  1
  Al  Al2  1  0.88705642  0.20014892  0.61426883  1
  Al  Al3  1  0.45595812  0.08152330  0.31520392  1
  Al  Al4  1  0.57392179  0.19241498  0.05641244  1
  Al  Al5  1  0.09669234  0.09496218  0.88459359  1
  Al  Al6  1  0.21386680  0.21137210  0.64647268  1
  Al  Al7  1  0.78123810  0.10536908  0.31646101  1
  Al  Al8  1  0.46151221  0.08338257  0.81419472  1
  Al  Al9  1  0.56076277  0.19799723  0.56385599  1
  Al  Al10  1  0.11238479  0.42415739  0.39194207  1
  Al  Al11  1  0.22229681  0.53891527  0.10363211  1
  Al  Al12  1  0.77792943  0.42071349  0.88196183  1
  Al  Al13  1  0.88733866  0.55459395  0.64401242  1
  Al  Al14  1  0.44446406  0.42192230  0.31775862  1
  Al  Al15  1  0.56633196  0.53858252  0.13486834  1
  Al  Al16  1  0.10095164  0.43544457  0.88868115  1
  Al  Al17  1  0.21716076  0.54475147  0.61629540  1
  Al  Al18  1  0.77579966  0.43157497  0.40065316  1
  Al  Al19  1  0.88140190  0.53762263  0.14337905  1
  Al  Al20  1  0.45029979  0.41396766  0.81792837  1
  Al  Al21  1  0.55741891  0.54629086  0.64789467  1
  Al  Al22  1  0.10214370  0.77126326  0.39021898  1
  Al  Al23  1  0.21674972  0.87949729  0.13935461  1
  Al  Al24  1  0.43940945  0.75576523  0.39220855  1
  Al  Al25  1  0.09617407  0.76834804  0.88501661  1
  Al  Al26  1  0.21446943  0.87579523  0.64736150  1
  Al  Al27  1  0.78437182  0.76111076  0.38166516  1
  Al  Al28  1  0.88315590  0.87022515  0.13087839  1
  Al  Al29  1  0.45339022  0.76398176  0.88920403  1
  Al  Al30  1  0.55556004  0.87662703  0.58269381  1
  B  B31  1  0.77404363  0.07770573  0.80255065  1
  B  B32  1  0.88760573  0.20509178  0.09468901  1
  B  B33  1  0.77111559  0.77512087  0.84601200  1
  B  B34  1  0.88548582  0.87157276  0.61264023  1
  B  B35  1  0.56124775  0.86758053  0.10132062  1
  N  N36  1  0.21987184  0.20592448  0.32042739  1
  N  N37  1  0.07923333  0.10856626  0.07789683  1
  N  N38  1  0.87616490  0.18972505  0.81891366  1
  N  N39  1  0.78164515  0.06325997  0.64030114  1
  N  N40  1  0.55883877  0.20079611  0.37719556  1
  N  N41  1  0.46534197  0.06219810  0.11927463  1
  N  N42  1  0.21424363  0.20738136  0.83581939  1
  N  N43  1  0.12045356  0.09071399  0.58330251  1
  N  N44  1  0.88595017  0.20210204  0.39432361  1
  N  N45  1  0.79340396  0.11381796  0.12391028  1
  N  N46  1  0.58518232  0.18605730  0.87007896  1
  N  N47  1  0.44347155  0.10011571  0.62960545  1
  N  N48  1  0.22175251  0.54323267  0.35873255  1
  N  N49  1  0.10421077  0.42927509  0.07568904  1
  N  N50  1  0.87384208  0.57088629  0.83277090  1
  N  N51  1  0.77529912  0.44268701  0.58799966  1
  N  N52  1  0.56331377  0.53891074  0.32207315  1
  N  N53  1  0.44943407  0.41608569  0.12229554  1
  N  N54  1  0.21864492  0.54034850  0.83806406  1
  N  N55  1  0.10700223  0.42708019  0.57998474  1
  N  N56  1  0.89132877  0.53392525  0.32926743  1
  N  N57  1  0.79429595  0.39710460  0.07425486  1
  N  N58  1  0.55550734  0.54098847  0.83656581  1
  N  N59  1  0.45181706  0.41923365  0.62765721  1
  N  N60  1  0.22081531  0.87460615  0.32508215  1
  N  N61  1  0.10909733  0.76547974  0.07296879  1
  N  N62  1  0.86209920  0.87656297  0.84514753  1
  N  N63  1  0.79890501  0.77496771  0.57561283  1
  N  N64  1  0.55293338  0.87428554  0.38943900  1
  N  N65  1  0.45515728  0.77782999  0.08059679  1
  N  N66  1  0.22405479  0.87024547  0.83267197  1
  N  N67  1  0.07728360  0.78454830  0.58532202  1
  N  N68  1  0.89059596  0.87182644  0.31786329  1
  N  N69  1  0.74372381  0.77146541  0.10859930  1
  N  N70  1  0.58750806  0.85231585  0.83078033  1
  N  N71  1  0.43282997  0.75747684  0.58000244  1
