# generated using pymatgen
data_Al31B5N36
_symmetry_space_group_name_H-M   'P 1'
_cell_length_a   9.17346571
_cell_length_b   9.15014332
_cell_length_c   10.19620072
_cell_angle_alpha   90.08516290
_cell_angle_beta   89.46925636
_cell_angle_gamma   60.00914559
_symmetry_Int_Tables_number   1
_chemical_formula_structural   Al31B5N36
_chemical_formula_sum   'Al31 B5 N36'
_cell_volume   741.20936438
_cell_formula_units_Z   1
loop_
 _symmetry_equiv_pos_site_id
 _symmetry_equiv_pos_as_xyz
  1  'x, y, z'
loop_
 _atom_site_type_symbol
 _atom_site_label
 _atom_site_symmetry_multiplicity
 _atom_site_fract_x
 _atom_site_fract_y
 _atom_site_fract_z
 _atom_site_occupancy
  Al  Al0  1  0.11547327  0.09330787  0.39710035  1
  Al  Al1  1  0.21211773  0.20587991  0.13236825  1
  Al  Al2  1  0.88749486  0.19973895  0.61464757  1
  Al  Al3  1  0.45484729  0.08186024  0.31413296  1
  Al  Al4  1  0.57228611  0.19382075  0.05645017  1
  Al  Al5  1  0.09733581  0.09524459  0.88370946  1
  Al  Al6  1  0.21379733  0.21292001  0.64524950  1
  Al  Al7  1  0.78138661  0.10463905  0.31513723  1
  Al  Al8  1  0.46135684  0.08391078  0.81437485  1
  Al  Al9  1  0.56174057  0.19661297  0.56612912  1
  Al  Al10  1  0.11139985  0.42457437  0.38981182  1
  Al  Al11  1  0.21747415  0.54058055  0.13878043  1
  Al  Al12  1  0.77977695  0.42096644  0.88107560  1
  Al  Al13  1  0.88856206  0.55410727  0.64294983  1
  Al  Al14  1  0.44682091  0.42312838  0.33625748  1
  Al  Al15  1  0.56337990  0.53576826  0.13338070  1
  Al  Al16  1  0.10323754  0.43799330  0.89263557  1
  Al  Al17  1  0.21385945  0.54540837  0.63744802  1
  Al  Al18  1  0.77650525  0.43119643  0.40061843  1
  Al  Al19  1  0.88010887  0.53767746  0.14181660  1
  Al  Al20  1  0.45083367  0.41681066  0.83072472  1
  Al  Al21  1  0.55670307  0.54508556  0.64641638  1
  Al  Al22  1  0.10202043  0.76927310  0.38860949  1
  Al  Al23  1  0.21669789  0.87813748  0.13807159  1
  Al  Al24  1  0.43923263  0.75771753  0.39225756  1
  Al  Al25  1  0.09861353  0.76601499  0.88925131  1
  Al  Al26  1  0.21496709  0.87484479  0.64640163  1
  Al  Al27  1  0.78312339  0.76169442  0.37976432  1
  Al  Al28  1  0.88278405  0.87037635  0.12767735  1
  Al  Al29  1  0.45431767  0.76459560  0.88869718  1
  Al  Al30  1  0.55648489  0.87611831  0.58413301  1
  B  B31  1  0.77594138  0.07599562  0.80290157  1
  B  B32  1  0.88708386  0.20515641  0.09384199  1
  B  B33  1  0.77261903  0.77504402  0.84677549  1
  B  B34  1  0.88715556  0.87010288  0.60908489  1
  B  B35  1  0.56054624  0.86734171  0.10107751  1
  N  N36  1  0.21907842  0.20554837  0.32017533  1
  N  N37  1  0.07887890  0.10820481  0.07729082  1
  N  N38  1  0.87676275  0.18978770  0.81833975  1
  N  N39  1  0.78425974  0.06072451  0.63985617  1
  N  N40  1  0.55963059  0.19820686  0.37805803  1
  N  N41  1  0.46442087  0.06231464  0.11829906  1
  N  N42  1  0.21390823  0.20989257  0.83623924  1
  N  N43  1  0.12068054  0.09094222  0.58345149  1
  N  N44  1  0.88525657  0.20181337  0.39393438  1
  N  N45  1  0.79291098  0.11395290  0.12294156  1
  N  N46  1  0.58677135  0.18485939  0.86860959  1
  N  N47  1  0.44317961  0.10006231  0.62965513  1
  N  N48  1  0.21575254  0.54393885  0.33044904  1
  N  N49  1  0.10483327  0.43186237  0.07794851  1
  N  N50  1  0.87608145  0.57074626  0.83299305  1
  N  N51  1  0.77615970  0.44236244  0.58829078  1
  N  N52  1  0.56227528  0.53927741  0.32306669  1
  N  N53  1  0.44637859  0.41976630  0.10836692  1
  N  N54  1  0.21621112  0.54260777  0.82594382  1
  N  N55  1  0.10938611  0.42948651  0.57674721  1
  N  N56  1  0.88999141  0.53425563  0.32866326  1
  N  N57  1  0.79374693  0.39711261  0.07395554  1
  N  N58  1  0.55704075  0.54167277  0.83494716  1
  N  N59  1  0.44925504  0.42280946  0.61777798  1
  N  N60  1  0.22074660  0.87328107  0.32518474  1
  N  N61  1  0.11108786  0.76050339  0.07512846  1
  N  N62  1  0.86368133  0.87631611  0.84850777  1
  N  N63  1  0.79951672  0.77460134  0.57471111  1
  N  N64  1  0.55256665  0.87510981  0.38905534  1
  N  N65  1  0.45534566  0.77727284  0.08051490  1
  N  N66  1  0.22441916  0.86952133  0.83289803  1
  N  N67  1  0.07990843  0.78056233  0.58207675  1
  N  N68  1  0.89029939  0.87145684  0.31674279  1
  N  N69  1  0.74290947  0.77173807  0.10799300  1
  N  N70  1  0.58888403  0.85222411  0.82944653  1
  N  N71  1  0.43377760  0.75804238  0.58030781  1
