# generated using pymatgen
data_Al31B5N36
_symmetry_space_group_name_H-M   'P 1'
_cell_length_a   9.16971501
_cell_length_b   9.15619064
_cell_length_c   10.29862797
_cell_angle_alpha   90.11929174
_cell_angle_beta   89.57684769
_cell_angle_gamma   60.17872399
_symmetry_Int_Tables_number   1
_chemical_formula_structural   Al31B5N36
_chemical_formula_sum   'Al31 B5 N36'
_cell_volume   750.13355449
_cell_formula_units_Z   1
loop_
 _symmetry_equiv_pos_site_id
 _symmetry_equiv_pos_as_xyz
  1  'x, y, z'
loop_
 _atom_site_type_symbol
 _atom_site_label
 _atom_site_symmetry_multiplicity
 _atom_site_fract_x
 _atom_site_fract_y
 _atom_site_fract_z
 _atom_site_occupancy
  Al  Al0  1  0.11611951  0.09059891  0.39890131  1
  Al  Al1  1  0.21190396  0.20834608  0.13676457  1
  Al  Al2  1  0.88814038  0.19642335  0.61839930  1
  Al  Al3  1  0.45679203  0.08266391  0.31658187  1
  Al  Al4  1  0.57200151  0.19432480  0.05874327  1
  Al  Al5  1  0.09691248  0.09318979  0.88735245  1
  Al  Al6  1  0.21243659  0.21303210  0.64628905  1
  Al  Al7  1  0.78043419  0.10448704  0.31532674  1
  Al  Al8  1  0.46020220  0.08601661  0.81457160  1
  Al  Al9  1  0.55994343  0.19717885  0.56584688  1
  Al  Al10  1  0.11049862  0.42226233  0.39138786  1
  Al  Al11  1  0.22946253  0.53849340  0.06367838  1
  Al  Al12  1  0.78266151  0.41868164  0.87712200  1
  Al  Al13  1  0.88860752  0.55410884  0.64634275  1
  Al  Al14  1  0.44578684  0.42524984  0.31695130  1
  Al  Al15  1  0.55960726  0.53326805  0.07390481  1
  Al  Al16  1  0.09955240  0.43172131  0.89328942  1
  Al  Al17  1  0.21732929  0.55074311  0.57092634  1
  Al  Al18  1  0.78533929  0.42559058  0.40102881  1
  Al  Al19  1  0.87976581  0.53881644  0.14431114  1
  Al  Al20  1  0.45034366  0.42151590  0.81697834  1
  Al  Al21  1  0.55101708  0.53644670  0.57908913  1
  Al  Al22  1  0.11161188  0.75628319  0.30873405  1
  Al  Al23  1  0.22474414  0.88370178  0.13525467  1
  Al  Al24  1  0.43601542  0.76466526  0.39281831  1
  Al  Al25  1  0.09165643  0.76252125  0.83070490  1
  Al  Al26  1  0.21693529  0.87758982  0.65070731  1
  Al  Al27  1  0.78551853  0.76306622  0.38530844  1
  Al  Al28  1  0.87931334  0.87371104  0.11517799  1
  Al  Al29  1  0.45234195  0.76762000  0.88612359  1
  Al  Al30  1  0.55685747  0.87750000  0.58579025  1
  B  B31  1  0.77123056  0.08108369  0.81076931  1
  B  B32  1  0.88849987  0.20623908  0.09528059  1
  B  B33  1  0.76844922  0.77686319  0.85514828  1
  B  B34  1  0.88583472  0.86987321  0.61796278  1
  B  B35  1  0.56158640  0.86782624  0.10196272  1
  N  N36  1  0.21986065  0.20562307  0.32222150  1
  N  N37  1  0.08069060  0.10905956  0.07697531  1
  N  N38  1  0.87647567  0.18788413  0.82066648  1
  N  N39  1  0.78092865  0.06044728  0.64524031  1
  N  N40  1  0.55755252  0.20335793  0.37944970  1
  N  N41  1  0.46613867  0.06325556  0.12175240  1
  N  N42  1  0.21215914  0.20790614  0.83457923  1
  N  N43  1  0.11971025  0.08967322  0.58393971  1
  N  N44  1  0.88728333  0.19900505  0.39431072  1
  N  N45  1  0.79303539  0.11581757  0.12260537  1
  N  N46  1  0.58198967  0.19048181  0.87141418  1
  N  N47  1  0.44218073  0.10100794  0.63128908  1
  N  N48  1  0.22469646  0.54568244  0.38353826  1
  N  N49  1  0.10325416  0.42974286  0.07928628  1
  N  N50  1  0.87524307  0.57253864  0.83379421  1
  N  N51  1  0.77946986  0.43705338  0.59495595  1
  N  N52  1  0.55673499  0.53420922  0.37450318  1
  N  N53  1  0.44699941  0.41871522  0.12961756  1
  N  N54  1  0.22724541  0.53707270  0.87740368  1
  N  N55  1  0.10607417  0.42735604  0.57958122  1
  N  N56  1  0.89033599  0.53650478  0.32982852  1
  N  N57  1  0.79872798  0.39507786  0.07665049  1
  N  N58  1  0.55236957  0.53592317  0.88389628  1
  N  N59  1  0.44304742  0.42376357  0.63289107  1
  N  N60  1  0.22506679  0.87804120  0.32110431  1
  N  N61  1  0.11759031  0.75668452  0.11785486  1
  N  N62  1  0.85738987  0.88164672  0.86728884  1
  N  N63  1  0.80029626  0.77435393  0.57839571  1
  N  N64  1  0.55443177  0.87655111  0.39223385  1
  N  N65  1  0.45586272  0.78167642  0.08030800  1
  N  N66  1  0.22494613  0.86975635  0.83610581  1
  N  N67  1  0.07612922  0.77609309  0.63578129  1
  N  N68  1  0.88302475  0.87463619  0.31447919  1
  N  N69  1  0.74338335  0.77014211  0.10389762  1
  N  N70  1  0.58735108  0.85384122  0.82995526  1
  N  N71  1  0.43095708  0.76420223  0.58461022  1
