# generated using pymatgen
data_Al31B5N36
_symmetry_space_group_name_H-M   'P 1'
_cell_length_a   9.15598428
_cell_length_b   9.16687937
_cell_length_c   10.34143527
_cell_angle_alpha   90.29054466
_cell_angle_beta   89.62715985
_cell_angle_gamma   60.05342034
_symmetry_Int_Tables_number   1
_chemical_formula_structural   Al31B5N36
_chemical_formula_sum   'Al31 B5 N36'
_cell_volume   752.04238621
_cell_formula_units_Z   1
loop_
 _symmetry_equiv_pos_site_id
 _symmetry_equiv_pos_as_xyz
  1  'x, y, z'
loop_
 _atom_site_type_symbol
 _atom_site_label
 _atom_site_symmetry_multiplicity
 _atom_site_fract_x
 _atom_site_fract_y
 _atom_site_fract_z
 _atom_site_occupancy
  Al  Al0  1  0.11802261  0.08964641  0.39956578  1
  Al  Al1  1  0.21110183  0.20842135  0.13621384  1
  Al  Al2  1  0.88945460  0.19063651  0.61060449  1
  Al  Al3  1  0.45614518  0.08234679  0.31570722  1
  Al  Al4  1  0.57279167  0.19454570  0.05938351  1
  Al  Al5  1  0.09208469  0.09566270  0.88972411  1
  Al  Al6  1  0.21082203  0.21313225  0.64731666  1
  Al  Al7  1  0.77963732  0.10374197  0.31724863  1
  Al  Al8  1  0.45801416  0.08760841  0.81542385  1
  Al  Al9  1  0.55788059  0.19697000  0.56594931  1
  Al  Al10  1  0.11200847  0.42201696  0.39133151  1
  Al  Al11  1  0.23118952  0.53860406  0.06371662  1
  Al  Al12  1  0.77288694  0.42555984  0.81701971  1
  Al  Al13  1  0.89279959  0.55688187  0.64319547  1
  Al  Al14  1  0.44623201  0.42522672  0.31631849  1
  Al  Al15  1  0.57042747  0.52646985  0.06753005  1
  Al  Al16  1  0.09636604  0.43360212  0.89471772  1
  Al  Al17  1  0.21827724  0.55064547  0.57038360  1
  Al  Al18  1  0.78429907  0.42181895  0.36973450  1
  Al  Al19  1  0.88102074  0.54062591  0.14511432  1
  Al  Al20  1  0.44906415  0.42170613  0.81671194  1
  Al  Al21  1  0.55406375  0.53248382  0.57442154  1
  Al  Al22  1  0.11288159  0.75580067  0.30833166  1
  Al  Al23  1  0.22679705  0.88242895  0.13445425  1
  Al  Al24  1  0.43504059  0.76619950  0.39676198  1
  Al  Al25  1  0.09124855  0.76294456  0.83089800  1
  Al  Al26  1  0.21826834  0.87656941  0.65296785  1
  Al  Al27  1  0.78436646  0.76570187  0.38741483  1
  Al  Al28  1  0.87951704  0.87415717  0.11774584  1
  Al  Al29  1  0.45296048  0.76735645  0.88653547  1
  Al  Al30  1  0.55621098  0.87758811  0.58909798  1
  B  B31  1  0.77148947  0.08166206  0.81172753  1
  B  B32  1  0.88714494  0.20902863  0.10285362  1
  B  B33  1  0.76881653  0.77810376  0.85209714  1
  B  B34  1  0.88554810  0.87056161  0.61787234  1
  B  B35  1  0.56234159  0.86717211  0.10150271  1
  N  N36  1  0.21796606  0.20610791  0.32144214  1
  N  N37  1  0.08060678  0.10899631  0.07819383  1
  N  N38  1  0.87550169  0.18351352  0.82043534  1
  N  N39  1  0.77970877  0.06021142  0.64244084  1
  N  N40  1  0.55592959  0.20387885  0.37966040  1
  N  N41  1  0.46577596  0.06328215  0.12204123  1
  N  N42  1  0.20807789  0.20991171  0.83452462  1
  N  N43  1  0.12229987  0.08691025  0.58309714  1
  N  N44  1  0.88469986  0.20002718  0.40305659  1
  N  N45  1  0.79325756  0.11424778  0.12601455  1
  N  N46  1  0.58043897  0.19129689  0.87215923  1
  N  N47  1  0.44081700  0.10161408  0.63270135  1
  N  N48  1  0.22551403  0.54586756  0.38336843  1
  N  N49  1  0.10405940  0.43028762  0.07971966  1
  N  N50  1  0.87614565  0.57685481  0.83011545  1
  N  N51  1  0.77697742  0.43444392  0.62541921  1
  N  N52  1  0.55633679  0.53239324  0.38504329  1
  N  N53  1  0.44939862  0.42058479  0.12964392  1
  N  N54  1  0.22670344  0.53761085  0.87844379  1
  N  N55  1  0.10786696  0.42573946  0.57730789  1
  N  N56  1  0.89113751  0.54010123  0.33253659  1
  N  N57  1  0.79711636  0.39414470  0.11204663  1
  N  N58  1  0.55696782  0.53308937  0.88271570  1
  N  N59  1  0.44316393  0.42357642  0.63288032  1
  N  N60  1  0.22631076  0.87748679  0.32075856  1
  N  N61  1  0.11784823  0.75663020  0.11895606  1
  N  N62  1  0.85631776  0.88317196  0.86489937  1
  N  N63  1  0.79973926  0.77530267  0.57778549  1
  N  N64  1  0.55292960  0.87790446  0.39375168  1
  N  N65  1  0.45849848  0.77933341  0.07875628  1
  N  N66  1  0.22440810  0.87058434  0.83735665  1
  N  N67  1  0.07655966  0.77551778  0.63617338  1
  N  N68  1  0.88399163  0.87466653  0.31672975  1
  N  N69  1  0.74444719  0.77095140  0.10518217  1
  N  N70  1  0.58641039  0.85469075  0.82845326  1
  N  N71  1  0.43293604  0.76192686  0.58653134  1
