# generated using pymatgen
data_Al31B5N36
_symmetry_space_group_name_H-M   'P 1'
_cell_length_a   9.13479676
_cell_length_b   9.10994341
_cell_length_c   10.28925286
_cell_angle_alpha   90.13311847
_cell_angle_beta   89.49317692
_cell_angle_gamma   60.17490011
_symmetry_Int_Tables_number   1
_chemical_formula_structural   Al31B5N36
_chemical_formula_sum   'Al31 B5 N36'
_cell_volume   742.78259342
_cell_formula_units_Z   1
loop_
 _symmetry_equiv_pos_site_id
 _symmetry_equiv_pos_as_xyz
  1  'x, y, z'
loop_
 _atom_site_type_symbol
 _atom_site_label
 _atom_site_symmetry_multiplicity
 _atom_site_fract_x
 _atom_site_fract_y
 _atom_site_fract_z
 _atom_site_occupancy
  Al  Al0  1  0.11317069  0.09562114  0.40415322  1
  Al  Al1  1  0.20860312  0.20630557  0.14663736  1
  Al  Al2  1  0.88669767  0.19341344  0.64138921  1
  Al  Al3  1  0.45377543  0.08365718  0.32334836  1
  Al  Al4  1  0.56987828  0.18835257  0.07706470  1
  Al  Al5  1  0.09900692  0.09208676  0.89939393  1
  Al  Al6  1  0.21269357  0.21180888  0.65437355  1
  Al  Al7  1  0.78093590  0.10371410  0.32826122  1
  Al  Al8  1  0.46072625  0.08691035  0.82461541  1
  Al  Al9  1  0.56589439  0.18986938  0.56768704  1
  Al  Al10  1  0.11143136  0.42589436  0.40049227  1
  Al  Al11  1  0.22086509  0.53832248  0.15241395  1
  Al  Al12  1  0.77720641  0.42259852  0.89651062  1
  Al  Al13  1  0.88777304  0.55185837  0.65263047  1
  Al  Al14  1  0.44104094  0.43522956  0.39783847  1
  Al  Al15  1  0.56126469  0.53352120  0.14939586  1
  Al  Al16  1  0.10314246  0.43779408  0.90329586  1
  Al  Al17  1  0.21823298  0.54168024  0.64824017  1
  Al  Al18  1  0.77835607  0.42941188  0.40755719  1
  Al  Al19  1  0.87955882  0.53775343  0.15430854  1
  Al  Al20  1  0.44443866  0.42953629  0.89902271  1
  Al  Al21  1  0.55417473  0.53820175  0.65545647  1
  Al  Al22  1  0.10504357  0.76742226  0.39736460  1
  Al  Al23  1  0.21741960  0.87715527  0.14989487  1
  Al  Al24  1  0.44020038  0.75899893  0.40341651  1
  Al  Al25  1  0.09981706  0.76524274  0.90031043  1
  Al  Al26  1  0.21553866  0.87309867  0.65432010  1
  Al  Al27  1  0.78327567  0.76295898  0.39155019  1
  Al  Al28  1  0.88375576  0.86913455  0.14008315  1
  Al  Al29  1  0.45440469  0.76354690  0.89786593  1
  Al  Al30  1  0.55787992  0.87666597  0.59336917  1
  B  B31  1  0.77475602  0.07858494  0.85932239  1
  B  B32  1  0.88611645  0.20522428  0.11876221  1
  B  B33  1  0.76928189  0.77830590  0.86109615  1
  B  B34  1  0.88841622  0.87398817  0.60105463  1
  B  B35  1  0.55946415  0.86533289  0.11145068  1
  N  N36  1  0.21991787  0.20718327  0.33168822  1
  N  N37  1  0.07877797  0.10669528  0.08847923  1
  N  N38  1  0.87250671  0.18111504  0.83683840  1
  N  N39  1  0.79435865  0.05774153  0.60273581  1
  N  N40  1  0.55631373  0.20192549  0.38000093  1
  N  N41  1  0.46062739  0.06069955  0.13051423  1
  N  N42  1  0.21024118  0.21021985  0.84443953  1
  N  N43  1  0.11455439  0.09224550  0.59116360  1
  N  N44  1  0.89434844  0.21127028  0.35986114  1
  N  N45  1  0.78969099  0.11147102  0.13386038  1
  N  N46  1  0.58598605  0.18542979  0.88777039  1
  N  N47  1  0.44446441  0.10144893  0.64236035  1
  N  N48  1  0.22073648  0.54132938  0.33810441  1
  N  N49  1  0.10526792  0.43129122  0.08820878  1
  N  N50  1  0.87520307  0.57282320  0.84331883  1
  N  N51  1  0.77837596  0.43096491  0.59796033  1
  N  N52  1  0.55860663  0.53938501  0.33415168  1
  N  N53  1  0.44159631  0.42780363  0.08634560  1
  N  N54  1  0.22239630  0.53887315  0.83475147  1
  N  N55  1  0.10934327  0.42853670  0.58718231  1
  N  N56  1  0.88962527  0.53768913  0.33961056  1
  N  N57  1  0.79151105  0.39772738  0.08613231  1
  N  N58  1  0.55630963  0.53836535  0.84066445  1
  N  N59  1  0.44379007  0.43043506  0.58641330  1
  N  N60  1  0.22306687  0.87314184  0.33539440  1
  N  N61  1  0.11228998  0.75848579  0.08522556  1
  N  N62  1  0.85913817  0.88521525  0.86967448  1
  N  N63  1  0.80032145  0.77141344  0.58450011  1
  N  N64  1  0.55210768  0.87827186  0.40066253  1
  N  N65  1  0.45539489  0.77398989  0.08951446  1
  N  N66  1  0.22454517  0.86899601  0.84110279  1
  N  N67  1  0.08546233  0.77441778  0.58919770  1
  N  N68  1  0.89319305  0.86912829  0.32614292  1
  N  N69  1  0.74220238  0.77160220  0.11792076  1
  N  N70  1  0.58715865  0.85501472  0.84326395  1
  N  N71  1  0.43731032  0.75638510  0.59169436  1
