# generated using pymatgen
data_Al31B5N36
_symmetry_space_group_name_H-M   'P 1'
_cell_length_a   9.16433748
_cell_length_b   9.15220663
_cell_length_c   10.25427898
_cell_angle_alpha   90.11890953
_cell_angle_beta   89.46938021
_cell_angle_gamma   60.05745186
_symmetry_Int_Tables_number   1
_chemical_formula_structural   Al31B5N36
_chemical_formula_sum   'Al31 B5 N36'
_cell_volume   745.21602243
_cell_formula_units_Z   1
loop_
 _symmetry_equiv_pos_site_id
 _symmetry_equiv_pos_as_xyz
  1  'x, y, z'
loop_
 _atom_site_type_symbol
 _atom_site_label
 _atom_site_symmetry_multiplicity
 _atom_site_fract_x
 _atom_site_fract_y
 _atom_site_fract_z
 _atom_site_occupancy
  Al  Al0  1  0.11624966  0.09391759  0.39801007  1
  Al  Al1  1  0.21264327  0.20585421  0.13424265  1
  Al  Al2  1  0.88722375  0.20017927  0.61449322  1
  Al  Al3  1  0.45627816  0.08149201  0.31513046  1
  Al  Al4  1  0.57369113  0.19269456  0.05686401  1
  Al  Al5  1  0.09676828  0.09477788  0.88494376  1
  Al  Al6  1  0.21392611  0.21122900  0.64685166  1
  Al  Al7  1  0.78069506  0.10597902  0.31630921  1
  Al  Al8  1  0.46177333  0.08332136  0.81416910  1
  Al  Al9  1  0.56080422  0.19793793  0.56423048  1
  Al  Al10  1  0.11093989  0.42291283  0.39206234  1
  Al  Al11  1  0.22836245  0.53597931  0.07051915  1
  Al  Al12  1  0.77747891  0.42054205  0.88226202  1
  Al  Al13  1  0.88760471  0.55480602  0.64432636  1
  Al  Al14  1  0.44180125  0.42316104  0.31633662  1
  Al  Al15  1  0.56595493  0.53860617  0.13540530  1
  Al  Al16  1  0.09917872  0.43322729  0.88910649  1
  Al  Al17  1  0.22311426  0.54259325  0.58287075  1
  Al  Al18  1  0.77534791  0.43161923  0.40084890  1
  Al  Al19  1  0.88196823  0.53753997  0.14347869  1
  Al  Al20  1  0.44863130  0.41456130  0.81732502  1
  Al  Al21  1  0.55713472  0.54638590  0.64846121  1
  Al  Al22  1  0.10058911  0.77456726  0.38962828  1
  Al  Al23  1  0.21644650  0.87952415  0.13942516  1
  Al  Al24  1  0.43956682  0.75562051  0.39226632  1
  Al  Al25  1  0.09472955  0.77106173  0.88529678  1
  Al  Al26  1  0.21424489  0.87559967  0.64758485  1
  Al  Al27  1  0.78417573  0.76123325  0.38211984  1
  Al  Al28  1  0.88376454  0.86965833  0.13136663  1
  Al  Al29  1  0.45352388  0.76376033  0.88939633  1
  Al  Al30  1  0.55543706  0.87658959  0.58254770  1
  B  B31  1  0.77367457  0.07814047  0.80265608  1
  B  B32  1  0.88753133  0.20515072  0.09479322  1
  B  B33  1  0.77103710  0.77517837  0.84593425  1
  B  B34  1  0.88558966  0.87162665  0.61304357  1
  B  B35  1  0.56129971  0.86751546  0.10142416  1
  N  N36  1  0.22012306  0.20600028  0.32060132  1
  N  N37  1  0.07921924  0.10869390  0.07791811  1
  N  N38  1  0.87632524  0.18964517  0.81896567  1
  N  N39  1  0.78129051  0.06371786  0.64058081  1
  N  N40  1  0.55824689  0.20171523  0.37751754  1
  N  N41  1  0.46532341  0.06216146  0.11961545  1
  N  N42  1  0.21450798  0.20663464  0.83546084  1
  N  N43  1  0.12064516  0.09048693  0.58324970  1
  N  N44  1  0.88608363  0.20206511  0.39423815  1
  N  N45  1  0.79305727  0.11405214  0.12428658  1
  N  N46  1  0.58513104  0.18639089  0.87034060  1
  N  N47  1  0.44365907  0.09986742  0.62977718  1
  N  N48  1  0.22632488  0.54211220  0.38196366  1
  N  N49  1  0.10320594  0.42850838  0.07710953  1
  N  N50  1  0.87394529  0.57104006  0.83246965  1
  N  N51  1  0.77490793  0.44274573  0.58794941  1
  N  N52  1  0.56287156  0.53888019  0.32213522  1
  N  N53  1  0.44687941  0.41699660  0.12498341  1
  N  N54  1  0.22489947  0.53661615  0.86585522  1
  N  N55  1  0.10626301  0.42630288  0.58157458  1
  N  N56  1  0.89117795  0.53427564  0.32938888  1
  N  N57  1  0.79369073  0.39722525  0.07424370  1
  N  N58  1  0.55543741  0.54090032  0.83629859  1
  N  N59  1  0.44935807  0.41998573  0.63008475  1
  N  N60  1  0.22105668  0.87482643  0.32493845  1
  N  N61  1  0.10801878  0.76762704  0.07452340  1
  N  N62  1  0.86193963  0.87651373  0.84472167  1
  N  N63  1  0.79881899  0.77504477  0.57559017  1
  N  N64  1  0.55274657  0.87447337  0.38959596  1
  N  N65  1  0.45508510  0.77773200  0.08054518  1
  N  N66  1  0.22418367  0.87016347  0.83235559  1
  N  N67  1  0.07644762  0.78576923  0.58627571  1
  N  N68  1  0.89020160  0.87188771  0.31796334  1
  N  N69  1  0.74376089  0.77145120  0.10879372  1
  N  N70  1  0.58743685  0.85228821  0.83090760  1
  N  N71  1  0.43262832  0.75714205  0.57977058  1
