# generated using pymatgen
data_Al31B5N36
_symmetry_space_group_name_H-M   'P 1'
_cell_length_a   9.17617141
_cell_length_b   9.17556302
_cell_length_c   9.98016563
_cell_angle_alpha   89.89253516
_cell_angle_beta   89.78125436
_cell_angle_gamma   60.10664658
_symmetry_Int_Tables_number   1
_chemical_formula_structural   Al31B5N36
_chemical_formula_sum   'Al31 B5 N36'
_cell_volume   728.49263151
_cell_formula_units_Z   1
loop_
 _symmetry_equiv_pos_site_id
 _symmetry_equiv_pos_as_xyz
  1  'x, y, z'
loop_
 _atom_site_type_symbol
 _atom_site_label
 _atom_site_symmetry_multiplicity
 _atom_site_fract_x
 _atom_site_fract_y
 _atom_site_fract_z
 _atom_site_occupancy
  Al  Al0  1  0.11024407  0.09679371  0.40034096  1
  Al  Al1  1  0.21609791  0.20458698  0.14847908  1
  Al  Al2  1  0.88666778  0.19086610  0.65085744  1
  Al  Al3  1  0.44464521  0.08794670  0.37948455  1
  Al  Al4  1  0.56935463  0.19878167  0.09369511  1
  Al  Al5  1  0.09603631  0.09120582  0.90636878  1
  Al  Al6  1  0.22179738  0.20351147  0.65306625  1
  Al  Al7  1  0.78258902  0.09529920  0.33391561  1
  Al  Al8  1  0.44874829  0.08270301  0.90432740  1
  Al  Al9  1  0.56691141  0.19185530  0.57474953  1
  Al  Al10  1  0.10927054  0.42822079  0.40103649  1
  Al  Al11  1  0.22128727  0.54002927  0.15213173  1
  Al  Al12  1  0.77697040  0.41772675  0.90502206  1
  Al  Al13  1  0.88713725  0.54828002  0.65714548  1
  Al  Al14  1  0.44126896  0.43596869  0.39882112  1
  Al  Al15  1  0.56130831  0.53635135  0.15160885  1
  Al  Al16  1  0.10247626  0.43460831  0.90229509  1
  Al  Al17  1  0.21599319  0.54130969  0.64975993  1
  Al  Al18  1  0.78120548  0.42671493  0.40083057  1
  Al  Al19  1  0.88164261  0.54046966  0.14658757  1
  Al  Al20  1  0.44422431  0.42843383  0.89744085  1
  Al  Al21  1  0.55766203  0.53816859  0.65270588  1
  Al  Al22  1  0.10545444  0.76466687  0.39577931  1
  Al  Al23  1  0.21988826  0.87736243  0.15239292  1
  Al  Al24  1  0.44836735  0.76277286  0.39644124  1
  Al  Al25  1  0.09865676  0.76638691  0.89989144  1
  Al  Al26  1  0.21936134  0.87325071  0.64987045  1
  Al  Al27  1  0.77836522  0.76428714  0.38935203  1
  Al  Al28  1  0.88478805  0.87622732  0.12716884  1
  Al  Al29  1  0.45080920  0.76081171  0.90510054  1
  Al  Al30  1  0.56824692  0.87255381  0.65449424  1
  B  B31  1  0.77049827  0.08020059  0.87255560  1
  B  B32  1  0.89034610  0.20945067  0.15824258  1
  B  B33  1  0.75702140  0.78244556  0.91594456  1
  B  B34  1  0.88844283  0.87381488  0.59924161  1
  B  B35  1  0.55478179  0.86874229  0.14669382  1
  N  N36  1  0.22063241  0.20755148  0.33701891  1
  N  N37  1  0.08361234  0.10694118  0.09731718  1
  N  N38  1  0.86933568  0.18039519  0.84316007  1
  N  N39  1  0.79848600  0.05744791  0.59127001  1
  N  N40  1  0.55749271  0.20621665  0.37618556  1
  N  N41  1  0.45304062  0.06915227  0.09943836  1
  N  N42  1  0.21674792  0.20339469  0.84651015  1
  N  N43  1  0.10824834  0.09505487  0.59070903  1
  N  N44  1  0.89766962  0.21383710  0.32477585  1
  N  N45  1  0.78980913  0.11218383  0.13827636  1
  N  N46  1  0.58162085  0.18793669  0.88720626  1
  N  N47  1  0.44113443  0.08739231  0.58763796  1
  N  N48  1  0.22108713  0.54038874  0.34206900  1
  N  N49  1  0.10891113  0.43030193  0.09072791  1
  N  N50  1  0.87289063  0.56218890  0.85085736  1
  N  N51  1  0.78220239  0.42241075  0.59423109  1
  N  N52  1  0.55841755  0.53937946  0.34036486  1
  N  N53  1  0.44148736  0.43263039  0.08997400  1
  N  N54  1  0.21888842  0.54023408  0.83826413  1
  N  N55  1  0.10843559  0.42667573  0.59220042  1
  N  N56  1  0.88787324  0.54101987  0.33776971  1
  N  N57  1  0.79077373  0.40159861  0.09628835  1
  N  N58  1  0.55625074  0.53899249  0.84260687  1
  N  N59  1  0.44303778  0.43034986  0.59279162  1
  N  N60  1  0.22328591  0.87255236  0.34292347  1
  N  N61  1  0.11667757  0.75923801  0.08832138  1
  N  N62  1  0.85567350  0.89136712  0.88753246  1
  N  N63  1  0.79296580  0.77447187  0.58480793  1
  N  N64  1  0.56024774  0.86716304  0.31342705  1
  N  N65  1  0.45470552  0.77298927  0.09690754  1
  N  N66  1  0.22355460  0.86971741  0.84124860  1
  N  N67  1  0.08382124  0.77376451  0.59191247  1
  N  N68  1  0.89359505  0.86329712  0.32344181  1
  N  N69  1  0.74679191  0.77254569  0.07986229  1
  N  N70  1  0.57952310  0.86010851  0.84546047  1
  N  N71  1  0.45004789  0.76196150  0.59004160  1
