# generated using pymatgen
data_Al31B5N36
_symmetry_space_group_name_H-M   'P 1'
_cell_length_a   9.10720206
_cell_length_b   9.12456161
_cell_length_c   10.51094319
_cell_angle_alpha   90.81880960
_cell_angle_beta   90.15940644
_cell_angle_gamma   60.03456738
_symmetry_Int_Tables_number   1
_chemical_formula_structural   Al31B5N36
_chemical_formula_sum   'Al31 B5 N36'
_cell_volume   756.60747985
_cell_formula_units_Z   1
loop_
 _symmetry_equiv_pos_site_id
 _symmetry_equiv_pos_as_xyz
  1  'x, y, z'
loop_
 _atom_site_type_symbol
 _atom_site_label
 _atom_site_symmetry_multiplicity
 _atom_site_fract_x
 _atom_site_fract_y
 _atom_site_fract_z
 _atom_site_occupancy
  Al  Al0  1  0.12094458  0.08917029  0.39427718  1
  Al  Al1  1  0.20936098  0.21075790  0.13843399  1
  Al  Al2  1  0.88602182  0.19371764  0.57605460  1
  Al  Al3  1  0.45533569  0.08267696  0.31524601  1
  Al  Al4  1  0.56479964  0.19896320  0.06785632  1
  Al  Al5  1  0.09569433  0.09162426  0.89360955  1
  Al  Al6  1  0.20927144  0.21228640  0.64645130  1
  Al  Al7  1  0.77992487  0.09797439  0.32017277  1
  Al  Al8  1  0.45912125  0.08579795  0.81483517  1
  Al  Al9  1  0.55980192  0.19484655  0.56297474  1
  Al  Al10  1  0.10742626  0.42439100  0.39359483  1
  Al  Al11  1  0.23092807  0.54077034  0.06156254  1
  Al  Al12  1  0.77382462  0.41711890  0.81661975  1
  Al  Al13  1  0.89084116  0.55525178  0.64571889  1
  Al  Al14  1  0.44221194  0.42718039  0.31771346  1
  Al  Al15  1  0.57047878  0.52734468  0.07043799  1
  Al  Al16  1  0.09820054  0.43257848  0.89338924  1
  Al  Al17  1  0.21892521  0.55063595  0.57011777  1
  Al  Al18  1  0.78048896  0.41953521  0.32330313  1
  Al  Al19  1  0.88588615  0.54934580  0.14568546  1
  Al  Al20  1  0.45153000  0.42157340  0.81630863  1
  Al  Al21  1  0.56297851  0.52600053  0.56851707  1
  Al  Al22  1  0.10863978  0.75623030  0.30688685  1
  Al  Al23  1  0.22704860  0.88165300  0.13740989  1
  Al  Al24  1  0.43552741  0.76356435  0.39634325  1
  Al  Al25  1  0.09248124  0.76257263  0.82521715  1
  Al  Al26  1  0.21891085  0.87561321  0.65061921  1
  Al  Al27  1  0.78528673  0.76498401  0.39215856  1
  Al  Al28  1  0.88063910  0.87792403  0.08668843  1
  Al  Al29  1  0.45463296  0.76520616  0.88954063  1
  Al  Al30  1  0.55462670  0.87866291  0.58268709  1
  B  B31  1  0.77241741  0.08842344  0.85832754  1
  B  B32  1  0.88718015  0.20618494  0.10647140  1
  B  B33  1  0.76754560  0.77501540  0.85914873  1
  B  B34  1  0.88391221  0.87630431  0.60630074  1
  B  B35  1  0.56107561  0.86980336  0.10149820  1
  N  N36  1  0.21657328  0.20916004  0.31987970  1
  N  N37  1  0.08036775  0.10911168  0.08008777  1
  N  N38  1  0.86828146  0.17973381  0.85185980  1
  N  N39  1  0.78899436  0.05981670  0.60843899  1
  N  N40  1  0.55245205  0.20630802  0.37788542  1
  N  N41  1  0.46253552  0.06515925  0.12447474  1
  N  N42  1  0.20585855  0.20889731  0.83200923  1
  N  N43  1  0.12211090  0.08523181  0.57703691  1
  N  N44  1  0.88556513  0.20816184  0.39042860  1
  N  N45  1  0.79125945  0.11377252  0.12850055  1
  N  N46  1  0.57803040  0.19128662  0.88191757  1
  N  N47  1  0.44264044  0.10081910  0.63571738  1
  N  N48  1  0.22368307  0.54739540  0.38575094  1
  N  N49  1  0.10472129  0.42974449  0.07542847  1
  N  N50  1  0.87673422  0.57791752  0.83178062  1
  N  N51  1  0.78059652  0.42355324  0.63645485  1
  N  N52  1  0.56073162  0.52950356  0.38234875  1
  N  N53  1  0.44660638  0.42493110  0.13276566  1
  N  N54  1  0.22858966  0.53789792  0.87895926  1
  N  N55  1  0.10650233  0.42544842  0.57707502  1
  N  N56  1  0.89037322  0.54390329  0.32797954  1
  N  N57  1  0.79529333  0.39583622  0.13316359  1
  N  N58  1  0.56158865  0.52937457  0.88943484  1
  N  N59  1  0.44623741  0.42297858  0.63350555  1
  N  N60  1  0.22783123  0.87552720  0.31834073  1
  N  N61  1  0.11444727  0.75806927  0.11972419  1
  N  N62  1  0.85881162  0.88732634  0.88351722  1
  N  N63  1  0.79682848  0.77270549  0.58037906  1
  N  N64  1  0.55086076  0.87936855  0.39349766  1
  N  N65  1  0.45836210  0.77973851  0.07985543  1
  N  N66  1  0.22772322  0.86931746  0.83411376  1
  N  N67  1  0.07617789  0.77379641  0.63931891  1
  N  N68  1  0.88622241  0.87417131  0.33211122  1
  N  N69  1  0.74464714  0.77540710  0.10106006  1
  N  N70  1  0.58660581  0.85511429  0.83647438  1
  N  N71  1  0.43533600  0.75832378  0.58336817  1
