# generated using pymatgen
data_Al31B5N36
_symmetry_space_group_name_H-M   'P 1'
_cell_length_a   9.14263940
_cell_length_b   9.11999331
_cell_length_c   10.36026454
_cell_angle_alpha   90.16479383
_cell_angle_beta   89.60509197
_cell_angle_gamma   60.18192000
_symmetry_Int_Tables_number   1
_chemical_formula_structural   Al31B5N36
_chemical_formula_sum   'Al31 B5 N36'
_cell_volume   749.44371000
_cell_formula_units_Z   1
loop_
 _symmetry_equiv_pos_site_id
 _symmetry_equiv_pos_as_xyz
  1  'x, y, z'
loop_
 _atom_site_type_symbol
 _atom_site_label
 _atom_site_symmetry_multiplicity
 _atom_site_fract_x
 _atom_site_fract_y
 _atom_site_fract_z
 _atom_site_occupancy
  Al  Al0  1  0.11510856  0.09165985  0.39851969  1
  Al  Al1  1  0.21230646  0.20838607  0.13684681  1
  Al  Al2  1  0.88686563  0.19902292  0.61599172  1
  Al  Al3  1  0.45709476  0.07994170  0.31570774  1
  Al  Al4  1  0.57133594  0.19490539  0.05759862  1
  Al  Al5  1  0.09707800  0.09366404  0.88602312  1
  Al  Al6  1  0.21310011  0.21314395  0.64617541  1
  Al  Al7  1  0.78003479  0.10555466  0.31570548  1
  Al  Al8  1  0.46084363  0.08332107  0.81374084  1
  Al  Al9  1  0.55967557  0.19867173  0.56592321  1
  Al  Al10  1  0.10946505  0.42212855  0.39251521  1
  Al  Al11  1  0.23051391  0.53921656  0.06221731  1
  Al  Al12  1  0.77708938  0.42100458  0.88387401  1
  Al  Al13  1  0.88969103  0.55401714  0.64559834  1
  Al  Al14  1  0.44175379  0.42153718  0.31552993  1
  Al  Al15  1  0.56631418  0.53790310  0.13761440  1
  Al  Al16  1  0.09855061  0.43214615  0.89308848  1
  Al  Al17  1  0.22082773  0.55045730  0.56981663  1
  Al  Al18  1  0.77480049  0.43191425  0.40203069  1
  Al  Al19  1  0.88301840  0.53816563  0.14465352  1
  Al  Al20  1  0.44581262  0.41622745  0.81634095  1
  Al  Al21  1  0.55726158  0.54550977  0.64903579  1
  Al  Al22  1  0.11167902  0.75682856  0.30847353  1
  Al  Al23  1  0.22434122  0.88392757  0.13529005  1
  Al  Al24  1  0.43849915  0.75565867  0.39320296  1
  Al  Al25  1  0.09154227  0.76341077  0.82846076  1
  Al  Al26  1  0.21833952  0.87707478  0.64937179  1
  Al  Al27  1  0.78624645  0.76208773  0.38549911  1
  Al  Al28  1  0.87896278  0.87367279  0.11803927  1
  Al  Al29  1  0.45423252  0.76203783  0.89039193  1
  Al  Al30  1  0.55570947  0.87689599  0.58020848  1
  B  B31  1  0.77195352  0.08144506  0.81028425  1
  B  B32  1  0.88713801  0.20658507  0.09373191  1
  B  B33  1  0.76854688  0.77670279  0.85398659  1
  B  B34  1  0.88566826  0.87070952  0.61785559  1
  B  B35  1  0.56235655  0.86614421  0.10042662  1
  N  N36  1  0.21988328  0.20599579  0.32124322  1
  N  N37  1  0.07971744  0.11018189  0.07582037  1
  N  N38  1  0.87560686  0.18965364  0.82131024  1
  N  N39  1  0.78107116  0.06182267  0.64508879  1
  N  N40  1  0.55717582  0.20237632  0.37998557  1
  N  N41  1  0.46585021  0.06122476  0.12167633  1
  N  N42  1  0.21272715  0.20842227  0.83324905  1
  N  N43  1  0.11994479  0.08986116  0.58281581  1
  N  N44  1  0.88473086  0.20232619  0.39497873  1
  N  N45  1  0.79232504  0.11625675  0.12314104  1
  N  N46  1  0.58189884  0.18940525  0.87193361  1
  N  N47  1  0.44369910  0.09860499  0.63127732  1
  N  N48  1  0.22484342  0.54654350  0.38412305  1
  N  N49  1  0.10392482  0.42924892  0.07791892  1
  N  N50  1  0.87531968  0.57204081  0.83291150  1
  N  N51  1  0.77518702  0.44214642  0.58845267  1
  N  N52  1  0.56220834  0.53885112  0.32265503  1
  N  N53  1  0.44589130  0.41656619  0.12708359  1
  N  N54  1  0.22620257  0.53870063  0.87825133  1
  N  N55  1  0.10716299  0.42743425  0.57881964  1
  N  N56  1  0.89035956  0.53557431  0.32958797  1
  N  N57  1  0.79320856  0.39876599  0.07437633  1
  N  N58  1  0.55619748  0.54009980  0.83453862  1
  N  N59  1  0.44358139  0.42279465  0.63121422  1
  N  N60  1  0.22584479  0.87830287  0.32081948  1
  N  N61  1  0.11697472  0.75676224  0.11910473  1
  N  N62  1  0.85747140  0.88190952  0.86478225  1
  N  N63  1  0.79984439  0.77505466  0.57756408  1
  N  N64  1  0.55408211  0.87346350  0.39144331  1
  N  N65  1  0.45779132  0.77535083  0.07873228  1
  N  N66  1  0.22659350  0.86951038  0.83480407  1
  N  N67  1  0.07663433  0.77605595  0.63523596  1
  N  N68  1  0.88248800  0.87514932  0.31458599  1
  N  N69  1  0.74404468  0.76919490  0.10495014  1
  N  N70  1  0.58660136  0.85302042  0.83463290  1
  N  N71  1  0.43323730  0.75613218  0.57923494  1
