# generated using pymatgen
data_Al31B5N36
_symmetry_space_group_name_H-M   'P 1'
_cell_length_a   9.16720360
_cell_length_b   9.16533600
_cell_length_c   9.86030755
_cell_angle_alpha   90.01900515
_cell_angle_beta   90.20147068
_cell_angle_gamma   60.08637108
_symmetry_Int_Tables_number   1
_chemical_formula_structural   Al31B5N36
_chemical_formula_sum   'Al31 B5 N36'
_cell_volume   718.09253934
_cell_formula_units_Z   1
loop_
 _symmetry_equiv_pos_site_id
 _symmetry_equiv_pos_as_xyz
  1  'x, y, z'
loop_
 _atom_site_type_symbol
 _atom_site_label
 _atom_site_symmetry_multiplicity
 _atom_site_fract_x
 _atom_site_fract_y
 _atom_site_fract_z
 _atom_site_occupancy
  Al  Al0  1  0.10578442  0.09615841  0.39724730  1
  Al  Al1  1  0.21866247  0.20232595  0.15279376  1
  Al  Al2  1  0.88844255  0.19346922  0.65680600  1
  Al  Al3  1  0.44639606  0.09034970  0.39727077  1
  Al  Al4  1  0.56151830  0.20108209  0.14948738  1
  Al  Al5  1  0.10061342  0.09342088  0.90794626  1
  Al  Al6  1  0.22229829  0.20305757  0.65420043  1
  Al  Al7  1  0.78116788  0.08944071  0.39084788  1
  Al  Al8  1  0.45480970  0.08537105  0.90926153  1
  Al  Al9  1  0.56725149  0.19239726  0.65923930  1
  Al  Al10  1  0.10851140  0.42736677  0.40372515  1
  Al  Al11  1  0.22198831  0.53912058  0.15522945  1
  Al  Al12  1  0.77877198  0.42074802  0.90650043  1
  Al  Al13  1  0.88755353  0.54768733  0.65947982  1
  Al  Al14  1  0.44595299  0.42486860  0.40520311  1
  Al  Al15  1  0.56009173  0.53650215  0.15359031  1
  Al  Al16  1  0.10559653  0.43347855  0.90425701  1
  Al  Al17  1  0.21705473  0.54087323  0.65290913  1
  Al  Al18  1  0.78017546  0.42306234  0.39828905  1
  Al  Al19  1  0.88205843  0.54029195  0.14676665  1
  Al  Al20  1  0.44716916  0.42501872  0.90378416  1
  Al  Al21  1  0.55800093  0.53791868  0.65509381  1
  Al  Al22  1  0.10462174  0.76362907  0.39690271  1
  Al  Al23  1  0.21948549  0.87663369  0.15381366  1
  Al  Al24  1  0.44722976  0.76178465  0.39770543  1
  Al  Al25  1  0.09712456  0.76695794  0.90194074  1
  Al  Al26  1  0.21845791  0.87398001  0.65252067  1
  Al  Al27  1  0.77737902  0.76410229  0.39046064  1
  Al  Al28  1  0.88206853  0.87853388  0.12827368  1
  Al  Al29  1  0.45143223  0.76253408  0.90770907  1
  Al  Al30  1  0.56751579  0.87106282  0.65704482  1
  B  B31  1  0.77523555  0.09196494  0.91453608  1
  B  B32  1  0.88521364  0.20644165  0.14911329  1
  B  B33  1  0.75994807  0.78448559  0.91672933  1
  B  B34  1  0.88806691  0.87166741  0.61134267  1
  B  B35  1  0.55407259  0.87119587  0.15126014  1
  N  N36  1  0.22133348  0.20506502  0.34384136  1
  N  N37  1  0.08362119  0.10689865  0.10037607  1
  N  N38  1  0.87439629  0.18741710  0.84739508  1
  N  N39  1  0.79323769  0.06294894  0.58863648  1
  N  N40  1  0.55647660  0.20428311  0.34154296  1
  N  N41  1  0.45437608  0.06970623  0.10145366  1
  N  N42  1  0.22211699  0.20252189  0.84832396  1
  N  N43  1  0.10713626  0.09539803  0.59068351  1
  N  N44  1  0.88630417  0.20418133  0.32013838  1
  N  N45  1  0.78543147  0.11220663  0.08375399  1
  N  N46  1  0.57924705  0.19201113  0.85524302  1
  N  N47  1  0.44660044  0.09137926  0.59304669  1
  N  N48  1  0.22207497  0.53823738  0.34798641  1
  N  N49  1  0.11024417  0.42807995  0.09475634  1
  N  N50  1  0.87471792  0.56246304  0.85383575  1
  N  N51  1  0.78236339  0.42223973  0.59463784  1
  N  N52  1  0.55554125  0.53745601  0.34455386  1
  N  N53  1  0.44332747  0.42748653  0.09449931  1
  N  N54  1  0.22104250  0.54035379  0.84242104  1
  N  N55  1  0.10840532  0.42691222  0.59574192  1
  N  N56  1  0.88690292  0.53969876  0.34008828  1
  N  N57  1  0.78959430  0.40204039  0.09897791  1
  N  N58  1  0.55601048  0.53995884  0.84686512  1
  N  N59  1  0.44730582  0.42246800  0.59834208  1
  N  N60  1  0.22190956  0.87117905  0.34557761  1
  N  N61  1  0.11564013  0.75865349  0.09328622  1
  N  N62  1  0.85795715  0.88762101  0.88537329  1
  N  N63  1  0.79269510  0.77518092  0.58889944  1
  N  N64  1  0.55704590  0.87070502  0.32061883  1
  N  N65  1  0.45428799  0.77395624  0.10136191  1
  N  N66  1  0.22332065  0.87070954  0.84481893  1
  N  N67  1  0.08146359  0.77534597  0.59635460  1
  N  N68  1  0.88791323  0.87163821  0.32549043  1
  N  N69  1  0.74654232  0.77296200  0.08446223  1
  N  N70  1  0.57970385  0.86144779  0.84817532  1
  N  N71  1  0.44837702  0.76252554  0.59276783  1
