# generated using pymatgen
data_Al31B5N36
_symmetry_space_group_name_H-M   'P 1'
_cell_length_a   9.17083797
_cell_length_b   9.16327410
_cell_length_c   9.82416673
_cell_angle_alpha   89.85437972
_cell_angle_beta   89.63984999
_cell_angle_gamma   60.05182843
_symmetry_Int_Tables_number   1
_chemical_formula_structural   Al31B5N36
_chemical_formula_sum   'Al31 B5 N36'
_cell_volume   715.32589670
_cell_formula_units_Z   1
loop_
 _symmetry_equiv_pos_site_id
 _symmetry_equiv_pos_as_xyz
  1  'x, y, z'
loop_
 _atom_site_type_symbol
 _atom_site_label
 _atom_site_symmetry_multiplicity
 _atom_site_fract_x
 _atom_site_fract_y
 _atom_site_fract_z
 _atom_site_occupancy
  Al  Al0  1  0.10494795  0.09665215  0.31268585  1
  Al  Al1  1  0.21926300  0.20271136  0.06219299  1
  Al  Al2  1  0.88815478  0.19899377  0.57392793  1
  Al  Al3  1  0.44906156  0.08814578  0.30656246  1
  Al  Al4  1  0.56962632  0.19942777  0.05611796  1
  Al  Al5  1  0.10427854  0.09228450  0.81527977  1
  Al  Al6  1  0.22336749  0.20375463  0.56197377  1
  Al  Al7  1  0.78108130  0.09245780  0.31976383  1
  Al  Al8  1  0.45380172  0.08741111  0.81905697  1
  Al  Al9  1  0.56099014  0.19737755  0.56774423  1
  Al  Al10  1  0.10917911  0.42913508  0.31214488  1
  Al  Al11  1  0.22081180  0.54048309  0.06082406  1
  Al  Al12  1  0.77797133  0.42333334  0.81616576  1
  Al  Al13  1  0.88617871  0.54744506  0.56973506  1
  Al  Al14  1  0.44457856  0.42582052  0.31221957  1
  Al  Al15  1  0.56201411  0.53547852  0.06293190  1
  Al  Al16  1  0.10685651  0.43244941  0.81178109  1
  Al  Al17  1  0.21682863  0.54277697  0.56298530  1
  Al  Al18  1  0.78203007  0.42232555  0.31254082  1
  Al  Al19  1  0.88236991  0.54469906  0.05784138  1
  Al  Al20  1  0.45082023  0.42327846  0.81091939  1
  Al  Al21  1  0.55614196  0.54004134  0.56067684  1
  Al  Al22  1  0.10387819  0.76398836  0.31988085  1
  Al  Al23  1  0.21874846  0.87635927  0.06292558  1
  Al  Al24  1  0.44793182  0.76462120  0.30728193  1
  Al  Al25  1  0.09794765  0.76767960  0.80934943  1
  Al  Al26  1  0.21876066  0.87251015  0.56276166  1
  Al  Al27  1  0.77366223  0.76646821  0.31614288  1
  Al  Al28  1  0.88024615  0.88124568  0.05627999  1
  Al  Al29  1  0.45133664  0.76006348  0.81965033  1
  Al  Al30  1  0.56025037  0.87277491  0.56994050  1
  B  B31  1  0.77712628  0.08422890  0.80783177  1
  B  B32  1  0.88806430  0.20082497  0.07444046  1
  B  B33  1  0.77610057  0.77367834  0.81288224  1
  B  B34  1  0.88522794  0.87403016  0.57566380  1
  B  B35  1  0.56543885  0.86935027  0.05624569  1
  N  N36  1  0.22405979  0.20333901  0.36627644  1
  N  N37  1  0.08280346  0.10737755  0.11646428  1
  N  N38  1  0.87564879  0.18714899  0.86839373  1
  N  N39  1  0.78831772  0.06900346  0.63716325  1
  N  N40  1  0.55612848  0.20251659  0.37271437  1
  N  N41  1  0.46018628  0.06949428  0.10854115  1
  N  N42  1  0.21974858  0.20554439  0.87196773  1
  N  N43  1  0.11232606  0.09309344  0.62340168  1
  N  N44  1  0.88746632  0.20490573  0.38240184  1
  N  N45  1  0.79304220  0.10503736  0.12377213  1
  N  N46  1  0.58261138  0.19117327  0.86212204  1
  N  N47  1  0.44270936  0.09403655  0.62758620  1
  N  N48  1  0.22158361  0.53904185  0.37160516  1
  N  N49  1  0.10776715  0.42947376  0.11968262  1
  N  N50  1  0.87601562  0.56694689  0.86457391  1
  N  N51  1  0.77717465  0.42825937  0.62400076  1
  N  N52  1  0.55594745  0.54017891  0.36606389  1
  N  N53  1  0.44498992  0.42462538  0.11925325  1
  N  N54  1  0.22291692  0.54028885  0.86868947  1
  N  N55  1  0.11042903  0.42688273  0.62085151  1
  N  N56  1  0.88578274  0.54244202  0.37350590  1
  N  N57  1  0.79405322  0.39931677  0.11399059  1
  N  N58  1  0.55662487  0.53705314  0.87410981  1
  N  N59  1  0.44441428  0.42745483  0.61908433  1
  N  N60  1  0.22353456  0.87152616  0.36821402  1
  N  N61  1  0.10345488  0.76403794  0.12425862  1
  N  N62  1  0.86450636  0.88372480  0.86381717  1
  N  N63  1  0.78574777  0.77574308  0.64088591  1
  N  N64  1  0.55517839  0.87254344  0.37935239  1
  N  N65  1  0.45871649  0.77434468  0.11119935  1
  N  N66  1  0.22204229  0.86863830  0.87222099  1
  N  N67  1  0.08422089  0.77443581  0.61634433  1
  N  N68  1  0.88318190  0.87401205  0.40013378  1
  N  N69  1  0.75430607  0.77638793  0.11989305  1
  N  N70  1  0.58147262  0.86012147  0.88304386  1
  N  N71  1  0.44410070  0.76132218  0.62593756  1
