# generated using pymatgen
data_Al31B5N36
_symmetry_space_group_name_H-M   'P 1'
_cell_length_a   9.21743244
_cell_length_b   9.20241431
_cell_length_c   9.84639856
_cell_angle_alpha   89.76250278
_cell_angle_beta   89.38742513
_cell_angle_gamma   59.94609159
_symmetry_Int_Tables_number   1
_chemical_formula_structural   Al31B5N36
_chemical_formula_sum   'Al31 B5 N36'
_cell_volume   722.86695155
_cell_formula_units_Z   1
loop_
 _symmetry_equiv_pos_site_id
 _symmetry_equiv_pos_as_xyz
  1  'x, y, z'
loop_
 _atom_site_type_symbol
 _atom_site_label
 _atom_site_symmetry_multiplicity
 _atom_site_fract_x
 _atom_site_fract_y
 _atom_site_fract_z
 _atom_site_occupancy
  Al  Al0  1  0.11152191  0.08834776  0.38493469  1
  Al  Al1  1  0.22197934  0.20470854  0.06285960  1
  Al  Al2  1  0.88552618  0.19852038  0.59685614  1
  Al  Al3  1  0.44869862  0.08859517  0.30478221  1
  Al  Al4  1  0.57049261  0.20044948  0.05453543  1
  Al  Al5  1  0.09014810  0.09619386  0.87241031  1
  Al  Al6  1  0.22906300  0.20800379  0.56407953  1
  Al  Al7  1  0.78196647  0.09302276  0.32279819  1
  Al  Al8  1  0.45418312  0.08728030  0.81807678  1
  Al  Al9  1  0.56009427  0.19762109  0.56332693  1
  Al  Al10  1  0.10997894  0.42916937  0.31114459  1
  Al  Al11  1  0.22141402  0.53856144  0.05893044  1
  Al  Al12  1  0.77585158  0.42744633  0.80782810  1
  Al  Al13  1  0.88733788  0.54881826  0.56685648  1
  Al  Al14  1  0.44449899  0.42671785  0.31132396  1
  Al  Al15  1  0.56383635  0.53306755  0.06280334  1
  Al  Al16  1  0.10726150  0.43026980  0.81080226  1
  Al  Al17  1  0.21731616  0.54514604  0.56182339  1
  Al  Al18  1  0.78321623  0.42171013  0.31873720  1
  Al  Al19  1  0.88346422  0.54414123  0.05794295  1
  Al  Al20  1  0.45219040  0.42196241  0.80911815  1
  Al  Al21  1  0.55554458  0.54224661  0.55806720  1
  Al  Al22  1  0.10212671  0.76320907  0.31720389  1
  Al  Al23  1  0.21632685  0.87906251  0.10965523  1
  Al  Al24  1  0.45261860  0.76398987  0.30395754  1
  Al  Al25  1  0.09285452  0.76155245  0.81412423  1
  Al  Al26  1  0.21900414  0.87341754  0.63321664  1
  Al  Al27  1  0.77390810  0.76701998  0.31439056  1
  Al  Al28  1  0.87817126  0.88271019  0.05394998  1
  Al  Al29  1  0.45669826  0.75740801  0.82617011  1
  Al  Al30  1  0.56072782  0.87256253  0.56928863  1
  B  B31  1  0.77442878  0.08343319  0.79541374  1
  B  B32  1  0.88880964  0.20539092  0.10133844  1
  B  B33  1  0.77492315  0.77486922  0.81070918  1
  B  B34  1  0.88257676  0.87324946  0.57337082  1
  B  B35  1  0.56799383  0.86753013  0.05353740  1
  N  N36  1  0.22685776  0.20670965  0.36524077  1
  N  N37  1  0.07434193  0.11238791  0.07578531  1
  N  N38  1  0.87185548  0.18789424  0.81552471  1
  N  N39  1  0.78291340  0.06202160  0.62954986  1
  N  N40  1  0.55532905  0.20283229  0.36945799  1
  N  N41  1  0.46139790  0.06926008  0.10692275  1
  N  N42  1  0.22105420  0.20441075  0.86988826  1
  N  N43  1  0.11875560  0.08888930  0.58089878  1
  N  N44  1  0.88077763  0.20776257  0.38667400  1
  N  N45  1  0.79466599  0.10778878  0.12363843  1
  N  N46  1  0.58292592  0.19064991  0.86034289  1
  N  N47  1  0.44510515  0.09358314  0.62745848  1
  N  N48  1  0.22157150  0.54028946  0.37060331  1
  N  N49  1  0.10797299  0.42900103  0.11914532  1
  N  N50  1  0.87659029  0.56472674  0.86458046  1
  N  N51  1  0.77501451  0.43631855  0.61780869  1
  N  N52  1  0.55444530  0.54225942  0.36420591  1
  N  N53  1  0.44478691  0.42511416  0.11831155  1
  N  N54  1  0.22474670  0.53555282  0.86793371  1
  N  N55  1  0.11064304  0.42934498  0.62050690  1
  N  N56  1  0.88681701  0.54366446  0.37119555  1
  N  N57  1  0.79514541  0.39786756  0.11806064  1
  N  N58  1  0.55888641  0.53351307  0.87469425  1
  N  N59  1  0.44572286  0.42763121  0.61712350  1
  N  N60  1  0.22154162  0.87574818  0.31459258  1
  N  N61  1  0.09799636  0.76049823  0.11752551  1
  N  N62  1  0.86125429  0.88473728  0.86184882  1
  N  N63  1  0.78591640  0.77434626  0.63938583  1
  N  N64  1  0.55527594  0.87315346  0.37844676  1
  N  N65  1  0.46533025  0.77160069  0.10492788  1
  N  N66  1  0.22023696  0.86747871  0.84451168  1
  N  N67  1  0.08229211  0.77327640  0.61827948  1
  N  N68  1  0.88404955  0.87245917  0.39806907  1
  N  N69  1  0.75445222  0.77689443  0.11827706  1
  N  N70  1  0.58341880  0.86021463  0.88189271  1
  N  N71  1  0.45144431  0.75849295  0.62919240  1
