# generated using pymatgen
data_Al31B5N36
_symmetry_space_group_name_H-M   'P 1'
_cell_length_a   9.21375881
_cell_length_b   9.20759733
_cell_length_c   9.82273517
_cell_angle_alpha   89.72958243
_cell_angle_beta   89.38676277
_cell_angle_gamma   59.97651332
_symmetry_Int_Tables_number   1
_chemical_formula_structural   Al31B5N36
_chemical_formula_sum   'Al31 B5 N36'
_cell_volume   721.47020405
_cell_formula_units_Z   1
loop_
 _symmetry_equiv_pos_site_id
 _symmetry_equiv_pos_as_xyz
  1  'x, y, z'
loop_
 _atom_site_type_symbol
 _atom_site_label
 _atom_site_symmetry_multiplicity
 _atom_site_fract_x
 _atom_site_fract_y
 _atom_site_fract_z
 _atom_site_occupancy
  Al  Al0  1  0.10909308  0.09261961  0.38274586  1
  Al  Al1  1  0.22134646  0.20445209  0.06363283  1
  Al  Al2  1  0.88459841  0.19924966  0.59788094  1
  Al  Al3  1  0.44895838  0.08809373  0.30498082  1
  Al  Al4  1  0.57076337  0.20024424  0.05486937  1
  Al  Al5  1  0.09126268  0.09702390  0.86712193  1
  Al  Al6  1  0.22894594  0.20844902  0.56496149  1
  Al  Al7  1  0.78207532  0.09276194  0.32296019  1
  Al  Al8  1  0.45431796  0.08716143  0.81859457  1
  Al  Al9  1  0.56014279  0.19743523  0.56342107  1
  Al  Al10  1  0.10984556  0.42960704  0.31118002  1
  Al  Al11  1  0.22130173  0.53877509  0.05937508  1
  Al  Al12  1  0.77548442  0.42806865  0.80857725  1
  Al  Al13  1  0.88728920  0.54891307  0.56694400  1
  Al  Al14  1  0.44443150  0.42668433  0.31153899  1
  Al  Al15  1  0.56406894  0.53289779  0.06329342  1
  Al  Al16  1  0.10705453  0.43149533  0.81139545  1
  Al  Al17  1  0.21769361  0.54384390  0.56190163  1
  Al  Al18  1  0.78258342  0.42230129  0.31863444  1
  Al  Al19  1  0.88328759  0.54424088  0.05819931  1
  Al  Al20  1  0.45222036  0.42201855  0.80965187  1
  Al  Al21  1  0.55593479  0.54157271  0.55804268  1
  Al  Al22  1  0.10313023  0.76361539  0.31714136  1
  Al  Al23  1  0.21888251  0.87384842  0.07965271  1
  Al  Al24  1  0.44983909  0.76501864  0.30393079  1
  Al  Al25  1  0.09597778  0.76444828  0.81326365  1
  Al  Al26  1  0.22148172  0.86778458  0.59504332  1
  Al  Al27  1  0.77360564  0.76698066  0.31471804  1
  Al  Al28  1  0.87872622  0.88262831  0.05446323  1
  Al  Al29  1  0.45328267  0.75892556  0.82526760  1
  Al  Al30  1  0.56057668  0.87265568  0.56957461  1
  B  B31  1  0.77459455  0.08297952  0.79577393  1
  B  B32  1  0.89000758  0.20476811  0.10201970  1
  B  B33  1  0.77549359  0.77447794  0.81094535  1
  B  B34  1  0.88137033  0.87379160  0.57272632  1
  B  B35  1  0.56775754  0.86782338  0.05382267  1
  N  N36  1  0.22689309  0.20720063  0.36547004  1
  N  N37  1  0.07498831  0.11233480  0.07957227  1
  N  N38  1  0.87132911  0.18821804  0.81576193  1
  N  N39  1  0.78296999  0.06171982  0.62957996  1
  N  N40  1  0.55531510  0.20266474  0.36939999  1
  N  N41  1  0.46146943  0.06909329  0.10687210  1
  N  N42  1  0.22096531  0.20527731  0.86995894  1
  N  N43  1  0.11714778  0.09184840  0.58567324  1
  N  N44  1  0.87957845  0.20871519  0.38749408  1
  N  N45  1  0.79486194  0.10759678  0.12383675  1
  N  N46  1  0.58304746  0.19050780  0.86039073  1
  N  N47  1  0.44521359  0.09336494  0.62757742  1
  N  N48  1  0.22143127  0.53987315  0.37059579  1
  N  N49  1  0.10789478  0.42922080  0.11895003  1
  N  N50  1  0.87640847  0.56516799  0.86465314  1
  N  N51  1  0.77460855  0.43702863  0.61822021  1
  N  N52  1  0.55451094  0.54216987  0.36409174  1
  N  N53  1  0.44487405  0.42483871  0.11815700  1
  N  N54  1  0.22443113  0.53699881  0.86775856  1
  N  N55  1  0.11038416  0.42961544  0.62078536  1
  N  N56  1  0.88678257  0.54360329  0.37118769  1
  N  N57  1  0.79518579  0.39789765  0.11801728  1
  N  N58  1  0.55839742  0.53442947  0.87458955  1
  N  N59  1  0.44595152  0.42722838  0.61717507  1
  N  N60  1  0.22380732  0.87055438  0.34103413  1
  N  N61  1  0.09932674  0.76112771  0.12026611  1
  N  N62  1  0.86256067  0.88433812  0.86180068  1
  N  N63  1  0.78594926  0.77431678  0.63942751  1
  N  N64  1  0.55507751  0.87274808  0.37861957  1
  N  N65  1  0.46408235  0.77180072  0.10699092  1
  N  N66  1  0.22192212  0.86528031  0.86945342  1
  N  N67  1  0.08354896  0.77302115  0.61868505  1
  N  N68  1  0.88389287  0.87224005  0.39854738  1
  N  N69  1  0.75449387  0.77693740  0.11835406  1
  N  N70  1  0.58297818  0.85990543  0.88183949  1
  N  N71  1  0.44857836  0.75923969  0.62983238  1
