# generated using pymatgen
data_Al31B5N36
_symmetry_space_group_name_H-M   'P 1'
_cell_length_a   9.20845068
_cell_length_b   9.21111015
_cell_length_c   9.80167652
_cell_angle_alpha   89.44536783
_cell_angle_beta   89.28057396
_cell_angle_gamma   59.73941253
_symmetry_Int_Tables_number   1
_chemical_formula_structural   Al31B5N36
_chemical_formula_sum   'Al31 B5 N36'
_cell_volume   718.03504020
_cell_formula_units_Z   1
loop_
 _symmetry_equiv_pos_site_id
 _symmetry_equiv_pos_as_xyz
  1  'x, y, z'
loop_
 _atom_site_type_symbol
 _atom_site_label
 _atom_site_symmetry_multiplicity
 _atom_site_fract_x
 _atom_site_fract_y
 _atom_site_fract_z
 _atom_site_occupancy
  Al  Al0  1  0.10427698  0.09766955  0.29772619  1
  Al  Al1  1  0.22217338  0.20322701  0.04916801  1
  Al  Al2  1  0.88569923  0.19851573  0.56153108  1
  Al  Al3  1  0.44883144  0.08781844  0.29251845  1
  Al  Al4  1  0.57348317  0.19700757  0.04213766  1
  Al  Al5  1  0.10648386  0.09911418  0.80789379  1
  Al  Al6  1  0.22099065  0.20311558  0.54951359  1
  Al  Al7  1  0.78220508  0.09304788  0.30076681  1
  Al  Al8  1  0.45317203  0.08483435  0.80428683  1
  Al  Al9  1  0.55662703  0.19805346  0.54992885  1
  Al  Al10  1  0.10922179  0.42889516  0.29846945  1
  Al  Al11  1  0.22188723  0.54121596  0.04664886  1
  Al  Al12  1  0.78059455  0.43020499  0.80787164  1
  Al  Al13  1  0.88649103  0.54397124  0.55611160  1
  Al  Al14  1  0.44528283  0.42573607  0.29715430  1
  Al  Al15  1  0.56329451  0.53652606  0.05001723  1
  Al  Al16  1  0.10851270  0.43361496  0.79891350  1
  Al  Al17  1  0.21670438  0.54184023  0.54854861  1
  Al  Al18  1  0.78169763  0.42262532  0.29819549  1
  Al  Al19  1  0.88225331  0.54704634  0.04569145  1
  Al  Al20  1  0.45349419  0.42218027  0.79615027  1
  Al  Al21  1  0.55635162  0.53911319  0.54808201  1
  Al  Al22  1  0.10433530  0.76434793  0.30554073  1
  Al  Al23  1  0.21842477  0.87911294  0.05011905  1
  Al  Al24  1  0.44736304  0.76479357  0.29425510  1
  Al  Al25  1  0.09846785  0.76907127  0.79456033  1
  Al  Al26  1  0.21682411  0.87400329  0.55023707  1
  Al  Al27  1  0.77380767  0.76598034  0.30244502  1
  Al  Al28  1  0.87916096  0.88391877  0.04205195  1
  Al  Al29  1  0.44906777  0.76040259  0.80646853  1
  Al  Al30  1  0.55965533  0.87103984  0.55533258  1
  B  B31  1  0.75634025  0.05721126  0.77907560  1
  B  B32  1  0.89428732  0.21023439  0.04309865  1
  B  B33  1  0.77667543  0.76628131  0.79835390  1
  B  B34  1  0.88691839  0.86819401  0.55740778  1
  B  B35  1  0.56572733  0.86944352  0.04323749  1
  N  N36  1  0.22338592  0.20299542  0.35375697  1
  N  N37  1  0.08904057  0.10787999  0.10449670  1
  N  N38  1  0.89609839  0.21741330  0.88563056  1
  N  N39  1  0.78432334  0.06391066  0.62426246  1
  N  N40  1  0.55659447  0.20155023  0.35645746  1
  N  N41  1  0.46245340  0.06937649  0.09442712  1
  N  N42  1  0.22766785  0.20716020  0.85848681  1
  N  N43  1  0.10811335  0.09439136  0.61441767  1
  N  N44  1  0.88594880  0.20419973  0.36984343  1
  N  N45  1  0.79514101  0.10559076  0.10568436  1
  N  N46  1  0.58754545  0.18423846  0.84414933  1
  N  N47  1  0.44218481  0.09238757  0.61231078  1
  N  N48  1  0.22157024  0.53859317  0.35661095  1
  N  N49  1  0.10885954  0.43068113  0.10526274  1
  N  N50  1  0.87614381  0.57330471  0.85067469  1
  N  N51  1  0.77733768  0.42562017  0.61433913  1
  N  N52  1  0.55512603  0.53984323  0.35325410  1
  N  N53  1  0.44688327  0.42349540  0.10307248  1
  N  N54  1  0.22427062  0.54142918  0.85362961  1
  N  N55  1  0.11068442  0.42621010  0.60744192  1
  N  N56  1  0.88547415  0.54156082  0.36054005  1
  N  N57  1  0.79250275  0.40754173  0.10375969  1
  N  N58  1  0.55602745  0.53720200  0.86020129  1
  N  N59  1  0.44479067  0.42577060  0.60437839  1
  N  N60  1  0.22219722  0.87227548  0.35539116  1
  N  N61  1  0.10353940  0.76501314  0.10890071  1
  N  N62  1  0.86085682  0.88232747  0.84657744  1
  N  N63  1  0.78565295  0.77210210  0.62482524  1
  N  N64  1  0.55477929  0.87183348  0.36492235  1
  N  N65  1  0.45867491  0.77525785  0.09771451  1
  N  N66  1  0.21926548  0.87155086  0.85834629  1
  N  N67  1  0.08357331  0.77359775  0.60134157  1
  N  N68  1  0.88278902  0.87373561  0.38572269  1
  N  N69  1  0.75483937  0.77807452  0.10598532  1
  N  N70  1  0.58104570  0.85824361  0.86833697  1
  N  N71  1  0.44287451  0.76096727  0.61215153  1
