# generated using pymatgen
data_Al31B5N36
_symmetry_space_group_name_H-M   'P 1'
_cell_length_a   9.17455799
_cell_length_b   9.23617679
_cell_length_c   10.27654112
_cell_angle_alpha   90.49893874
_cell_angle_beta   89.78450886
_cell_angle_gamma   59.81550663
_symmetry_Int_Tables_number   1
_chemical_formula_structural   Al31B5N36
_chemical_formula_sum   'Al31 B5 N36'
_cell_volume   752.67738708
_cell_formula_units_Z   1
loop_
 _symmetry_equiv_pos_site_id
 _symmetry_equiv_pos_as_xyz
  1  'x, y, z'
loop_
 _atom_site_type_symbol
 _atom_site_label
 _atom_site_symmetry_multiplicity
 _atom_site_fract_x
 _atom_site_fract_y
 _atom_site_fract_z
 _atom_site_occupancy
  Al  Al0  1  0.11608878  0.09267842  0.39795561  1
  Al  Al1  1  0.21277342  0.20742376  0.13368364  1
  Al  Al2  1  0.88574887  0.20224387  0.59112677  1
  Al  Al3  1  0.45429419  0.08636147  0.31676161  1
  Al  Al4  1  0.57534367  0.19454944  0.05911618  1
  Al  Al5  1  0.09272421  0.09736094  0.88994580  1
  Al  Al6  1  0.21530337  0.20949031  0.64955741  1
  Al  Al7  1  0.78173693  0.09633563  0.31896822  1
  Al  Al8  1  0.47206787  0.07706636  0.81717267  1
  Al  Al9  1  0.55663684  0.19945466  0.56831446  1
  Al  Al10  1  0.11444420  0.42408047  0.38184805  1
  Al  Al11  1  0.23118086  0.53669534  0.06372758  1
  Al  Al12  1  0.76919610  0.43751219  0.81439734  1
  Al  Al13  1  0.88252361  0.55414554  0.57037014  1
  Al  Al14  1  0.44449874  0.42527682  0.31812415  1
  Al  Al15  1  0.56471227  0.52692109  0.07374327  1
  Al  Al16  1  0.10742506  0.42721421  0.88106562  1
  Al  Al17  1  0.21443719  0.55304384  0.57505393  1
  Al  Al18  1  0.78237395  0.41943726  0.32440775  1
  Al  Al19  1  0.87667110  0.53956506  0.07303671  1
  Al  Al20  1  0.45010768  0.42688707  0.81508045  1
  Al  Al21  1  0.55784974  0.53269296  0.56584582  1
  Al  Al22  1  0.10812950  0.75804771  0.31097376  1
  Al  Al23  1  0.22348898  0.88290483  0.13775862  1
  Al  Al24  1  0.43307521  0.76692165  0.39262062  1
  Al  Al25  1  0.09192938  0.75994374  0.83415319  1
  Al  Al26  1  0.21799921  0.87719205  0.65236168  1
  Al  Al27  1  0.77066376  0.76229017  0.32265272  1
  Al  Al28  1  0.88656542  0.86994139  0.08785828  1
  Al  Al29  1  0.44972674  0.76869639  0.89283361  1
  Al  Al30  1  0.56286426  0.87692415  0.57549032  1
  B  B31  1  0.75747809  0.13425653  0.79943460  1
  B  B32  1  0.88831351  0.20429124  0.10563726  1
  B  B33  1  0.77568818  0.75845367  0.87145905  1
  B  B34  1  0.88189609  0.87080592  0.62670883  1
  B  B35  1  0.55822823  0.86797204  0.10426388  1
  N  N36  1  0.21738112  0.20631763  0.32032426  1
  N  N37  1  0.07902788  0.11031570  0.07993452  1
  N  N38  1  0.86915709  0.20060445  0.83416154  1
  N  N39  1  0.78134669  0.07223754  0.65098098  1
  N  N40  1  0.55549404  0.20448398  0.38117582  1
  N  N41  1  0.46823975  0.06218480  0.12105222  1
  N  N42  1  0.21985351  0.19980476  0.83846628  1
  N  N43  1  0.12050535  0.08954921  0.58313308  1
  N  N44  1  0.88033842  0.20727900  0.39641289  1
  N  N45  1  0.79601833  0.11083417  0.12573154  1
  N  N46  1  0.58535041  0.19552453  0.86900938  1
  N  N47  1  0.44747474  0.09533725  0.63403579  1
  N  N48  1  0.22445370  0.54688783  0.38506520  1
  N  N49  1  0.10987267  0.42736497  0.08345820  1
  N  N50  1  0.86787936  0.56018504  0.88256944  1
  N  N51  1  0.77459014  0.43825457  0.63083609  1
  N  N52  1  0.55694328  0.53389254  0.37571274  1
  N  N53  1  0.44963599  0.41667785  0.13051266  1
  N  N54  1  0.23159671  0.53374782  0.87676264  1
  N  N55  1  0.11248676  0.42541545  0.59116292  1
  N  N56  1  0.88205584  0.54091040  0.37843574  1
  N  N57  1  0.79530496  0.39494612  0.13171473  1
  N  N58  1  0.55505786  0.53533662  0.88863792  1
  N  N59  1  0.44534188  0.42719353  0.63043485  1
  N  N60  1  0.22089651  0.88063224  0.32327748  1
  N  N61  1  0.12180688  0.75345142  0.12172494  1
  N  N62  1  0.87774288  0.83821985  0.90329650  1
  N  N63  1  0.79392252  0.78099182  0.60634212  1
  N  N64  1  0.55216507  0.87803637  0.38697242  1
  N  N65  1  0.45674467  0.77901877  0.08683350  1
  N  N66  1  0.22202094  0.87220236  0.83986173  1
  N  N67  1  0.07501612  0.77892000  0.64210242  1
  N  N68  1  0.88429426  0.87356604  0.33125484  1
  N  N69  1  0.74321210  0.76600068  0.13270640  1
  N  N70  1  0.59133393  0.85178404  0.85648989  1
  N  N71  1  0.43534215  0.76330240  0.58364659  1
