# generated using pymatgen
data_Al31B5N36
_symmetry_space_group_name_H-M   'P 1'
_cell_length_a   9.16775551
_cell_length_b   9.19464583
_cell_length_c   9.99003866
_cell_angle_alpha   89.58445389
_cell_angle_beta   89.73078577
_cell_angle_gamma   60.19379881
_symmetry_Int_Tables_number   1
_chemical_formula_structural   Al31B5N36
_chemical_formula_sum   'Al31 B5 N36'
_cell_volume   730.68276430
_cell_formula_units_Z   1
loop_
 _symmetry_equiv_pos_site_id
 _symmetry_equiv_pos_as_xyz
  1  'x, y, z'
loop_
 _atom_site_type_symbol
 _atom_site_label
 _atom_site_symmetry_multiplicity
 _atom_site_fract_x
 _atom_site_fract_y
 _atom_site_fract_z
 _atom_site_occupancy
  Al  Al0  1  0.10919217  0.09652636  0.40007454  1
  Al  Al1  1  0.21726198  0.20410226  0.15038656  1
  Al  Al2  1  0.88714504  0.19005867  0.65064241  1
  Al  Al3  1  0.44354574  0.08754097  0.38831746  1
  Al  Al4  1  0.56772166  0.20025526  0.09473363  1
  Al  Al5  1  0.09747808  0.09102799  0.90573579  1
  Al  Al6  1  0.22294646  0.20199249  0.65158369  1
  Al  Al7  1  0.78078988  0.09660775  0.33298686  1
  Al  Al8  1  0.44750031  0.08535898  0.90444301  1
  Al  Al9  1  0.56834336  0.19227265  0.57644393  1
  Al  Al10  1  0.10871022  0.42828817  0.39938143  1
  Al  Al11  1  0.22102468  0.53991712  0.15154567  1
  Al  Al12  1  0.77899878  0.41394405  0.90357245  1
  Al  Al13  1  0.89010371  0.54078872  0.65638503  1
  Al  Al14  1  0.44064513  0.43588674  0.39910700  1
  Al  Al15  1  0.56094956  0.53705910  0.15118950  1
  Al  Al16  1  0.10497008  0.42833542  0.90044450  1
  Al  Al17  1  0.21551419  0.54042533  0.64967633  1
  Al  Al18  1  0.78044754  0.42685567  0.39869999  1
  Al  Al19  1  0.88195221  0.54068888  0.14278175  1
  Al  Al20  1  0.44311489  0.43033687  0.89733626  1
  Al  Al21  1  0.55849876  0.53738621  0.65248192  1
  Al  Al22  1  0.10535684  0.76424587  0.39580892  1
  Al  Al23  1  0.21956295  0.87810199  0.15223633  1
  Al  Al24  1  0.44792305  0.76267238  0.39628585  1
  Al  Al25  1  0.09802963  0.76570058  0.90049718  1
  Al  Al26  1  0.21976504  0.87221273  0.65024648  1
  Al  Al27  1  0.77793158  0.76390350  0.38888035  1
  Al  Al28  1  0.88583897  0.87826724  0.12967091  1
  Al  Al29  1  0.45227130  0.76073351  0.90555471  1
  Al  Al30  1  0.57129338  0.87059818  0.65467712  1
  B  B31  1  0.76928409  0.08485313  0.87231932  1
  B  B32  1  0.88980874  0.21087702  0.15785946  1
  B  B33  1  0.74452336  0.81106325  0.92485891  1
  B  B34  1  0.88919538  0.87167612  0.59934607  1
  B  B35  1  0.55127245  0.87299862  0.14866419  1
  N  N36  1  0.22110865  0.20689184  0.33848999  1
  N  N37  1  0.08389267  0.10776800  0.09697374  1
  N  N38  1  0.86940682  0.17917439  0.84319759  1
  N  N39  1  0.79921820  0.05497542  0.59445270  1
  N  N40  1  0.55678726  0.20653581  0.37768212  1
  N  N41  1  0.45234155  0.06991611  0.09855780  1
  N  N42  1  0.22227948  0.19838054  0.84423677  1
  N  N43  1  0.10876336  0.09369730  0.59043288  1
  N  N44  1  0.89693508  0.21424064  0.32380072  1
  N  N45  1  0.78895780  0.11341950  0.13785889  1
  N  N46  1  0.58037440  0.19056568  0.88669429  1
  N  N47  1  0.44322015  0.08520029  0.58655405  1
  N  N48  1  0.22044318  0.54107151  0.34122521  1
  N  N49  1  0.11034695  0.42878153  0.08987514  1
  N  N50  1  0.88457789  0.53394317  0.84391086  1
  N  N51  1  0.78144595  0.41983970  0.59064523  1
  N  N52  1  0.55688961  0.54039334  0.33969889  1
  N  N53  1  0.44110691  0.43341914  0.08976131  1
  N  N54  1  0.21727300  0.54060429  0.83830808  1
  N  N55  1  0.11081593  0.42439903  0.58944912  1
  N  N56  1  0.88686531  0.54215952  0.33477137  1
  N  N57  1  0.78978177  0.40227419  0.09586377  1
  N  N58  1  0.55622423  0.54000852  0.84253266  1
  N  N59  1  0.44290462  0.43010648  0.59337142  1
  N  N60  1  0.22250182  0.87295651  0.34276832  1
  N  N61  1  0.11630300  0.75966389  0.08855667  1
  N  N62  1  0.85194294  0.89645498  0.89042316  1
  N  N63  1  0.79492518  0.77102049  0.58480324  1
  N  N64  1  0.55807837  0.87013745  0.31459962  1
  N  N65  1  0.45454474  0.77450215  0.09733393  1
  N  N66  1  0.22353223  0.86914060  0.84172449  1
  N  N67  1  0.08451196  0.77263791  0.59187009  1
  N  N68  1  0.89262464  0.86483310  0.32431200  1
  N  N69  1  0.74533597  0.77829460  0.08008443  1
  N  N70  1  0.58143451  0.86294026  0.84705570  1
  N  N71  1  0.45093473  0.76174928  0.59064581  1
