# generated using pymatgen
data_Al31B5N36
_symmetry_space_group_name_H-M   'P 1'
_cell_length_a   9.18026720
_cell_length_b   9.17707606
_cell_length_c   9.98441849
_cell_angle_alpha   89.95372724
_cell_angle_beta   89.80632748
_cell_angle_gamma   60.13537377
_symmetry_Int_Tables_number   1
_chemical_formula_structural   Al31B5N36
_chemical_formula_sum   'Al31 B5 N36'
_cell_volume   729.45947810
_cell_formula_units_Z   1
loop_
 _symmetry_equiv_pos_site_id
 _symmetry_equiv_pos_as_xyz
  1  'x, y, z'
loop_
 _atom_site_type_symbol
 _atom_site_label
 _atom_site_symmetry_multiplicity
 _atom_site_fract_x
 _atom_site_fract_y
 _atom_site_fract_z
 _atom_site_occupancy
  Al  Al0  1  0.11171603  0.09666444  0.40098459  1
  Al  Al1  1  0.21060448  0.20745034  0.14517894  1
  Al  Al2  1  0.88603956  0.19086951  0.65016268  1
  Al  Al3  1  0.44848085  0.09032764  0.34292981  1
  Al  Al4  1  0.57136760  0.19931854  0.08992854  1
  Al  Al5  1  0.09473423  0.09101516  0.90661494  1
  Al  Al6  1  0.22059079  0.20459911  0.65574406  1
  Al  Al7  1  0.78387180  0.09477915  0.33600390  1
  Al  Al8  1  0.44821411  0.08441690  0.89749159  1
  Al  Al9  1  0.56403146  0.18942219  0.57371720  1
  Al  Al10  1  0.11011629  0.42751173  0.40165391  1
  Al  Al11  1  0.22127564  0.54033493  0.15240466  1
  Al  Al12  1  0.77681651  0.41786473  0.90491978  1
  Al  Al13  1  0.88684298  0.54875903  0.65716432  1
  Al  Al14  1  0.44138547  0.43597597  0.39954526  1
  Al  Al15  1  0.56135761  0.53587827  0.15200750  1
  Al  Al16  1  0.10098493  0.43621764  0.90271353  1
  Al  Al17  1  0.21649727  0.54083772  0.64949755  1
  Al  Al18  1  0.78141705  0.42667323  0.40125430  1
  Al  Al19  1  0.88117586  0.54071341  0.14756709  1
  Al  Al20  1  0.44372653  0.42914150  0.89714259  1
  Al  Al21  1  0.55756762  0.53797451  0.65237820  1
  Al  Al22  1  0.10585277  0.76448286  0.39613083  1
  Al  Al23  1  0.21998376  0.87709012  0.15277355  1
  Al  Al24  1  0.44851971  0.76298573  0.39755647  1
  Al  Al25  1  0.09866044  0.76641081  0.89980673  1
  Al  Al26  1  0.21967986  0.87367733  0.64990347  1
  Al  Al27  1  0.77927840  0.76366612  0.39062424  1
  Al  Al28  1  0.88498526  0.87621295  0.12767420  1
  Al  Al29  1  0.45067302  0.76041272  0.90528797  1
  Al  Al30  1  0.56843688  0.87267900  0.65666351  1
  B  B31  1  0.77112153  0.07974772  0.87252229  1
  B  B32  1  0.89006117  0.20901582  0.15900441  1
  B  B33  1  0.75719591  0.78073936  0.91655243  1
  B  B34  1  0.88821862  0.87439089  0.59882575  1
  B  B35  1  0.55780883  0.86349421  0.14598538  1
  N  N36  1  0.22013433  0.20797189  0.33494389  1
  N  N37  1  0.08244779  0.10610330  0.09731676  1
  N  N38  1  0.86889762  0.18017996  0.84279150  1
  N  N39  1  0.79799909  0.05799871  0.58898332  1
  N  N40  1  0.55747715  0.20535119  0.37675080  1
  N  N41  1  0.45326298  0.07113046  0.10582212  1
  N  N42  1  0.21253692  0.20541220  0.85040084  1
  N  N43  1  0.10812093  0.09555355  0.59105047  1
  N  N44  1  0.89849638  0.21364066  0.32529846  1
  N  N45  1  0.78968494  0.11211166  0.13964394  1
  N  N46  1  0.58242057  0.18808611  0.88931619  1
  N  N47  1  0.44157034  0.09098897  0.61036770  1
  N  N48  1  0.22148506  0.54004113  0.34217373  1
  N  N49  1  0.10734308  0.43246190  0.09080711  1
  N  N50  1  0.87206156  0.56332785  0.85112272  1
  N  N51  1  0.78216823  0.42261727  0.59447323  1
  N  N52  1  0.55857993  0.53916147  0.34058651  1
  N  N53  1  0.44119111  0.43289888  0.08983997  1
  N  N54  1  0.21876066  0.54015979  0.83818262  1
  N  N55  1  0.10783174  0.42698367  0.59249398  1
  N  N56  1  0.88856791  0.54050453  0.33842200  1
  N  N57  1  0.79077652  0.40143375  0.09644957  1
  N  N58  1  0.55624578  0.53878016  0.84243773  1
  N  N59  1  0.44331840  0.43016201  0.59216771  1
  N  N60  1  0.22380196  0.87245506  0.34311979  1
  N  N61  1  0.11672036  0.75925196  0.08837380  1
  N  N62  1  0.85585097  0.89131411  0.88784645  1
  N  N63  1  0.79278762  0.77479241  0.58519542  1
  N  N64  1  0.56355522  0.86190724  0.31199768  1
  N  N65  1  0.45490074  0.77246007  0.09679022  1
  N  N66  1  0.22359672  0.86974552  0.84140804  1
  N  N67  1  0.08382145  0.77396618  0.59203027  1
  N  N68  1  0.89392843  0.86282867  0.32362703  1
  N  N69  1  0.74719377  0.77182766  0.08018202  1
  N  N70  1  0.58029920  0.85823468  0.84829975  1
  N  N71  1  0.45041572  0.76206106  0.59034809  1
