# generated using pymatgen
data_Al31B5N36
_symmetry_space_group_name_H-M   'P 1'
_cell_length_a   9.16925840
_cell_length_b   9.15101563
_cell_length_c   10.23171621
_cell_angle_alpha   90.10739452
_cell_angle_beta   89.46434417
_cell_angle_gamma   60.04978631
_symmetry_Int_Tables_number   1
_chemical_formula_structural   Al31B5N36
_chemical_formula_sum   'Al31 B5 N36'
_cell_volume   743.82184001
_cell_formula_units_Z   1
loop_
 _symmetry_equiv_pos_site_id
 _symmetry_equiv_pos_as_xyz
  1  'x, y, z'
loop_
 _atom_site_type_symbol
 _atom_site_label
 _atom_site_symmetry_multiplicity
 _atom_site_fract_x
 _atom_site_fract_y
 _atom_site_fract_z
 _atom_site_occupancy
  Al  Al0  1  0.11606716  0.09386046  0.39761584  1
  Al  Al1  1  0.21304714  0.20520667  0.13376815  1
  Al  Al2  1  0.88704123  0.20013672  0.61425134  1
  Al  Al3  1  0.45591169  0.08151052  0.31515934  1
  Al  Al4  1  0.57382959  0.19255541  0.05639160  1
  Al  Al5  1  0.09668807  0.09499440  0.88454139  1
  Al  Al6  1  0.21385768  0.21149371  0.64633911  1
  Al  Al7  1  0.78132237  0.10527426  0.31644829  1
  Al  Al8  1  0.46147788  0.08337655  0.81418417  1
  Al  Al9  1  0.56071421  0.19806572  0.56387252  1
  Al  Al10  1  0.11253359  0.42432258  0.39181026  1
  Al  Al11  1  0.22101951  0.53955599  0.11090620  1
  Al  Al12  1  0.77801625  0.42072995  0.88193304  1
  Al  Al13  1  0.88739482  0.55453560  0.64388663  1
  Al  Al14  1  0.44521912  0.42151845  0.31782741  1
  Al  Al15  1  0.56628560  0.53852534  0.13471815  1
  Al  Al16  1  0.10128458  0.43583819  0.88889601  1
  Al  Al17  1  0.21615967  0.54504137  0.62209863  1
  Al  Al18  1  0.77586946  0.43157015  0.40063909  1
  Al  Al19  1  0.88140088  0.53759088  0.14328728  1
  Al  Al20  1  0.45059612  0.41385370  0.81810327  1
  Al  Al21  1  0.55740513  0.54626659  0.64778664  1
  Al  Al22  1  0.10232133  0.77081589  0.39023392  1
  Al  Al23  1  0.21675161  0.87940858  0.13926185  1
  Al  Al24  1  0.43940989  0.75583107  0.39220661  1
  Al  Al25  1  0.09643446  0.76789279  0.88525207  1
  Al  Al26  1  0.21450017  0.87575476  0.64727360  1
  Al  Al27  1  0.78435822  0.76111030  0.38158491  1
  Al  Al28  1  0.88315310  0.87026353  0.13073443  1
  Al  Al29  1  0.45337227  0.76401841  0.88920458  1
  Al  Al30  1  0.55558123  0.87663192  0.58271105  1
  B  B31  1  0.77413879  0.07762259  0.80252637  1
  B  B32  1  0.88761371  0.20508303  0.09466652  1
  B  B33  1  0.77115289  0.77509780  0.84600851  1
  B  B34  1  0.88555174  0.87147754  0.61248682  1
  B  B35  1  0.56123932  0.86759051  0.10131047  1
  N  N36  1  0.21984002  0.20590959  0.32040545  1
  N  N37  1  0.07924816  0.10853837  0.07787218  1
  N  N38  1  0.87614500  0.18973365  0.81889199  1
  N  N39  1  0.78175661  0.06314408  0.64025737  1
  N  N40  1  0.55888449  0.20067366  0.37722869  1
  N  N41  1  0.46533992  0.06220409  0.11924024  1
  N  N42  1  0.21417627  0.20760233  0.83581630  1
  N  N43  1  0.12043648  0.09075971  0.58330596  1
  N  N44  1  0.88592505  0.20209719  0.39433730  1
  N  N45  1  0.79344924  0.11378005  0.12387182  1
  N  N46  1  0.58519010  0.18599521  0.87003477  1
  N  N47  1  0.44346069  0.10013460  0.62959659  1
  N  N48  1  0.22068024  0.54352726  0.35293972  1
  N  N49  1  0.10449345  0.42954735  0.07554069  1
  N  N50  1  0.87394103  0.57083722  0.83276432  1
  N  N51  1  0.77537407  0.44267076  0.58800796  1
  N  N52  1  0.56335514  0.53894688  0.32211524  1
  N  N53  1  0.44964185  0.41605136  0.12184572  1
  N  N54  1  0.21776065  0.54088316  0.83398563  1
  N  N55  1  0.10738454  0.42742160  0.57953022  1
  N  N56  1  0.89132251  0.53389387  0.32924435  1
  N  N57  1  0.79436893  0.39709431  0.07423808  1
  N  N58  1  0.55550660  0.54100124  0.83657704  1
  N  N59  1  0.45182456  0.41933842  0.62723922  1
  N  N60  1  0.22080257  0.87451451  0.32510277  1
  N  N61  1  0.10940682  0.76481539  0.07278587  1
  N  N62  1  0.86219176  0.87652065  0.84518209  1
  N  N63  1  0.79890242  0.77495679  0.57559037  1
  N  N64  1  0.55294938  0.87429480  0.38942299  1
  N  N65  1  0.45517361  0.77784454  0.08059103  1
  N  N66  1  0.22402729  0.87019871  0.83267908  1
  N  N67  1  0.07762418  0.78402316  0.58495979  1
  N  N68  1  0.89063602  0.87180690  0.31784771  1
  N  N69  1  0.74371938  0.77146858  0.10857206  1
  N  N70  1  0.58753696  0.85229631  0.83075904  1
  N  N71  1  0.43288306  0.75753482  0.58001486  1
