# generated using pymatgen
data_Al31B5N36
_symmetry_space_group_name_H-M   'P 1'
_cell_length_a   9.16772593
_cell_length_b   9.14328427
_cell_length_c   10.12052776
_cell_angle_alpha   90.20686172
_cell_angle_beta   89.81819581
_cell_angle_gamma   60.10130770
_symmetry_Int_Tables_number   1
_chemical_formula_structural   Al31B5N36
_chemical_formula_sum   'Al31 B5 N36'
_cell_volume   735.41096829
_cell_formula_units_Z   1
loop_
 _symmetry_equiv_pos_site_id
 _symmetry_equiv_pos_as_xyz
  1  'x, y, z'
loop_
 _atom_site_type_symbol
 _atom_site_label
 _atom_site_symmetry_multiplicity
 _atom_site_fract_x
 _atom_site_fract_y
 _atom_site_fract_z
 _atom_site_occupancy
  Al  Al0  1  0.11155933  0.09702747  0.39961155  1
  Al  Al1  1  0.21085152  0.20673635  0.14755573  1
  Al  Al2  1  0.88512239  0.19193614  0.65046889  1
  Al  Al3  1  0.45464494  0.08155587  0.32795400  1
  Al  Al4  1  0.57116273  0.19256190  0.08323547  1
  Al  Al5  1  0.09591295  0.09256689  0.90801035  1
  Al  Al6  1  0.21149500  0.21005592  0.65476823  1
  Al  Al7  1  0.77990702  0.09719946  0.33288074  1
  Al  Al8  1  0.45713019  0.08866214  0.83158124  1
  Al  Al9  1  0.56440593  0.18836846  0.57080797  1
  Al  Al10  1  0.11001666  0.42773470  0.40112691  1
  Al  Al11  1  0.22179744  0.53988080  0.15406645  1
  Al  Al12  1  0.77745711  0.41827252  0.90667103  1
  Al  Al13  1  0.88775397  0.54902526  0.66068800  1
  Al  Al14  1  0.44065055  0.43512187  0.40003179  1
  Al  Al15  1  0.56170059  0.53572183  0.15229047  1
  Al  Al16  1  0.10297602  0.43508762  0.90467811  1
  Al  Al17  1  0.21745987  0.54066410  0.64984886  1
  Al  Al18  1  0.77938903  0.42911857  0.40158535  1
  Al  Al19  1  0.88007336  0.54202799  0.14910309  1
  Al  Al20  1  0.44369042  0.42926183  0.90037430  1
  Al  Al21  1  0.55646267  0.53432836  0.65643300  1
  Al  Al22  1  0.10427259  0.76627587  0.39663492  1
  Al  Al23  1  0.22000946  0.87830137  0.15230657  1
  Al  Al24  1  0.44204124  0.76057421  0.40910989  1
  Al  Al25  1  0.09975977  0.76566676  0.90137403  1
  Al  Al26  1  0.21426673  0.87441183  0.65426768  1
  Al  Al27  1  0.78357902  0.76264411  0.40138557  1
  Al  Al28  1  0.88493805  0.87591013  0.13002972  1
  Al  Al29  1  0.45173774  0.76294770  0.89608278  1
  Al  Al30  1  0.56456034  0.87017694  0.62094960  1
  B  B31  1  0.77457773  0.07793612  0.87104997  1
  B  B32  1  0.88888088  0.21005492  0.15885869  1
  B  B33  1  0.76103951  0.77729857  0.90455435  1
  B  B34  1  0.89089627  0.87265880  0.60353498  1
  B  B35  1  0.55499345  0.87091430  0.10315094  1
  N  N36  1  0.22157896  0.20765777  0.33539613  1
  N  N37  1  0.08229477  0.10680586  0.09711502  1
  N  N38  1  0.87043068  0.18071598  0.84256382  1
  N  N39  1  0.79764180  0.05748127  0.59265652  1
  N  N40  1  0.55503382  0.20296028  0.38094555  1
  N  N41  1  0.46336547  0.06008884  0.12989673  1
  N  N42  1  0.20928475  0.20749049  0.84815096  1
  N  N43  1  0.10794563  0.09478930  0.58855274  1
  N  N44  1  0.89698655  0.21479868  0.32420937  1
  N  N45  1  0.78756428  0.11287905  0.13963830  1
  N  N46  1  0.58416020  0.18621938  0.89107494  1
  N  N47  1  0.44277887  0.10127197  0.64494258  1
  N  N48  1  0.22077493  0.54094187  0.34153256  1
  N  N49  1  0.10773852  0.43196583  0.09117949  1
  N  N50  1  0.87396559  0.56398142  0.85231816  1
  N  N51  1  0.78069061  0.42490027  0.59433168  1
  N  N52  1  0.55627947  0.54079917  0.33904637  1
  N  N53  1  0.44188479  0.43029866  0.09024452  1
  N  N54  1  0.22036167  0.53883553  0.83765540  1
  N  N55  1  0.10706565  0.42846754  0.59023242  1
  N  N56  1  0.88724165  0.54247898  0.33763893  1
  N  N57  1  0.79052459  0.40224523  0.09654443  1
  N  N58  1  0.55756135  0.53611846  0.84405638  1
  N  N59  1  0.44341963  0.42844917  0.59063922  1
  N  N60  1  0.22336484  0.87220558  0.34013881  1
  N  N61  1  0.11684469  0.75884421  0.08813425  1
  N  N62  1  0.85867041  0.88966740  0.88373103  1
  N  N63  1  0.80309357  0.77000033  0.59293906  1
  N  N64  1  0.55593965  0.87440804  0.39920801  1
  N  N65  1  0.45727042  0.77637823  0.09150844  1
  N  N66  1  0.22147134  0.87122596  0.84307749  1
  N  N67  1  0.08576004  0.77373754  0.59129813  1
  N  N68  1  0.89177172  0.86332514  0.32309162  1
  N  N69  1  0.74587839  0.77388876  0.07610970  1
  N  N70  1  0.58467338  0.85448688  0.84121135  1
  N  N71  1  0.43906497  0.75616743  0.59874896  1
