# generated using pymatgen
data_Al31B5N36
_symmetry_space_group_name_H-M   'P 1'
_cell_length_a   9.17082266
_cell_length_b   9.15686189
_cell_length_c   10.27822998
_cell_angle_alpha   90.10737453
_cell_angle_beta   89.56068771
_cell_angle_gamma   60.17659448
_symmetry_Int_Tables_number   1
_chemical_formula_structural   Al31B5N36
_chemical_formula_sum   'Al31 B5 N36'
_cell_volume   748.77596540
_cell_formula_units_Z   1
loop_
 _symmetry_equiv_pos_site_id
 _symmetry_equiv_pos_as_xyz
  1  'x, y, z'
loop_
 _atom_site_type_symbol
 _atom_site_label
 _atom_site_symmetry_multiplicity
 _atom_site_fract_x
 _atom_site_fract_y
 _atom_site_fract_z
 _atom_site_occupancy
  Al  Al0  1  0.11580839  0.09112625  0.39864521  1
  Al  Al1  1  0.21205477  0.20842462  0.13660292  1
  Al  Al2  1  0.88835839  0.19601095  0.61592181  1
  Al  Al3  1  0.45670501  0.08239839  0.31688158  1
  Al  Al4  1  0.57207798  0.19353070  0.05844555  1
  Al  Al5  1  0.09689365  0.09306840  0.88680097  1
  Al  Al6  1  0.21281480  0.21310759  0.64632089  1
  Al  Al7  1  0.78052932  0.10498573  0.31579579  1
  Al  Al8  1  0.46038313  0.08503127  0.81456533  1
  Al  Al9  1  0.56023630  0.19758229  0.56562504  1
  Al  Al10  1  0.11039579  0.42232030  0.39146382  1
  Al  Al11  1  0.22851124  0.53860186  0.06321636  1
  Al  Al12  1  0.78226696  0.41816605  0.88035630  1
  Al  Al13  1  0.88972198  0.55443139  0.64606506  1
  Al  Al14  1  0.44541414  0.42499288  0.31480385  1
  Al  Al15  1  0.56069332  0.53472106  0.09071269  1
  Al  Al16  1  0.09872353  0.43167284  0.89318826  1
  Al  Al17  1  0.21834383  0.55084576  0.57049754  1
  Al  Al18  1  0.77863549  0.42907043  0.39956257  1
  Al  Al19  1  0.87994659  0.53869744  0.14512935  1
  Al  Al20  1  0.44850516  0.41909797  0.82002020  1
  Al  Al21  1  0.55385186  0.54079082  0.61408920  1
  Al  Al22  1  0.11176573  0.75652141  0.30913577  1
  Al  Al23  1  0.22438847  0.88400929  0.13569584  1
  Al  Al24  1  0.43905642  0.75927071  0.39073643  1
  Al  Al25  1  0.09144858  0.76282193  0.83056622  1
  Al  Al26  1  0.21652418  0.87780885  0.65000292  1
  Al  Al27  1  0.78542900  0.76283871  0.38479961  1
  Al  Al28  1  0.87933296  0.87365979  0.11533719  1
  Al  Al29  1  0.45235055  0.76712616  0.88823134  1
  Al  Al30  1  0.55687588  0.87797670  0.58437739  1
  B  B31  1  0.77146187  0.08094107  0.81033351  1
  B  B32  1  0.88867124  0.20586576  0.09479987  1
  B  B33  1  0.76834797  0.77645835  0.85497871  1
  B  B34  1  0.88583328  0.86993712  0.61762890  1
  B  B35  1  0.56146249  0.86797030  0.10190536  1
  N  N36  1  0.21991575  0.20576310  0.32221783  1
  N  N37  1  0.08065315  0.10907599  0.07692781  1
  N  N38  1  0.87633317  0.18809322  0.82031212  1
  N  N39  1  0.78105681  0.06046113  0.64496683  1
  N  N40  1  0.55730575  0.20390858  0.37936958  1
  N  N41  1  0.46623971  0.06275172  0.12169393  1
  N  N42  1  0.21249628  0.20769777  0.83474681  1
  N  N43  1  0.12041440  0.08971464  0.58393003  1
  N  N44  1  0.88604762  0.20035574  0.39652821  1
  N  N45  1  0.79309186  0.11597640  0.12271300  1
  N  N46  1  0.58242923  0.18902894  0.87140212  1
  N  N47  1  0.44243009  0.10099995  0.63101613  1
  N  N48  1  0.22549389  0.54546980  0.38347993  1
  N  N49  1  0.10250250  0.42982216  0.07928206  1
  N  N50  1  0.87492729  0.57221746  0.83361604  1
  N  N51  1  0.77878475  0.43853760  0.59291337  1
  N  N52  1  0.56058855  0.53762137  0.34241576  1
  N  N53  1  0.44525121  0.41623273  0.12630904  1
  N  N54  1  0.22559894  0.53755537  0.87704892  1
  N  N55  1  0.10684954  0.42741264  0.57989318  1
  N  N56  1  0.89079791  0.53613219  0.33065084  1
  N  N57  1  0.79882656  0.39496913  0.07541518  1
  N  N58  1  0.55278641  0.53652325  0.87494218  1
  N  N59  1  0.44323307  0.42321442  0.63371228  1
  N  N60  1  0.22495532  0.87838637  0.32184008  1
  N  N61  1  0.11764503  0.75669254  0.11778966  1
  N  N62  1  0.85734797  0.88137738  0.86724555  1
  N  N63  1  0.80034572  0.77447015  0.57835623  1
  N  N64  1  0.55407524  0.87616754  0.39250927  1
  N  N65  1  0.45530812  0.78213414  0.07948785  1
  N  N66  1  0.22532325  0.86953279  0.83561910  1
  N  N67  1  0.07623783  0.77624398  0.63524382  1
  N  N68  1  0.88298125  0.87496605  0.31467815  1
  N  N69  1  0.74320677  0.76993516  0.10416171  1
  N  N70  1  0.58720634  0.85320746  0.82979953  1
  N  N71  1  0.43157888  0.76195774  0.58246265  1
