# generated using pymatgen
data_Al31B5N36
_symmetry_space_group_name_H-M   'P 1'
_cell_length_a   9.17027345
_cell_length_b   9.20372943
_cell_length_c   9.93003697
_cell_angle_alpha   89.43930352
_cell_angle_beta   89.90188497
_cell_angle_gamma   60.21697071
_symmetry_Int_Tables_number   1
_chemical_formula_structural   Al31B5N36
_chemical_formula_sum   'Al31 B5 N36'
_cell_volume   727.35988063
_cell_formula_units_Z   1
loop_
 _symmetry_equiv_pos_site_id
 _symmetry_equiv_pos_as_xyz
  1  'x, y, z'
loop_
 _atom_site_type_symbol
 _atom_site_label
 _atom_site_symmetry_multiplicity
 _atom_site_fract_x
 _atom_site_fract_y
 _atom_site_fract_z
 _atom_site_occupancy
  Al  Al0  1  0.11052574  0.09618587  0.39844289  1
  Al  Al1  1  0.21675379  0.20403911  0.14941829  1
  Al  Al2  1  0.88826555  0.19094118  0.64588596  1
  Al  Al3  1  0.44590575  0.08998211  0.39331651  1
  Al  Al4  1  0.55763391  0.20661468  0.15136279  1
  Al  Al5  1  0.09845748  0.09098951  0.90446390  1
  Al  Al6  1  0.22438736  0.20101042  0.65111860  1
  Al  Al7  1  0.78381364  0.09294953  0.35721090  1
  Al  Al8  1  0.45077565  0.08980958  0.90584350  1
  Al  Al9  1  0.56625921  0.19309271  0.63698264  1
  Al  Al10  1  0.10928747  0.42750622  0.39701125  1
  Al  Al11  1  0.22053520  0.54036568  0.14989159  1
  Al  Al12  1  0.77931930  0.40972453  0.90294611  1
  Al  Al13  1  0.89220639  0.53603812  0.65475428  1
  Al  Al14  1  0.44371605  0.42909208  0.40105343  1
  Al  Al15  1  0.55991425  0.53715551  0.14955097  1
  Al  Al16  1  0.10712928  0.42434364  0.89898531  1
  Al  Al17  1  0.21490543  0.54043935  0.64863382  1
  Al  Al18  1  0.77986091  0.42700925  0.39541329  1
  Al  Al19  1  0.88129757  0.54159325  0.13922140  1
  Al  Al20  1  0.44557415  0.42536395  0.89753091  1
  Al  Al21  1  0.55914153  0.53677389  0.65195903  1
  Al  Al22  1  0.10799037  0.76202148  0.39386057  1
  Al  Al23  1  0.21920020  0.87903434  0.15126828  1
  Al  Al24  1  0.44838524  0.76195509  0.39540396  1
  Al  Al25  1  0.09721221  0.76558581  0.90051091  1
  Al  Al26  1  0.22042906  0.87179806  0.65027527  1
  Al  Al27  1  0.77840816  0.76262833  0.38759740  1
  Al  Al28  1  0.88377788  0.88511903  0.13147560  1
  Al  Al29  1  0.45288983  0.76099849  0.90548661  1
  Al  Al30  1  0.57276546  0.86906154  0.65493804  1
  B  B31  1  0.76871345  0.08746477  0.86784139  1
  B  B32  1  0.88563436  0.20967984  0.15784469  1
  B  B33  1  0.73769180  0.82497811  0.92911093  1
  B  B34  1  0.88917415  0.87119789  0.59459368  1
  B  B35  1  0.55075612  0.87534901  0.14985519  1
  N  N36  1  0.22280186  0.20565716  0.33883143  1
  N  N37  1  0.08346667  0.10809311  0.09631020  1
  N  N38  1  0.86996606  0.17748667  0.83941664  1
  N  N39  1  0.79550575  0.05959242  0.57847291  1
  N  N40  1  0.55025577  0.20957543  0.34397795  1
  N  N41  1  0.45403472  0.07336564  0.09807947  1
  N  N42  1  0.22711765  0.19478068  0.84412597  1
  N  N43  1  0.11046117  0.09282497  0.58993346  1
  N  N44  1  0.89598298  0.21248164  0.32471116  1
  N  N45  1  0.78651065  0.11658849  0.13183805  1
  N  N46  1  0.57777228  0.19189704  0.84136340  1
  N  N47  1  0.44729436  0.08674190  0.58734011  1
  N  N48  1  0.22210945  0.53984628  0.34106423  1
  N  N49  1  0.11003369  0.42887775  0.08933343  1
  N  N50  1  0.89140693  0.51661642  0.83972111  1
  N  N51  1  0.78045971  0.41983294  0.58751983  1
  N  N52  1  0.55508882  0.53984358  0.33950679  1
  N  N53  1  0.44203429  0.42911957  0.08789587  1
  N  N54  1  0.21708842  0.54027063  0.83815069  1
  N  N55  1  0.11232112  0.42304357  0.58764591  1
  N  N56  1  0.88674667  0.54224116  0.33271409  1
  N  N57  1  0.78828575  0.40324730  0.09595140  1
  N  N58  1  0.55547389  0.53968540  0.84315894  1
  N  N59  1  0.44453839  0.42650196  0.59286281  1
  N  N60  1  0.22288673  0.87285910  0.34270314  1
  N  N61  1  0.11475748  0.76092781  0.08916953  1
  N  N62  1  0.84865286  0.90083883  0.88955352  1
  N  N63  1  0.79613270  0.77037339  0.58526135  1
  N  N64  1  0.55736336  0.87185916  0.31617498  1
  N  N65  1  0.45436242  0.77610383  0.09777242  1
  N  N66  1  0.22331133  0.86854745  0.84194098  1
  N  N67  1  0.08343511  0.77402638  0.59138458  1
  N  N68  1  0.89323465  0.86475408  0.32574097  1
  N  N69  1  0.74467053  0.78256581  0.08093429  1
  N  N70  1  0.58172431  0.86485411  0.84859884  1
  N  N71  1  0.45149095  0.76179829  0.59126798  1
