# generated using pymatgen
data_Al31B5N36
_symmetry_space_group_name_H-M   'P 1'
_cell_length_a   9.21787935
_cell_length_b   9.20661944
_cell_length_c   9.82842247
_cell_angle_alpha   89.74913334
_cell_angle_beta   89.39065909
_cell_angle_gamma   59.95999611
_symmetry_Int_Tables_number   1
_chemical_formula_structural   Al31B5N36
_chemical_formula_sum   'Al31 B5 N36'
_cell_volume   722.01402167
_cell_formula_units_Z   1
loop_
 _symmetry_equiv_pos_site_id
 _symmetry_equiv_pos_as_xyz
  1  'x, y, z'
loop_
 _atom_site_type_symbol
 _atom_site_label
 _atom_site_symmetry_multiplicity
 _atom_site_fract_x
 _atom_site_fract_y
 _atom_site_fract_z
 _atom_site_occupancy
  Al  Al0  1  0.11077660  0.08958725  0.38373257  1
  Al  Al1  1  0.22169209  0.20461763  0.06329130  1
  Al  Al2  1  0.88491021  0.19900199  0.59723622  1
  Al  Al3  1  0.44875011  0.08834430  0.30490409  1
  Al  Al4  1  0.57064037  0.20031534  0.05478665  1
  Al  Al5  1  0.09039124  0.09688768  0.87072333  1
  Al  Al6  1  0.22904286  0.20829001  0.56437191  1
  Al  Al7  1  0.78208147  0.09292260  0.32293656  1
  Al  Al8  1  0.45423562  0.08725025  0.81842139  1
  Al  Al9  1  0.56008748  0.19751437  0.56338753  1
  Al  Al10  1  0.10990362  0.42939238  0.31121900  1
  Al  Al11  1  0.22136111  0.53845135  0.05908347  1
  Al  Al12  1  0.77572736  0.42772694  0.80820666  1
  Al  Al13  1  0.88730637  0.54889683  0.56689698  1
  Al  Al14  1  0.44443696  0.42674212  0.31146255  1
  Al  Al15  1  0.56412736  0.53281895  0.06303189  1
  Al  Al16  1  0.10716731  0.43081345  0.81113162  1
  Al  Al17  1  0.21756748  0.54451650  0.56186500  1
  Al  Al18  1  0.78291666  0.42198772  0.31876807  1
  Al  Al19  1  0.88337469  0.54423726  0.05815818  1
  Al  Al20  1  0.45227004  0.42190561  0.80941427  1
  Al  Al21  1  0.55568541  0.54192375  0.55801930  1
  Al  Al22  1  0.10260222  0.76349637  0.31680976  1
  Al  Al23  1  0.21755229  0.87668420  0.09829872  1
  Al  Al24  1  0.45133076  0.76454643  0.30357341  1
  Al  Al25  1  0.09410570  0.76263128  0.81448521  1
  Al  Al26  1  0.21970055  0.87137670  0.62174288  1
  Al  Al27  1  0.77374217  0.76701985  0.31457090  1
  Al  Al28  1  0.87825655  0.88268107  0.05416266  1
  Al  Al29  1  0.45547244  0.75794242  0.82644993  1
  Al  Al30  1  0.56066175  0.87263918  0.56942290  1
  B  B31  1  0.77451584  0.08315640  0.79553487  1
  B  B32  1  0.88931539  0.20519637  0.10165663  1
  B  B33  1  0.77514943  0.77479177  0.81075054  1
  B  B34  1  0.88182388  0.87361710  0.57288730  1
  B  B35  1  0.56810710  0.86739733  0.05356753  1
  N  N36  1  0.22681289  0.20697170  0.36537067  1
  N  N37  1  0.07434045  0.11278472  0.07702372  1
  N  N38  1  0.87167148  0.18804470  0.81539733  1
  N  N39  1  0.78292532  0.06184276  0.62948379  1
  N  N40  1  0.55533580  0.20273076  0.36937619  1
  N  N41  1  0.46140897  0.06915509  0.10686068  1
  N  N42  1  0.22104074  0.20483886  0.86983718  1
  N  N43  1  0.11805291  0.09014027  0.58257125  1
  N  N44  1  0.88030019  0.20820308  0.38715070  1
  N  N45  1  0.79481923  0.10768914  0.12374242  1
  N  N46  1  0.58305150  0.19053622  0.86035084  1
  N  N47  1  0.44511819  0.09346478  0.62749615  1
  N  N48  1  0.22146036  0.54026270  0.37056706  1
  N  N49  1  0.10793524  0.42900420  0.11904246  1
  N  N50  1  0.87651946  0.56495943  0.86459882  1
  N  N51  1  0.77477931  0.43676536  0.61794162  1
  N  N52  1  0.55436863  0.54236410  0.36410597  1
  N  N53  1  0.44482586  0.42499462  0.11819438  1
  N  N54  1  0.22473310  0.53599016  0.86775092  1
  N  N55  1  0.11049845  0.42950027  0.62058159  1
  N  N56  1  0.88677919  0.54367662  0.37114488  1
  N  N57  1  0.79516638  0.39786968  0.11806102  1
  N  N58  1  0.55879210  0.53373031  0.87457686  1
  N  N59  1  0.44586372  0.42741201  0.61709628  1
  N  N60  1  0.22196403  0.87455302  0.32038676  1
  N  N61  1  0.09810000  0.76028526  0.11813147  1
  N  N62  1  0.86173481  0.88463985  0.86176120  1
  N  N63  1  0.78595047  0.77436337  0.63932320  1
  N  N64  1  0.55513652  0.87291605  0.37851988  1
  N  N65  1  0.46565374  0.77124300  0.10528670  1
  N  N66  1  0.22106258  0.86639480  0.85555529  1
  N  N67  1  0.08291747  0.77307722  0.61857081  1
  N  N68  1  0.88406203  0.87232485  0.39836977  1
  N  N69  1  0.75448090  0.77696411  0.11832290  1
  N  N70  1  0.58340756  0.86008182  0.88173609  1
  N  N71  1  0.45042659  0.75868365  0.62961742  1
