# generated using pymatgen
data_Al31B5N36
_symmetry_space_group_name_H-M   'P 1'
_cell_length_a   9.17126660
_cell_length_b   9.15762693
_cell_length_c   10.28234196
_cell_angle_alpha   90.10992026
_cell_angle_beta   89.56209900
_cell_angle_gamma   60.17871128
_symmetry_Int_Tables_number   1
_chemical_formula_structural   Al31B5N36
_chemical_formula_sum   'Al31 B5 N36'
_cell_volume   749.19020095
_cell_formula_units_Z   1
loop_
 _symmetry_equiv_pos_site_id
 _symmetry_equiv_pos_as_xyz
  1  'x, y, z'
loop_
 _atom_site_type_symbol
 _atom_site_label
 _atom_site_symmetry_multiplicity
 _atom_site_fract_x
 _atom_site_fract_y
 _atom_site_fract_z
 _atom_site_occupancy
  Al  Al0  1  0.11589918  0.09101281  0.39871829  1
  Al  Al1  1  0.21200833  0.20839970  0.13662667  1
  Al  Al2  1  0.88841662  0.19597806  0.61636051  1
  Al  Al3  1  0.45671021  0.08251312  0.31681598  1
  Al  Al4  1  0.57207138  0.19364104  0.05857099  1
  Al  Al5  1  0.09688730  0.09308227  0.88695192  1
  Al  Al6  1  0.21274838  0.21310344  0.64634006  1
  Al  Al7  1  0.78048798  0.10491240  0.31573097  1
  Al  Al8  1  0.46034994  0.08525723  0.81459620  1
  Al  Al9  1  0.56023220  0.19740044  0.56563007  1
  Al  Al10  1  0.11046234  0.42230863  0.39143023  1
  Al  Al11  1  0.22865496  0.53855477  0.06337466  1
  Al  Al12  1  0.78251473  0.41819233  0.87953696  1
  Al  Al13  1  0.88956308  0.55442731  0.64620936  1
  Al  Al14  1  0.44558964  0.42511655  0.31522446  1
  Al  Al15  1  0.56006356  0.53407700  0.08333066  1
  Al  Al16  1  0.09891859  0.43165836  0.89322943  1
  Al  Al17  1  0.21800708  0.55088804  0.57055993  1
  Al  Al18  1  0.78050726  0.42808844  0.39980444  1
  Al  Al19  1  0.87978251  0.53872070  0.14497487  1
  Al  Al20  1  0.44913463  0.41986853  0.81948780  1
  Al  Al21  1  0.55310487  0.53943256  0.60248059  1
  Al  Al22  1  0.11174329  0.75645399  0.30908052  1
  Al  Al23  1  0.22448715  0.88393005  0.13564304  1
  Al  Al24  1  0.43822855  0.76081723  0.39109742  1
  Al  Al25  1  0.09148243  0.76273563  0.83063145  1
  Al  Al26  1  0.21650244  0.87786931  0.65022901  1
  Al  Al27  1  0.78543275  0.76289859  0.38485994  1
  Al  Al28  1  0.87933119  0.87366658  0.11535965  1
  Al  Al29  1  0.45227194  0.76738663  0.88772428  1
  Al  Al30  1  0.55689834  0.87800254  0.58468549  1
  B  B31  1  0.77139337  0.08097268  0.81042083  1
  B  B32  1  0.88866167  0.20595301  0.09496460  1
  B  B33  1  0.76835026  0.77655291  0.85504455  1
  B  B34  1  0.88583429  0.86992708  0.61768827  1
  B  B35  1  0.56145998  0.86793623  0.10199705  1
  N  N36  1  0.21988663  0.20573765  0.32222770  1
  N  N37  1  0.08069376  0.10902207  0.07694443  1
  N  N38  1  0.87635108  0.18803701  0.82036067  1
  N  N39  1  0.78103722  0.06045414  0.64500694  1
  N  N40  1  0.55733064  0.20377980  0.37939156  1
  N  N41  1  0.46622424  0.06288919  0.12171701  1
  N  N42  1  0.21242262  0.20771866  0.83473148  1
  N  N43  1  0.12031428  0.08972693  0.58395651  1
  N  N44  1  0.88637181  0.19993599  0.39626085  1
  N  N45  1  0.79309802  0.11592009  0.12271629  1
  N  N46  1  0.58233337  0.18936302  0.87139437  1
  N  N47  1  0.44237687  0.10108493  0.63110220  1
  N  N48  1  0.22528793  0.54549395  0.38349048  1
  N  N49  1  0.10262256  0.42980675  0.07929560  1
  N  N50  1  0.87496117  0.57228571  0.83369415  1
  N  N51  1  0.77941904  0.43798713  0.59371573  1
  N  N52  1  0.55949971  0.53666590  0.35200733  1
  N  N53  1  0.44566055  0.41682157  0.12716504  1
  N  N54  1  0.22597628  0.53741950  0.87709854  1
  N  N55  1  0.10673361  0.42740310  0.57986722  1
  N  N56  1  0.89076102  0.53621459  0.33049325  1
  N  N57  1  0.79894899  0.39487562  0.07591894  1
  N  N58  1  0.55250762  0.53615352  0.87987570  1
  N  N59  1  0.44320196  0.42337618  0.63379134  1
  N  N60  1  0.22487477  0.87838888  0.32170236  1
  N  N61  1  0.11763897  0.75668161  0.11780340  1
  N  N62  1  0.85734185  0.88142009  0.86721187  1
  N  N63  1  0.80034677  0.77444654  0.57837084  1
  N  N64  1  0.55415652  0.87635794  0.39247560  1
  N  N65  1  0.45538488  0.78217129  0.07986956  1
  N  N66  1  0.22522588  0.86955666  0.83574077  1
  N  N67  1  0.07621593  0.77623562  0.63534864  1
  N  N68  1  0.88300349  0.87491621  0.31466838  1
  N  N69  1  0.74324586  0.76999766  0.10413207  1
  N  N70  1  0.58724151  0.85331170  0.82980874  1
  N  N71  1  0.43119661  0.76309445  0.58316946  1
