# generated using pymatgen
data_Al31B5N36
_symmetry_space_group_name_H-M   'P 1'
_cell_length_a   9.16687012
_cell_length_b   9.16330616
_cell_length_c   9.85317861
_cell_angle_alpha   90.03176759
_cell_angle_beta   90.16681113
_cell_angle_gamma   60.08511013
_symmetry_Int_Tables_number   1
_chemical_formula_structural   Al31B5N36
_chemical_formula_sum   'Al31 B5 N36'
_cell_volume   717.38123569
_cell_formula_units_Z   1
loop_
 _symmetry_equiv_pos_site_id
 _symmetry_equiv_pos_as_xyz
  1  'x, y, z'
loop_
 _atom_site_type_symbol
 _atom_site_label
 _atom_site_symmetry_multiplicity
 _atom_site_fract_x
 _atom_site_fract_y
 _atom_site_fract_z
 _atom_site_occupancy
  Al  Al0  1  0.10572618  0.09602158  0.39712473  1
  Al  Al1  1  0.21873821  0.20225451  0.15274267  1
  Al  Al2  1  0.88822185  0.19382666  0.65671259  1
  Al  Al3  1  0.44639776  0.09038743  0.39711889  1
  Al  Al4  1  0.56195012  0.20074926  0.14915906  1
  Al  Al5  1  0.10067889  0.09348180  0.90790399  1
  Al  Al6  1  0.22210703  0.20317645  0.65407558  1
  Al  Al7  1  0.78100891  0.08941230  0.39223525  1
  Al  Al8  1  0.45509224  0.08508264  0.90906935  1
  Al  Al9  1  0.56682724  0.19277289  0.65921147  1
  Al  Al10  1  0.10838879  0.42748842  0.40370033  1
  Al  Al11  1  0.22169240  0.53947384  0.15517491  1
  Al  Al12  1  0.77866752  0.42092938  0.90644738  1
  Al  Al13  1  0.88721313  0.54797106  0.65939194  1
  Al  Al14  1  0.44578500  0.42494830  0.40498400  1
  Al  Al15  1  0.56027171  0.53636778  0.15360205  1
  Al  Al16  1  0.10570531  0.43359910  0.90432598  1
  Al  Al17  1  0.21705706  0.54090023  0.65312735  1
  Al  Al18  1  0.78018152  0.42301549  0.39808168  1
  Al  Al19  1  0.88206803  0.54060369  0.14665979  1
  Al  Al20  1  0.44733830  0.42490331  0.90383800  1
  Al  Al21  1  0.55778798  0.53805087  0.65483862  1
  Al  Al22  1  0.10427606  0.76382248  0.39880691  1
  Al  Al23  1  0.21932685  0.87633628  0.15360219  1
  Al  Al24  1  0.44711466  0.76187567  0.39738634  1
  Al  Al25  1  0.09710575  0.76704838  0.90089911  1
  Al  Al26  1  0.21842140  0.87404950  0.65273818  1
  Al  Al27  1  0.77736085  0.76417125  0.39184871  1
  Al  Al28  1  0.88227044  0.87832026  0.13111406  1
  Al  Al29  1  0.45156609  0.76247247  0.90768621  1
  Al  Al30  1  0.56696194  0.87112937  0.65689699  1
  B  B31  1  0.77569674  0.09156767  0.91288025  1
  B  B32  1  0.88571903  0.20585377  0.14893459  1
  B  B33  1  0.76121342  0.78281469  0.91454997  1
  B  B34  1  0.88712318  0.87224068  0.61716942  1
  B  B35  1  0.55434832  0.87150108  0.15098734  1
  N  N36  1  0.22128727  0.20504056  0.34383889  1
  N  N37  1  0.08371966  0.10673065  0.10042599  1
  N  N38  1  0.87457288  0.18775896  0.84724462  1
  N  N39  1  0.79274240  0.06350097  0.58964686  1
  N  N40  1  0.55670835  0.20415725  0.34142612  1
  N  N41  1  0.45442464  0.06962770  0.10136927  1
  N  N42  1  0.22205164  0.20266216  0.84835586  1
  N  N43  1  0.10701698  0.09543398  0.59063999  1
  N  N44  1  0.88615826  0.20382773  0.32006971  1
  N  N45  1  0.78605269  0.11052305  0.08266413  1
  N  N46  1  0.57925395  0.19203887  0.85514823  1
  N  N47  1  0.44637939  0.09151649  0.59295365  1
  N  N48  1  0.22174948  0.53870365  0.34812530  1
  N  N49  1  0.11032295  0.42798400  0.09485992  1
  N  N50  1  0.87441163  0.56348061  0.85402135  1
  N  N51  1  0.78225983  0.42244075  0.59455502  1
  N  N52  1  0.55559271  0.53740511  0.34453447  1
  N  N53  1  0.44336904  0.42750133  0.09467409  1
  N  N54  1  0.22150884  0.53993617  0.84263972  1
  N  N55  1  0.10820138  0.42708961  0.59585987  1
  N  N56  1  0.88674181  0.53996936  0.34013326  1
  N  N57  1  0.78979675  0.40177554  0.09894772  1
  N  N58  1  0.55609496  0.53989172  0.84677987  1
  N  N59  1  0.44709225  0.42263331  0.59820035  1
  N  N60  1  0.22167789  0.87088116  0.34552274  1
  N  N61  1  0.11450846  0.75907941  0.09248232  1
  N  N62  1  0.85849284  0.88733346  0.87814677  1
  N  N63  1  0.79221135  0.77526507  0.58984989  1
  N  N64  1  0.55747818  0.87058509  0.32050000  1
  N  N65  1  0.45469186  0.77376768  0.10140519  1
  N  N66  1  0.22371497  0.87079841  0.84505538  1
  N  N67  1  0.08130088  0.77549650  0.59794803  1
  N  N68  1  0.88795111  0.87160458  0.32677020  1
  N  N69  1  0.74774377  0.77349849  0.08339495  1
  N  N70  1  0.57963399  0.86116109  0.84788607  1
  N  N71  1  0.44806128  0.76259940  0.59250762  1
