# generated using pymatgen
data_Al31B5N36
_symmetry_space_group_name_H-M   'P 1'
_cell_length_a   9.20093340
_cell_length_b   9.23900346
_cell_length_c   10.08579211
_cell_angle_alpha   90.10136539
_cell_angle_beta   89.50230952
_cell_angle_gamma   59.73261253
_symmetry_Int_Tables_number   1
_chemical_formula_structural   Al31B5N36
_chemical_formula_sum   'Al31 B5 N36'
_cell_volume   740.44670680
_cell_formula_units_Z   1
loop_
 _symmetry_equiv_pos_site_id
 _symmetry_equiv_pos_as_xyz
  1  'x, y, z'
loop_
 _atom_site_type_symbol
 _atom_site_label
 _atom_site_symmetry_multiplicity
 _atom_site_fract_x
 _atom_site_fract_y
 _atom_site_fract_z
 _atom_site_occupancy
  Al  Al0  1  0.11634861  0.08840645  0.39660970  1
  Al  Al1  1  0.22510673  0.20448497  0.07737758  1
  Al  Al2  1  0.88405374  0.20273755  0.59433144  1
  Al  Al3  1  0.45011795  0.08802699  0.31285600  1
  Al  Al4  1  0.57536760  0.19992312  0.06250680  1
  Al  Al5  1  0.08919804  0.09791407  0.88907204  1
  Al  Al6  1  0.22624548  0.20513567  0.60240247  1
  Al  Al7  1  0.78136320  0.09614282  0.32149512  1
  Al  Al8  1  0.46509652  0.08119926  0.83170976  1
  Al  Al9  1  0.55785966  0.19808596  0.57114942  1
  Al  Al10  1  0.11092708  0.42793951  0.31833455  1
  Al  Al11  1  0.22797184  0.53489726  0.06640591  1
  Al  Al12  1  0.77077811  0.43580481  0.81544552  1
  Al  Al13  1  0.88812409  0.55023773  0.56926356  1
  Al  Al14  1  0.44375371  0.42593681  0.32241573  1
  Al  Al15  1  0.56091816  0.53511071  0.07264516  1
  Al  Al16  1  0.10496893  0.43320067  0.82626763  1
  Al  Al17  1  0.21079218  0.54867424  0.57321490  1
  Al  Al18  1  0.78281349  0.41919441  0.32795483  1
  Al  Al19  1  0.88371560  0.53636938  0.07585485  1
  Al  Al20  1  0.44856317  0.42739326  0.81624792  1
  Al  Al21  1  0.55266143  0.54526821  0.56731204  1
  Al  Al22  1  0.10800789  0.75764581  0.31396574  1
  Al  Al23  1  0.21669226  0.88497325  0.13042381  1
  Al  Al24  1  0.45174205  0.76282541  0.31547134  1
  Al  Al25  1  0.09111963  0.75970134  0.84050000  1
  Al  Al26  1  0.21279129  0.87624276  0.65327822  1
  Al  Al27  1  0.77084411  0.76228619  0.32191924  1
  Al  Al28  1  0.88365626  0.87198640  0.09240770  1
  Al  Al29  1  0.45437709  0.75932096  0.83488915  1
  Al  Al30  1  0.56147605  0.87334985  0.57368539  1
  B  B31  1  0.75662024  0.13249833  0.80012032  1
  B  B32  1  0.88697821  0.20725887  0.10835112  1
  B  B33  1  0.77898551  0.75699635  0.88295178  1
  B  B34  1  0.88007348  0.86898863  0.62793542  1
  B  B35  1  0.56518600  0.86285584  0.07195493  1
  N  N36  1  0.22519863  0.20463584  0.35911049  1
  N  N37  1  0.07531512  0.11396196  0.08253633  1
  N  N38  1  0.86803358  0.20068081  0.83155916  1
  N  N39  1  0.78144887  0.06911101  0.65111064  1
  N  N40  1  0.55617804  0.20251263  0.38184461  1
  N  N41  1  0.46740798  0.06784266  0.11626599  1
  N  N42  1  0.22439922  0.20297833  0.87934219  1
  N  N43  1  0.11823863  0.08717725  0.58841253  1
  N  N44  1  0.88047716  0.20589714  0.39783322  1
  N  N45  1  0.79552571  0.11278638  0.12713998  1
  N  N46  1  0.58522911  0.19678910  0.86995298  1
  N  N47  1  0.44985789  0.09075940  0.64355486  1
  N  N48  1  0.21924149  0.54143742  0.38446542  1
  N  N49  1  0.10979228  0.43164133  0.12795639  1
  N  N50  1  0.87226944  0.55891220  0.88443918  1
  N  N51  1  0.77429418  0.43887688  0.62853308  1
  N  N52  1  0.55321916  0.54193220  0.37714496  1
  N  N53  1  0.44855263  0.42167804  0.13141406  1
  N  N54  1  0.22876135  0.53065712  0.87990732  1
  N  N55  1  0.10723525  0.43122785  0.63770858  1
  N  N56  1  0.88801146  0.53789159  0.37920249  1
  N  N57  1  0.79337038  0.39753031  0.13147992  1
  N  N58  1  0.55462480  0.53728967  0.88632616  1
  N  N59  1  0.44340617  0.42973611  0.62788070  1
  N  N60  1  0.21975728  0.87726921  0.32469123  1
  N  N61  1  0.11805683  0.75402308  0.11947093  1
  N  N62  1  0.87367037  0.84292718  0.90265537  1
  N  N63  1  0.79072555  0.77884236  0.61278982  1
  N  N64  1  0.55051429  0.87484119  0.38727004  1
  N  N65  1  0.46097187  0.77282230  0.11935149  1
  N  N66  1  0.21550523  0.87294860  0.84676595  1
  N  N67  1  0.07367695  0.77617601  0.64139273  1
  N  N68  1  0.88408358  0.87301023  0.33416837  1
  N  N69  1  0.74803489  0.76416431  0.13126080  1
  N  N70  1  0.58323529  0.85533188  0.90315333  1
  N  N71  1  0.45047374  0.76117648  0.64091707  1
