# generated using pymatgen
data_Al31B5N36
_symmetry_space_group_name_H-M   'P 1'
_cell_length_a   9.15647179
_cell_length_b   9.14035531
_cell_length_c   10.30254122
_cell_angle_alpha   90.13923421
_cell_angle_beta   89.54355929
_cell_angle_gamma   60.11345790
_symmetry_Int_Tables_number   1
_chemical_formula_structural   Al31B5N36
_chemical_formula_sum   'Al31 B5 N36'
_cell_volume   747.54269942
_cell_formula_units_Z   1
loop_
 _symmetry_equiv_pos_site_id
 _symmetry_equiv_pos_as_xyz
  1  'x, y, z'
loop_
 _atom_site_type_symbol
 _atom_site_label
 _atom_site_symmetry_multiplicity
 _atom_site_fract_x
 _atom_site_fract_y
 _atom_site_fract_z
 _atom_site_occupancy
  Al  Al0  1  0.11514678  0.09069583  0.39954223  1
  Al  Al1  1  0.21204544  0.20737995  0.13670327  1
  Al  Al2  1  0.88745542  0.19869591  0.61796939  1
  Al  Al3  1  0.45689621  0.07955761  0.31603196  1
  Al  Al4  1  0.57159939  0.19492268  0.05665672  1
  Al  Al5  1  0.09723471  0.09726747  0.88516693  1
  Al  Al6  1  0.21371129  0.21248780  0.64548429  1
  Al  Al7  1  0.78048260  0.10482431  0.31440155  1
  Al  Al8  1  0.46157644  0.08414012  0.81340226  1
  Al  Al9  1  0.56134022  0.19773990  0.56641213  1
  Al  Al10  1  0.10908949  0.42018781  0.39192836  1
  Al  Al11  1  0.23256432  0.53328346  0.06582896  1
  Al  Al12  1  0.77668436  0.42214055  0.88302698  1
  Al  Al13  1  0.88952895  0.55548566  0.64493738  1
  Al  Al14  1  0.44432076  0.41936469  0.31597426  1
  Al  Al15  1  0.56598681  0.53867423  0.13740026  1
  Al  Al16  1  0.09900465  0.43317322  0.89191871  1
  Al  Al17  1  0.21992919  0.55043605  0.57016184  1
  Al  Al18  1  0.77536723  0.43036522  0.40230762  1
  Al  Al19  1  0.88186284  0.53790234  0.14435857  1
  Al  Al20  1  0.44595854  0.41679721  0.81555044  1
  Al  Al21  1  0.55674133  0.54615163  0.64791207  1
  Al  Al22  1  0.10821031  0.76140287  0.33026820  1
  Al  Al23  1  0.22157354  0.88391415  0.13334115  1
  Al  Al24  1  0.43882128  0.75503348  0.39381344  1
  Al  Al25  1  0.09586247  0.77081914  0.88146575  1
  Al  Al26  1  0.21295866  0.87422116  0.65039306  1
  Al  Al27  1  0.78498351  0.76081911  0.38462599  1
  Al  Al28  1  0.87626993  0.87438501  0.11751471  1
  Al  Al29  1  0.45557250  0.76312482  0.88922665  1
  Al  Al30  1  0.55563263  0.87641114  0.58197653  1
  B  B31  1  0.77315225  0.07980029  0.80846655  1
  B  B32  1  0.88636399  0.20737902  0.09360664  1
  B  B33  1  0.77035716  0.77671109  0.85291701  1
  B  B34  1  0.89015374  0.86940089  0.61280439  1
  B  B35  1  0.56124490  0.86644120  0.10054005  1
  N  N36  1  0.22011882  0.20359949  0.32183404  1
  N  N37  1  0.07868422  0.11149271  0.07627523  1
  N  N38  1  0.87611211  0.19084950  0.82137467  1
  N  N39  1  0.78213146  0.06130139  0.64580469  1
  N  N40  1  0.55892129  0.19999402  0.37946038  1
  N  N41  1  0.46556146  0.06157765  0.12087771  1
  N  N42  1  0.21399772  0.20922697  0.83363613  1
  N  N43  1  0.12047776  0.08914106  0.58422538  1
  N  N44  1  0.88529737  0.20074153  0.39399425  1
  N  N45  1  0.79172238  0.11675868  0.12271448  1
  N  N46  1  0.58250514  0.18977991  0.87088948  1
  N  N47  1  0.44380175  0.09912342  0.63017311  1
  N  N48  1  0.22598838  0.54143811  0.37973138  1
  N  N49  1  0.10319720  0.42876814  0.07923142  1
  N  N50  1  0.87528989  0.57250440  0.83335193  1
  N  N51  1  0.77574567  0.44192084  0.58893302  1
  N  N52  1  0.56224252  0.53829991  0.32360289  1
  N  N53  1  0.44745831  0.41607794  0.12780751  1
  N  N54  1  0.22864155  0.53573303  0.87914290  1
  N  N55  1  0.10729055  0.42709401  0.57879000  1
  N  N56  1  0.88998236  0.53434739  0.32953238  1
  N  N57  1  0.79246246  0.39918647  0.07435770  1
  N  N58  1  0.55553157  0.54112854  0.83453721  1
  N  N59  1  0.44408345  0.42297754  0.62935509  1
  N  N60  1  0.22473965  0.87599396  0.31888569  1
  N  N61  1  0.11196379  0.76426416  0.08964988  1
  N  N62  1  0.85833533  0.88212719  0.86522623  1
  N  N63  1  0.79906271  0.77551962  0.57573531  1
  N  N64  1  0.55320073  0.87282495  0.39042712  1
  N  N65  1  0.45651174  0.77627119  0.07899450  1
  N  N66  1  0.22572869  0.87161795  0.83672648  1
  N  N67  1  0.07610959  0.78074712  0.61075713  1
  N  N68  1  0.88353716  0.87236190  0.31007788  1
  N  N69  1  0.74273386  0.76894220  0.10511315  1
  N  N70  1  0.58794358  0.85352439  0.83266447  1
  N  N71  1  0.43128376  0.75768892  0.58037976  1
