# generated using pymatgen
data_Al31B5N36
_symmetry_space_group_name_H-M   'P 1'
_cell_length_a   9.18945444
_cell_length_b   9.24489191
_cell_length_c   10.13786914
_cell_angle_alpha   90.15389972
_cell_angle_beta   89.57332605
_cell_angle_gamma   59.78693908
_symmetry_Int_Tables_number   1
_chemical_formula_structural   Al31B5N36
_chemical_formula_sum   'Al31 B5 N36'
_cell_volume   744.23208053
_cell_formula_units_Z   1
loop_
 _symmetry_equiv_pos_site_id
 _symmetry_equiv_pos_as_xyz
  1  'x, y, z'
loop_
 _atom_site_type_symbol
 _atom_site_label
 _atom_site_symmetry_multiplicity
 _atom_site_fract_x
 _atom_site_fract_y
 _atom_site_fract_z
 _atom_site_occupancy
  Al  Al0  1  0.11949348  0.09099056  0.39743108  1
  Al  Al1  1  0.21944276  0.20177991  0.12607954  1
  Al  Al2  1  0.88640393  0.20180295  0.59278656  1
  Al  Al3  1  0.45617732  0.08471539  0.31213759  1
  Al  Al4  1  0.57511368  0.19845023  0.06074199  1
  Al  Al5  1  0.08926874  0.10188972  0.89068836  1
  Al  Al6  1  0.22149176  0.20101438  0.65061215  1
  Al  Al7  1  0.78267898  0.09563354  0.32049652  1
  Al  Al8  1  0.46866846  0.08004008  0.82927621  1
  Al  Al9  1  0.55761458  0.19724931  0.57092479  1
  Al  Al10  1  0.10818982  0.43342999  0.31790132  1
  Al  Al11  1  0.22781026  0.53438738  0.06479950  1
  Al  Al12  1  0.76899622  0.43792958  0.81353585  1
  Al  Al13  1  0.88851361  0.55037895  0.56881585  1
  Al  Al14  1  0.44386380  0.42391754  0.32128533  1
  Al  Al15  1  0.56227354  0.53106868  0.07411226  1
  Al  Al16  1  0.10060343  0.44034136  0.82538226  1
  Al  Al17  1  0.21118822  0.54823504  0.57336439  1
  Al  Al18  1  0.78389763  0.41775746  0.32714698  1
  Al  Al19  1  0.88243877  0.53710446  0.07342767  1
  Al  Al20  1  0.44835071  0.42738077  0.81507643  1
  Al  Al21  1  0.55319942  0.54309774  0.56793360  1
  Al  Al22  1  0.10818301  0.75739537  0.31298860  1
  Al  Al23  1  0.21752678  0.88399265  0.13096580  1
  Al  Al24  1  0.44813399  0.76181342  0.32740794  1
  Al  Al25  1  0.09132395  0.76123265  0.83860639  1
  Al  Al26  1  0.21705087  0.87572852  0.65314251  1
  Al  Al27  1  0.77063051  0.76111671  0.31956042  1
  Al  Al28  1  0.88504842  0.87085639  0.09257145  1
  Al  Al29  1  0.44823509  0.76306080  0.86121798  1
  Al  Al30  1  0.56114784  0.87251580  0.57394821  1
  B  B31  1  0.75683959  0.13499906  0.79919400  1
  B  B32  1  0.88699470  0.20677518  0.10704838  1
  B  B33  1  0.77957216  0.75813281  0.88264544  1
  B  B34  1  0.88107288  0.86914823  0.62814390  1
  B  B35  1  0.56526034  0.86583407  0.07073062  1
  N  N36  1  0.22190773  0.20075018  0.32069063  1
  N  N37  1  0.07649391  0.11366661  0.08061577  1
  N  N38  1  0.86790184  0.20249135  0.83206118  1
  N  N39  1  0.78261038  0.06996774  0.65123277  1
  N  N40  1  0.55675941  0.20169153  0.38205103  1
  N  N41  1  0.46956602  0.06653523  0.11488403  1
  N  N42  1  0.21915342  0.20278187  0.84720075  1
  N  N43  1  0.12211785  0.08808043  0.58466999  1
  N  N44  1  0.88247215  0.20491606  0.39701278  1
  N  N45  1  0.79590125  0.11247227  0.12641743  1
  N  N46  1  0.58564025  0.19724170  0.86929079  1
  N  N47  1  0.45270515  0.08883867  0.64127112  1
  N  N48  1  0.21985511  0.54131659  0.38470264  1
  N  N49  1  0.10616994  0.43657220  0.12578348  1
  N  N50  1  0.86986246  0.56113505  0.88346112  1
  N  N51  1  0.77544518  0.43761653  0.62777657  1
  N  N52  1  0.55455909  0.53809654  0.37639463  1
  N  N53  1  0.44823188  0.41931840  0.13148352  1
  N  N54  1  0.22878459  0.53211712  0.87944153  1
  N  N55  1  0.10666447  0.43282128  0.63552157  1
  N  N56  1  0.88731469  0.53784300  0.37927681  1
  N  N57  1  0.79453371  0.39650388  0.13155679  1
  N  N58  1  0.55497083  0.53510417  0.88789972  1
  N  N59  1  0.44394631  0.42790187  0.62784655  1
  N  N60  1  0.21824244  0.87924402  0.32394925  1
  N  N61  1  0.11994544  0.75273751  0.12015697  1
  N  N62  1  0.87595076  0.84173330  0.90361279  1
  N  N63  1  0.79166305  0.77933393  0.61129930  1
  N  N64  1  0.55122013  0.87461422  0.38643798  1
  N  N65  1  0.45784537  0.77381190  0.10768831  1
  N  N66  1  0.21330772  0.87638707  0.84637984  1
  N  N67  1  0.07485816  0.77702383  0.64146200  1
  N  N68  1  0.88371710  0.87241246  0.33060688  1
  N  N69  1  0.74705452  0.76373633  0.13037689  1
  N  N70  1  0.58491932  0.85835446  0.90289523  1
  N  N71  1  0.44909885  0.76012387  0.63220026  1
