# generated using pymatgen
data_Al31B5N36
_symmetry_space_group_name_H-M   'P 1'
_cell_length_a   9.16990579
_cell_length_b   9.16092886
_cell_length_c   10.03632061
_cell_angle_alpha   89.94867751
_cell_angle_beta   89.75275326
_cell_angle_gamma   60.19265124
_symmetry_Int_Tables_number   1
_chemical_formula_structural   Al31B5N36
_chemical_formula_sum   'Al31 B5 N36'
_cell_volume   731.55143715
_cell_formula_units_Z   1
loop_
 _symmetry_equiv_pos_site_id
 _symmetry_equiv_pos_as_xyz
  1  'x, y, z'
loop_
 _atom_site_type_symbol
 _atom_site_label
 _atom_site_symmetry_multiplicity
 _atom_site_fract_x
 _atom_site_fract_y
 _atom_site_fract_z
 _atom_site_occupancy
  Al  Al0  1  0.11202169  0.09619226  0.39977676  1
  Al  Al1  1  0.21019008  0.20720542  0.14364041  1
  Al  Al2  1  0.88605335  0.19105617  0.65063154  1
  Al  Al3  1  0.45186613  0.09025580  0.31727945  1
  Al  Al4  1  0.56988455  0.19501755  0.08234080  1
  Al  Al5  1  0.09489800  0.09140759  0.90775383  1
  Al  Al6  1  0.21346963  0.20868435  0.65646161  1
  Al  Al7  1  0.78097509  0.09549296  0.33551444  1
  Al  Al8  1  0.45025900  0.09297386  0.84818843  1
  Al  Al9  1  0.56309669  0.18823193  0.57591499  1
  Al  Al10  1  0.11104661  0.42617522  0.40080336  1
  Al  Al11  1  0.22175368  0.53974567  0.15272853  1
  Al  Al12  1  0.77684760  0.41876342  0.90534595  1
  Al  Al13  1  0.88736992  0.54841654  0.65779316  1
  Al  Al14  1  0.44152783  0.43332868  0.40090384  1
  Al  Al15  1  0.56114920  0.53449851  0.15255317  1
  Al  Al16  1  0.09997600  0.43724995  0.90411305  1
  Al  Al17  1  0.21649941  0.54132124  0.65008561  1
  Al  Al18  1  0.78137943  0.42612910  0.40133138  1
  Al  Al19  1  0.88083468  0.54078207  0.14835885  1
  Al  Al20  1  0.44322182  0.43173134  0.89822655  1
  Al  Al21  1  0.55744147  0.53813221  0.65307537  1
  Al  Al22  1  0.10607415  0.76394972  0.39619986  1
  Al  Al23  1  0.22011051  0.87674382  0.15338592  1
  Al  Al24  1  0.44866252  0.76165991  0.39703276  1
  Al  Al25  1  0.09884914  0.76674077  0.90060518  1
  Al  Al26  1  0.21940546  0.87377468  0.65050368  1
  Al  Al27  1  0.77988829  0.76267086  0.39078856  1
  Al  Al28  1  0.88486173  0.87629230  0.12890584  1
  Al  Al29  1  0.45082909  0.76293891  0.90709754  1
  Al  Al30  1  0.57195888  0.86624520  0.65711709  1
  B  B31  1  0.77311040  0.08009069  0.87199560  1
  B  B32  1  0.88845990  0.20912106  0.15909767  1
  B  B33  1  0.75628867  0.78246335  0.91770627  1
  B  B34  1  0.88854003  0.87470929  0.59906576  1
  B  B35  1  0.55853150  0.86304099  0.14681316  1
  N  N36  1  0.22184817  0.20641544  0.33607482  1
  N  N37  1  0.08161853  0.10554611  0.09766209  1
  N  N38  1  0.86982716  0.18058439  0.84279492  1
  N  N39  1  0.79762577  0.05793297  0.59159986  1
  N  N40  1  0.55549558  0.20004029  0.38465980  1
  N  N41  1  0.45564433  0.07165478  0.12138562  1
  N  N42  1  0.20629232  0.20929588  0.85051045  1
  N  N43  1  0.10859572  0.09506689  0.58958240  1
  N  N44  1  0.89767849  0.21291623  0.32523714  1
  N  N45  1  0.78603213  0.11330812  0.14049396  1
  N  N46  1  0.58376372  0.18980864  0.88846159  1
  N  N47  1  0.44470197  0.09676081  0.64951148  1
  N  N48  1  0.22217071  0.53930769  0.34181855  1
  N  N49  1  0.10679436  0.43281724  0.09120418  1
  N  N50  1  0.87241813  0.56337302  0.85095610  1
  N  N51  1  0.78213498  0.42286152  0.59438349  1
  N  N52  1  0.55847450  0.53674396  0.34067753  1
  N  N53  1  0.44144473  0.43107486  0.08937330  1
  N  N54  1  0.21875757  0.54024791  0.83809556  1
  N  N55  1  0.10781279  0.42790794  0.59112033  1
  N  N56  1  0.88934635  0.53934313  0.33840255  1
  N  N57  1  0.79045827  0.40137088  0.09645549  1
  N  N58  1  0.55606672  0.54059139  0.84246694  1
  N  N59  1  0.44301873  0.43049603  0.59262842  1
  N  N60  1  0.22401636  0.87164991  0.34284394  1
  N  N61  1  0.11666498  0.75903584  0.08841789  1
  N  N62  1  0.85618207  0.89217537  0.88820520  1
  N  N63  1  0.79274063  0.77484869  0.58451587  1
  N  N64  1  0.56564182  0.85770179  0.31493253  1
  N  N65  1  0.45497620  0.77246103  0.09760093  1
  N  N66  1  0.22390922  0.87026850  0.84128518  1
  N  N67  1  0.08407985  0.77393793  0.59175548  1
  N  N68  1  0.89405222  0.86288953  0.32405847  1
  N  N69  1  0.74748516  0.77202837  0.08059739  1
  N  N70  1  0.58235054  0.85671651  0.84904759  1
  N  N71  1  0.45008915  0.76324399  0.58942457  1
