# generated using pymatgen
data_Al31B5N36
_symmetry_space_group_name_H-M   'P 1'
_cell_length_a   9.19564540
_cell_length_b   9.23112440
_cell_length_c   10.09685890
_cell_angle_alpha   90.09210551
_cell_angle_beta   89.49340742
_cell_angle_gamma   59.71753796
_symmetry_Int_Tables_number   1
_chemical_formula_structural   Al31B5N36
_chemical_formula_sum   'Al31 B5 N36'
_cell_volume   740.08716868
_cell_formula_units_Z   1
loop_
 _symmetry_equiv_pos_site_id
 _symmetry_equiv_pos_as_xyz
  1  'x, y, z'
loop_
 _atom_site_type_symbol
 _atom_site_label
 _atom_site_symmetry_multiplicity
 _atom_site_fract_x
 _atom_site_fract_y
 _atom_site_fract_z
 _atom_site_occupancy
  Al  Al0  1  0.11411450  0.08642964  0.39783330  1
  Al  Al1  1  0.22600524  0.20442114  0.07167949  1
  Al  Al2  1  0.88454203  0.20281181  0.59549353  1
  Al  Al3  1  0.44946300  0.08873757  0.31492607  1
  Al  Al4  1  0.57455743  0.19970911  0.06261856  1
  Al  Al5  1  0.08932456  0.09808275  0.88811618  1
  Al  Al6  1  0.22852421  0.20754370  0.57840527  1
  Al  Al7  1  0.78089562  0.09634073  0.32114315  1
  Al  Al8  1  0.46244656  0.08240113  0.82826633  1
  Al  Al9  1  0.55838371  0.19816921  0.57157958  1
  Al  Al10  1  0.11144802  0.42766298  0.32083437  1
  Al  Al11  1  0.22787171  0.53352720  0.06675803  1
  Al  Al12  1  0.77090673  0.43586342  0.81563733  1
  Al  Al13  1  0.88817106  0.55043071  0.56964625  1
  Al  Al14  1  0.44393361  0.42634532  0.32239546  1
  Al  Al15  1  0.56117717  0.53472167  0.07236105  1
  Al  Al16  1  0.10692163  0.42966935  0.82258014  1
  Al  Al17  1  0.21060031  0.54957470  0.57353606  1
  Al  Al18  1  0.78222858  0.41977638  0.32787396  1
  Al  Al19  1  0.88501315  0.53532180  0.07618771  1
  Al  Al20  1  0.44834628  0.42722947  0.81636980  1
  Al  Al21  1  0.55256106  0.54560436  0.56766493  1
  Al  Al22  1  0.10807300  0.75775156  0.31333254  1
  Al  Al23  1  0.21690520  0.88455293  0.12903421  1
  Al  Al24  1  0.45206248  0.76271896  0.31498750  1
  Al  Al25  1  0.09137276  0.75873960  0.84060057  1
  Al  Al26  1  0.21264952  0.87754614  0.65427805  1
  Al  Al27  1  0.77092052  0.76241904  0.32187845  1
  Al  Al28  1  0.88363425  0.87209429  0.09187563  1
  Al  Al29  1  0.45462479  0.75933358  0.83507862  1
  Al  Al30  1  0.56116325  0.87387391  0.57399350  1
  B  B31  1  0.75634462  0.13201221  0.80068536  1
  B  B32  1  0.88710960  0.20722295  0.10840403  1
  B  B33  1  0.77913768  0.75711266  0.88318596  1
  B  B34  1  0.88008718  0.86921959  0.62842017  1
  B  B35  1  0.56477140  0.86257609  0.07240295  1
  N  N36  1  0.22713565  0.20690989  0.37833142  1
  N  N37  1  0.07558355  0.11423746  0.08305026  1
  N  N38  1  0.86761766  0.20064996  0.83214252  1
  N  N39  1  0.78138751  0.06923270  0.65158488  1
  N  N40  1  0.55618073  0.20302213  0.38203256  1
  N  N41  1  0.46463337  0.06882756  0.11927460  1
  N  N42  1  0.22520920  0.20258202  0.88173428  1
  N  N43  1  0.11806954  0.08756072  0.58878269  1
  N  N44  1  0.87954161  0.20649629  0.39761162  1
  N  N45  1  0.79527354  0.11271701  0.12701474  1
  N  N46  1  0.58440284  0.19621471  0.86993636  1
  N  N47  1  0.44712890  0.09271120  0.64104131  1
  N  N48  1  0.21956129  0.54215121  0.38467255  1
  N  N49  1  0.11174191  0.42803953  0.13138778  1
  N  N50  1  0.87369136  0.55805727  0.88462454  1
  N  N51  1  0.77416788  0.43912863  0.62887903  1
  N  N52  1  0.55297023  0.54238610  0.37746845  1
  N  N53  1  0.44862465  0.42166082  0.13155627  1
  N  N54  1  0.22826210  0.52921118  0.88016170  1
  N  N55  1  0.10837012  0.42985301  0.63532619  1
  N  N56  1  0.88782057  0.53796546  0.37937965  1
  N  N57  1  0.79329772  0.39761053  0.13166806  1
  N  N58  1  0.55459730  0.53713399  0.88642201  1
  N  N59  1  0.44343481  0.43010610  0.62815634  1
  N  N60  1  0.21991617  0.87793167  0.32301091  1
  N  N61  1  0.11804074  0.75320570  0.11935117  1
  N  N62  1  0.87356795  0.84337937  0.90263661  1
  N  N63  1  0.79052362  0.77917241  0.61316877  1
  N  N64  1  0.55048866  0.87468152  0.38738795  1
  N  N65  1  0.46137893  0.77216614  0.11925461  1
  N  N66  1  0.21567583  0.87243017  0.84776663  1
  N  N67  1  0.07374408  0.77652506  0.64207778  1
  N  N68  1  0.88424589  0.87311951  0.33458868  1
  N  N69  1  0.74826060  0.76411500  0.13126360  1
  N  N70  1  0.58274089  0.85633205  0.90347865  1
  N  N71  1  0.45050994  0.76141817  0.64144616  1
