# generated using pymatgen
data_Al31B5N36
_symmetry_space_group_name_H-M   'P 1'
_cell_length_a   9.16789798
_cell_length_b   9.14808264
_cell_length_c   10.18724862
_cell_angle_alpha   90.10334959
_cell_angle_beta   89.47284377
_cell_angle_gamma   60.01697663
_symmetry_Int_Tables_number   1
_chemical_formula_structural   Al31B5N36
_chemical_formula_sum   'Al31 B5 N36'
_cell_volume   739.99947604
_cell_formula_units_Z   1
loop_
 _symmetry_equiv_pos_site_id
 _symmetry_equiv_pos_as_xyz
  1  'x, y, z'
loop_
 _atom_site_type_symbol
 _atom_site_label
 _atom_site_symmetry_multiplicity
 _atom_site_fract_x
 _atom_site_fract_y
 _atom_site_fract_z
 _atom_site_occupancy
  Al  Al0  1  0.11537733  0.09327737  0.39703207  1
  Al  Al1  1  0.21184492  0.20603739  0.13223999  1
  Al  Al2  1  0.88757014  0.19990169  0.61452506  1
  Al  Al3  1  0.45474535  0.08217012  0.31390688  1
  Al  Al4  1  0.57402408  0.19013426  0.05666957  1
  Al  Al5  1  0.09740388  0.09520083  0.88366119  1
  Al  Al6  1  0.21354200  0.21316039  0.64514406  1
  Al  Al7  1  0.78073597  0.10513207  0.31482975  1
  Al  Al8  1  0.46134768  0.08451649  0.81419297  1
  Al  Al9  1  0.56341783  0.19362855  0.56625948  1
  Al  Al10  1  0.11146860  0.42453364  0.38924154  1
  Al  Al11  1  0.22132864  0.53853009  0.13910049  1
  Al  Al12  1  0.77994861  0.42095630  0.88036868  1
  Al  Al13  1  0.88832031  0.55414153  0.64267061  1
  Al  Al14  1  0.44401931  0.42950247  0.37474043  1
  Al  Al15  1  0.56179257  0.53347053  0.13393562  1
  Al  Al16  1  0.10344751  0.43800140  0.89235716  1
  Al  Al17  1  0.21616067  0.54406281  0.63722117  1
  Al  Al18  1  0.77640758  0.43121738  0.40026086  1
  Al  Al19  1  0.88000306  0.53779209  0.14147990  1
  Al  Al20  1  0.44754762  0.42299980  0.86654096  1
  Al  Al21  1  0.55464775  0.54310466  0.64591316  1
  Al  Al22  1  0.10215999  0.76897876  0.38811098  1
  Al  Al23  1  0.21680231  0.87794918  0.13783053  1
  Al  Al24  1  0.43935173  0.75793489  0.39176623  1
  Al  Al25  1  0.09855558  0.76600275  0.88888556  1
  Al  Al26  1  0.21509401  0.87467761  0.64613270  1
  Al  Al27  1  0.78302664  0.76194600  0.37972363  1
  Al  Al28  1  0.88344891  0.86971154  0.12774990  1
  Al  Al29  1  0.45456189  0.76459833  0.88817528  1
  Al  Al30  1  0.55641253  0.87576321  0.58434817  1
  B  B31  1  0.77552147  0.07643496  0.80270122  1
  B  B32  1  0.88704691  0.20534891  0.09365854  1
  B  B33  1  0.77263325  0.77512939  0.84675642  1
  B  B34  1  0.88756562  0.86975713  0.60893368  1
  B  B35  1  0.56060074  0.86683353  0.10100549  1
  N  N36  1  0.21888325  0.20543000  0.32006946  1
  N  N37  1  0.07881716  0.10817362  0.07725868  1
  N  N38  1  0.87698641  0.18982378  0.81829210  1
  N  N39  1  0.78472277  0.06055908  0.63975371  1
  N  N40  1  0.56025609  0.19658779  0.37643145  1
  N  N41  1  0.46418812  0.06213356  0.11803931  1
  N  N42  1  0.21391622  0.20995493  0.83628173  1
  N  N43  1  0.12073518  0.09087983  0.58345206  1
  N  N44  1  0.88511403  0.20189094  0.39382596  1
  N  N45  1  0.79287250  0.11403139  0.12293073  1
  N  N46  1  0.58779285  0.18419665  0.86718602  1
  N  N47  1  0.44295559  0.10017787  0.62972313  1
  N  N48  1  0.21884818  0.54206359  0.32880726  1
  N  N49  1  0.10523691  0.43209639  0.07800907  1
  N  N50  1  0.87620623  0.57082263  0.83299196  1
  N  N51  1  0.77546642  0.44251884  0.58835435  1
  N  N52  1  0.56048443  0.53760772  0.32196421  1
  N  N53  1  0.44394232  0.42426103  0.08070080  1
  N  N54  1  0.21887664  0.54119349  0.82399345  1
  N  N55  1  0.10929587  0.42968911  0.57660609  1
  N  N56  1  0.88977700  0.53446957  0.32850893  1
  N  N57  1  0.79336069  0.39726803  0.07388973  1
  N  N58  1  0.55660612  0.54101382  0.83222495  1
  N  N59  1  0.44610952  0.42861782  0.58972766  1
  N  N60  1  0.22071627  0.87330188  0.32506555  1
  N  N61  1  0.11150649  0.75978231  0.07507366  1
  N  N62  1  0.86391007  0.87606248  0.84838841  1
  N  N63  1  0.79938373  0.77470994  0.57465491  1
  N  N64  1  0.55251712  0.87506097  0.38878853  1
  N  N65  1  0.45566765  0.77653414  0.08036770  1
  N  N66  1  0.22450398  0.86940344  0.83287187  1
  N  N67  1  0.08008931  0.78015370  0.58189605  1
  N  N68  1  0.89054498  0.87133300  0.31662938  1
  N  N69  1  0.74296139  0.77187164  0.10784139  1
  N  N70  1  0.58886768  0.85238429  0.82928302  1
  N  N71  1  0.43407731  0.75788568  0.58037442  1
