# generated using pymatgen
data_Al31B5N36
_symmetry_space_group_name_H-M   'P 1'
_cell_length_a   9.13492749
_cell_length_b   9.15827093
_cell_length_c   10.39141730
_cell_angle_alpha   90.42451770
_cell_angle_beta   89.71215675
_cell_angle_gamma   59.97459906
_symmetry_Int_Tables_number   1
_chemical_formula_structural   Al31B5N36
_chemical_formula_sum   'Al31 B5 N36'
_cell_volume   752.62525003
_cell_formula_units_Z   1
loop_
 _symmetry_equiv_pos_site_id
 _symmetry_equiv_pos_as_xyz
  1  'x, y, z'
loop_
 _atom_site_type_symbol
 _atom_site_label
 _atom_site_symmetry_multiplicity
 _atom_site_fract_x
 _atom_site_fract_y
 _atom_site_fract_z
 _atom_site_occupancy
  Al  Al0  1  0.11699473  0.09109547  0.39866486  1
  Al  Al1  1  0.21080313  0.20954496  0.13682808  1
  Al  Al2  1  0.88701352  0.19413570  0.59995658  1
  Al  Al3  1  0.45496668  0.08285255  0.31611578  1
  Al  Al4  1  0.57119951  0.19492056  0.05997927  1
  Al  Al5  1  0.09222185  0.09430686  0.89059172  1
  Al  Al6  1  0.20973081  0.21281607  0.64747440  1
  Al  Al7  1  0.77843160  0.10245564  0.32042697  1
  Al  Al8  1  0.45794216  0.08684660  0.81508971  1
  Al  Al9  1  0.55797190  0.19671967  0.56663741  1
  Al  Al10  1  0.10882459  0.42324685  0.39322836  1
  Al  Al11  1  0.23157677  0.53901839  0.06210375  1
  Al  Al12  1  0.77324231  0.42272789  0.81563181  1
  Al  Al13  1  0.89164039  0.55634989  0.64378399  1
  Al  Al14  1  0.44377076  0.42543590  0.31694209  1
  Al  Al15  1  0.57000788  0.52681578  0.07143759  1
  Al  Al16  1  0.09742910  0.43358659  0.89282887  1
  Al  Al17  1  0.21961291  0.55019823  0.57095536  1
  Al  Al18  1  0.78148930  0.41745766  0.33017549  1
  Al  Al19  1  0.88477624  0.54575473  0.14503318  1
  Al  Al20  1  0.45159309  0.42180883  0.81642880  1
  Al  Al21  1  0.56150971  0.52802276  0.56812070  1
  Al  Al22  1  0.11283442  0.75533979  0.30879373  1
  Al  Al23  1  0.22643016  0.88269824  0.13590734  1
  Al  Al24  1  0.43519826  0.76544526  0.39593508  1
  Al  Al25  1  0.09156977  0.76308572  0.82922635  1
  Al  Al26  1  0.21978676  0.87553488  0.65234609  1
  Al  Al27  1  0.78447424  0.76478201  0.38891362  1
  Al  Al28  1  0.87952731  0.87499754  0.11854522  1
  Al  Al29  1  0.45477511  0.76557584  0.88845250  1
  Al  Al30  1  0.55559866  0.87745781  0.58738092  1
  B  B31  1  0.77273471  0.08265584  0.81929281  1
  B  B32  1  0.88794663  0.20626092  0.10757433  1
  B  B33  1  0.76918179  0.77815014  0.85258661  1
  B  B34  1  0.88567407  0.87226042  0.61653348  1
  B  B35  1  0.56152676  0.86848614  0.10172902  1
  N  N36  1  0.21634282  0.20781532  0.32095514  1
  N  N37  1  0.07931742  0.11029174  0.07956269  1
  N  N38  1  0.87335739  0.18189973  0.82964056  1
  N  N39  1  0.78213589  0.06146101  0.63727290  1
  N  N40  1  0.55404683  0.20438829  0.38059625  1
  N  N41  1  0.46472972  0.06422234  0.12282306  1
  N  N42  1  0.20712940  0.20925272  0.83405390  1
  N  N43  1  0.12177318  0.08632166  0.58157498  1
  N  N44  1  0.88201693  0.20573366  0.39989474  1
  N  N45  1  0.79227686  0.11458527  0.12789071  1
  N  N46  1  0.57965670  0.19109834  0.87341414  1
  N  N47  1  0.44085258  0.10116027  0.63349289  1
  N  N48  1  0.22408481  0.54638794  0.38484151  1
  N  N49  1  0.10446034  0.42984954  0.07690837  1
  N  N50  1  0.87670375  0.57749051  0.83080015  1
  N  N51  1  0.77750251  0.43207298  0.63298125  1
  N  N52  1  0.55809990  0.53143162  0.38062481  1
  N  N53  1  0.44853636  0.42036972  0.13068783  1
  N  N54  1  0.22825270  0.53765479  0.87791401  1
  N  N55  1  0.10792191  0.42571875  0.57804427  1
  N  N56  1  0.89081751  0.54206160  0.33027260  1
  N  N57  1  0.79510639  0.39469508  0.13407964  1
  N  N58  1  0.56076424  0.53018492  0.88880004  1
  N  N59  1  0.44609010  0.42406928  0.63255860  1
  N  N60  1  0.22532838  0.87830831  0.32064419  1
  N  N61  1  0.11796812  0.75627044  0.11989735  1
  N  N62  1  0.85646360  0.88428391  0.86566864  1
  N  N63  1  0.79956512  0.77533066  0.57819665  1
  N  N64  1  0.55211690  0.87857476  0.39350671  1
  N  N65  1  0.45827297  0.77972353  0.08037051  1
  N  N66  1  0.22649455  0.86941276  0.83676641  1
  N  N67  1  0.07727928  0.77513302  0.63666094  1
  N  N68  1  0.88332742  0.87408792  0.31674984  1
  N  N69  1  0.74413328  0.77285522  0.10350412  1
  N  N70  1  0.58629970  0.85437253  0.83026377  1
  N  N71  1  0.43485326  0.75906952  0.58437008  1
