# generated using pymatgen
data_Al31B5N36
_symmetry_space_group_name_H-M   'P 1'
_cell_length_a   9.17452111
_cell_length_b   9.21832636
_cell_length_c   9.95904130
_cell_angle_alpha   89.39912859
_cell_angle_beta   89.80449547
_cell_angle_gamma   60.24852797
_symmetry_Int_Tables_number   1
_chemical_formula_structural   Al31B5N36
_chemical_formula_sum   'Al31 B5 N36'
_cell_volume   731.20814584
_cell_formula_units_Z   1
loop_
 _symmetry_equiv_pos_site_id
 _symmetry_equiv_pos_as_xyz
  1  'x, y, z'
loop_
 _atom_site_type_symbol
 _atom_site_label
 _atom_site_symmetry_multiplicity
 _atom_site_fract_x
 _atom_site_fract_y
 _atom_site_fract_z
 _atom_site_occupancy
  Al  Al0  1  0.10989677  0.09630183  0.40022499  1
  Al  Al1  1  0.21539760  0.20480743  0.14996527  1
  Al  Al2  1  0.88742360  0.18949680  0.64884384  1
  Al  Al3  1  0.44337377  0.08722947  0.38782278  1
  Al  Al4  1  0.56342814  0.20335485  0.11194554  1
  Al  Al5  1  0.09756957  0.09120497  0.90452170  1
  Al  Al6  1  0.22488126  0.20058596  0.65138609  1
  Al  Al7  1  0.78385776  0.09455950  0.33985762  1
  Al  Al8  1  0.44871718  0.08823087  0.90636575  1
  Al  Al9  1  0.56792199  0.19269254  0.57752112  1
  Al  Al10  1  0.10880024  0.42786182  0.39790947  1
  Al  Al11  1  0.21925291  0.54124453  0.15086499  1
  Al  Al12  1  0.77902411  0.40979322  0.90293971  1
  Al  Al13  1  0.89220796  0.53539901  0.65495307  1
  Al  Al14  1  0.44026825  0.43628741  0.39769872  1
  Al  Al15  1  0.56015746  0.53856832  0.15058523  1
  Al  Al16  1  0.10673925  0.42450397  0.89899425  1
  Al  Al17  1  0.21575295  0.53943347  0.64931324  1
  Al  Al18  1  0.78013210  0.42709677  0.39677943  1
  Al  Al19  1  0.88132173  0.54126706  0.13997003  1
  Al  Al20  1  0.44327767  0.42932568  0.89867003  1
  Al  Al21  1  0.55916360  0.53632742  0.65246643  1
  Al  Al22  1  0.10659902  0.76335042  0.39543569  1
  Al  Al23  1  0.21925445  0.87894974  0.15179935  1
  Al  Al24  1  0.44818544  0.76247186  0.39699867  1
  Al  Al25  1  0.09698560  0.76593277  0.90049754  1
  Al  Al26  1  0.22064066  0.87158141  0.65071369  1
  Al  Al27  1  0.77871964  0.76256757  0.38857277  1
  Al  Al28  1  0.88565657  0.88116333  0.13103789  1
  Al  Al29  1  0.45289974  0.76117666  0.90544962  1
  Al  Al30  1  0.57362062  0.86987778  0.65549059  1
  B  B31  1  0.76657378  0.08873870  0.87293847  1
  B  B32  1  0.88846281  0.21117515  0.15886954  1
  B  B33  1  0.73780096  0.82531947  0.92987857  1
  B  B34  1  0.89047915  0.87006235  0.59700659  1
  B  B35  1  0.54999869  0.87423339  0.15046022  1
  N  N36  1  0.22092339  0.20684154  0.33831752  1
  N  N37  1  0.08290516  0.10832951  0.09649498  1
  N  N38  1  0.86879547  0.17816328  0.84173323  1
  N  N39  1  0.80041849  0.05450476  0.58653117  1
  N  N40  1  0.55474350  0.20787906  0.37051965  1
  N  N41  1  0.45152450  0.07136812  0.10078876  1
  N  N42  1  0.22630883  0.19501320  0.84427744  1
  N  N43  1  0.10984250  0.09288621  0.59099064  1
  N  N44  1  0.89742273  0.21428600  0.32449197  1
  N  N45  1  0.78844573  0.11442316  0.13987820  1
  N  N46  1  0.57913690  0.19296017  0.88293715  1
  N  N47  1  0.44517505  0.08392338  0.58536404  1
  N  N48  1  0.21984095  0.54149171  0.34083038  1
  N  N49  1  0.11001692  0.42895855  0.08921179  1
  N  N50  1  0.89140735  0.51624632  0.83965238  1
  N  N51  1  0.78064425  0.41841349  0.58820397  1
  N  N52  1  0.55602554  0.54153201  0.33940253  1
  N  N53  1  0.43988970  0.43443973  0.09130582  1
  N  N54  1  0.21643062  0.54073967  0.83860530  1
  N  N55  1  0.11272521  0.42250726  0.58799050  1
  N  N56  1  0.88667831  0.54238845  0.33303055  1
  N  N57  1  0.78844428  0.40272934  0.09607813  1
  N  N58  1  0.55533089  0.54044631  0.84324488  1
  N  N59  1  0.44333458  0.42925338  0.59205507  1
  N  N60  1  0.22270190  0.87324779  0.34312878  1
  N  N61  1  0.11542108  0.76080735  0.08899512  1
  N  N62  1  0.84936468  0.90072033  0.89237510  1
  N  N63  1  0.79676188  0.76911947  0.58530427  1
  N  N64  1  0.55810264  0.87005148  0.31553348  1
  N  N65  1  0.45419235  0.77593804  0.09763608  1
  N  N66  1  0.22324262  0.86892140  0.84235080  1
  N  N67  1  0.08520178  0.77211506  0.59199604  1
  N  N68  1  0.89327528  0.86411038  0.32533340  1
  N  N69  1  0.74410866  0.78208649  0.08120542  1
  N  N70  1  0.58211934  0.86520871  0.84892004  1
  N  N71  1  0.45212731  0.76138732  0.59202521  1
