# generated using pymatgen
data_Al31B5N36
_symmetry_space_group_name_H-M   'P 1'
_cell_length_a   9.19943648
_cell_length_b   9.24151947
_cell_length_c   10.08983865
_cell_angle_alpha   90.08006952
_cell_angle_beta   89.48766654
_cell_angle_gamma   59.76582955
_symmetry_Int_Tables_number   1
_chemical_formula_structural   Al31B5N36
_chemical_formula_sum   'Al31 B5 N36'
_cell_volume   741.07530369
_cell_formula_units_Z   1
loop_
 _symmetry_equiv_pos_site_id
 _symmetry_equiv_pos_as_xyz
  1  'x, y, z'
loop_
 _atom_site_type_symbol
 _atom_site_label
 _atom_site_symmetry_multiplicity
 _atom_site_fract_x
 _atom_site_fract_y
 _atom_site_fract_z
 _atom_site_occupancy
  Al  Al0  1  0.11925485  0.09030445  0.39586664  1
  Al  Al1  1  0.22203176  0.20222492  0.11151966  1
  Al  Al2  1  0.88521137  0.20246781  0.59331500  1
  Al  Al3  1  0.45366034  0.08603380  0.31173260  1
  Al  Al4  1  0.57557465  0.19992756  0.06197934  1
  Al  Al5  1  0.08982419  0.09865118  0.89041545  1
  Al  Al6  1  0.22255737  0.20118801  0.64677532  1
  Al  Al7  1  0.78198838  0.09604630  0.32164379  1
  Al  Al8  1  0.46859325  0.07939179  0.83343235  1
  Al  Al9  1  0.55699813  0.19819310  0.57135938  1
  Al  Al10  1  0.10947359  0.43065471  0.31676544  1
  Al  Al11  1  0.22812964  0.53546662  0.06563243  1
  Al  Al12  1  0.77071380  0.43559298  0.81510931  1
  Al  Al13  1  0.88888642  0.54967866  0.56938444  1
  Al  Al14  1  0.44379448  0.42589495  0.32221138  1
  Al  Al15  1  0.56077216  0.53523222  0.07256321  1
  Al  Al16  1  0.10175851  0.43868272  0.82815479  1
  Al  Al17  1  0.21087888  0.54755721  0.57338100  1
  Al  Al18  1  0.78295574  0.41886728  0.32788785  1
  Al  Al19  1  0.88264694  0.53722746  0.07500533  1
  Al  Al20  1  0.44869676  0.42749656  0.81588402  1
  Al  Al21  1  0.55277288  0.54514798  0.56730336  1
  Al  Al22  1  0.10794497  0.75780783  0.31424742  1
  Al  Al23  1  0.21668367  0.88432898  0.13037953  1
  Al  Al24  1  0.45135817  0.76278430  0.31544659  1
  Al  Al25  1  0.09102502  0.76068467  0.83999849  1
  Al  Al26  1  0.21255591  0.87666189  0.65200867  1
  Al  Al27  1  0.77087864  0.76198288  0.32192239  1
  Al  Al28  1  0.88363472  0.87174234  0.09240422  1
  Al  Al29  1  0.45408465  0.75931463  0.83451833  1
  Al  Al30  1  0.56127312  0.87372721  0.57373060  1
  B  B31  1  0.75702633  0.13296489  0.79955408  1
  B  B32  1  0.88657700  0.20734789  0.10776615  1
  B  B33  1  0.77863415  0.75704405  0.88276331  1
  B  B34  1  0.88008829  0.86896259  0.62759041  1
  B  B35  1  0.56554081  0.86315043  0.07145386  1
  N  N36  1  0.22209378  0.20036738  0.32264255  1
  N  N37  1  0.07543028  0.11364453  0.08081145  1
  N  N38  1  0.86867213  0.20047280  0.83133531  1
  N  N39  1  0.78198191  0.06927302  0.65076871  1
  N  N40  1  0.55575214  0.20253670  0.38195044  1
  N  N41  1  0.47058790  0.06642837  0.11339612  1
  N  N42  1  0.22105011  0.20234365  0.85758250  1
  N  N43  1  0.12116921  0.08860226  0.58559584  1
  N  N44  1  0.88178828  0.20548741  0.39756334  1
  N  N45  1  0.79568719  0.11276017  0.12712329  1
  N  N46  1  0.58583230  0.19726542  0.86989763  1
  N  N47  1  0.45250721  0.08922960  0.64374769  1
  N  N48  1  0.21932913  0.54061164  0.38440460  1
  N  N49  1  0.10708971  0.43629641  0.12452890  1
  N  N50  1  0.87060142  0.55996782  0.88419579  1
  N  N51  1  0.77447624  0.43856655  0.62830836  1
  N  N52  1  0.55334837  0.54176793  0.37703147  1
  N  N53  1  0.44850381  0.42151958  0.13137345  1
  N  N54  1  0.22917632  0.53177258  0.87966506  1
  N  N55  1  0.10679883  0.43197029  0.63753984  1
  N  N56  1  0.88826959  0.53743958  0.37927926  1
  N  N57  1  0.79357241  0.39732637  0.13134080  1
  N  N58  1  0.55462811  0.53733888  0.88629030  1
  N  N59  1  0.44348859  0.42968699  0.62770178  1
  N  N60  1  0.21945835  0.87732220  0.32523917  1
  N  N61  1  0.11799569  0.75418006  0.11965763  1
  N  N62  1  0.87382791  0.84250252  0.90264335  1
  N  N63  1  0.79095262  0.77863868  0.61226287  1
  N  N64  1  0.55017044  0.87492778  0.38729231  1
  N  N65  1  0.46075587  0.77306834  0.11939983  1
  N  N66  1  0.21518795  0.87370824  0.84609748  1
  N  N67  1  0.07376784  0.77638133  0.64084133  1
  N  N68  1  0.88385392  0.87298665  0.33402658  1
  N  N69  1  0.74787636  0.76405732  0.13136555  1
  N  N70  1  0.58347776  0.85455341  0.90305991  1
  N  N71  1  0.45045053  0.76105458  0.64066887  1
