# generated using pymatgen
data_Al31B5N36
_symmetry_space_group_name_H-M   'P 1'
_cell_length_a   9.17423572
_cell_length_b   9.21163020
_cell_length_c   9.93254257
_cell_angle_alpha   89.42611729
_cell_angle_beta   89.86225223
_cell_angle_gamma   60.22961099
_symmetry_Int_Tables_number   1
_chemical_formula_structural   Al31B5N36
_chemical_formula_sum   'Al31 B5 N36'
_cell_volume   728.57448582
_cell_formula_units_Z   1
loop_
 _symmetry_equiv_pos_site_id
 _symmetry_equiv_pos_as_xyz
  1  'x, y, z'
loop_
 _atom_site_type_symbol
 _atom_site_label
 _atom_site_symmetry_multiplicity
 _atom_site_fract_x
 _atom_site_fract_y
 _atom_site_fract_z
 _atom_site_occupancy
  Al  Al0  1  0.11041288  0.09629348  0.39937366  1
  Al  Al1  1  0.21572512  0.20444834  0.14938340  1
  Al  Al2  1  0.88820888  0.19031475  0.64728283  1
  Al  Al3  1  0.44464068  0.08862682  0.39053365  1
  Al  Al4  1  0.55718828  0.20675084  0.14880804  1
  Al  Al5  1  0.09809553  0.09108362  0.90443059  1
  Al  Al6  1  0.22460584  0.20078037  0.65153950  1
  Al  Al7  1  0.78563510  0.09272402  0.34932293  1
  Al  Al8  1  0.45094203  0.09019165  0.90659249  1
  Al  Al9  1  0.56685542  0.19310249  0.61601648  1
  Al  Al10  1  0.10900131  0.42767986  0.39730065  1
  Al  Al11  1  0.21962884  0.54107876  0.14999487  1
  Al  Al12  1  0.77920377  0.40951475  0.90289505  1
  Al  Al13  1  0.89231980  0.53560335  0.65496181  1
  Al  Al14  1  0.44220914  0.43220975  0.39875072  1
  Al  Al15  1  0.56005674  0.53793984  0.14964397  1
  Al  Al16  1  0.10721392  0.42423688  0.89889321  1
  Al  Al17  1  0.21528347  0.53992853  0.64908085  1
  Al  Al18  1  0.77996561  0.42719992  0.39607513  1
  Al  Al19  1  0.88119359  0.54151809  0.13942675  1
  Al  Al20  1  0.44594038  0.42496979  0.89857193  1
  Al  Al21  1  0.55926682  0.53656348  0.65248708  1
  Al  Al22  1  0.10748002  0.76245715  0.39435374  1
  Al  Al23  1  0.21913323  0.87907588  0.15146252  1
  Al  Al24  1  0.44831085  0.76209781  0.39618774  1
  Al  Al25  1  0.09720747  0.76568791  0.90039052  1
  Al  Al26  1  0.22063897  0.87167504  0.65060808  1
  Al  Al27  1  0.77861733  0.76250899  0.38789582  1
  Al  Al28  1  0.88415490  0.88388557  0.13025737  1
  Al  Al29  1  0.45281023  0.76124778  0.90540527  1
  Al  Al30  1  0.57327759  0.86924899  0.65545071  1
  B  B31  1  0.76642346  0.08878528  0.86881586  1
  B  B32  1  0.88673782  0.21040654  0.15839493  1
  B  B33  1  0.73739908  0.82546840  0.92957014  1
  B  B34  1  0.89012260  0.87032791  0.59505850  1
  B  B35  1  0.55050370  0.87468162  0.15017400  1
  N  N36  1  0.22177543  0.20626088  0.33851546  1
  N  N37  1  0.08302527  0.10817287  0.09640256  1
  N  N38  1  0.86964243  0.17763286  0.84037423  1
  N  N39  1  0.79836530  0.05743111  0.57928922  1
  N  N40  1  0.55105638  0.20928943  0.34853816  1
  N  N41  1  0.45316656  0.07294899  0.09969614  1
  N  N42  1  0.22730390  0.19455410  0.84445126  1
  N  N43  1  0.11039936  0.09278133  0.59062846  1
  N  N44  1  0.89703977  0.21363665  0.32485397  1
  N  N45  1  0.78694838  0.11586966  0.13660058  1
  N  N46  1  0.57785287  0.19261616  0.85098670  1
  N  N47  1  0.44632123  0.08518112  0.58509831  1
  N  N48  1  0.22093100  0.54063092  0.34083432  1
  N  N49  1  0.10986702  0.42901732  0.08930027  1
  N  N50  1  0.89160246  0.51609553  0.83977470  1
  N  N51  1  0.78049403  0.41916526  0.58798020  1
  N  N52  1  0.55560697  0.54068634  0.33933118  1
  N  N53  1  0.44148871  0.43046643  0.08984324  1
  N  N54  1  0.21739874  0.54015884  0.83850489  1
  N  N55  1  0.11268119  0.42266745  0.58790001  1
  N  N56  1  0.88669122  0.54229629  0.33297912  1
  N  N57  1  0.78838342  0.40301088  0.09603230  1
  N  N58  1  0.55519299  0.53994331  0.84353526  1
  N  N59  1  0.44395624  0.42805875  0.59096786  1
  N  N60  1  0.22279774  0.87306128  0.34309524  1
  N  N61  1  0.11506238  0.76101781  0.08902737  1
  N  N62  1  0.84866407  0.90117475  0.89137769  1
  N  N63  1  0.79651681  0.76993617  0.58542768  1
  N  N64  1  0.55775049  0.87077662  0.31600107  1
  N  N65  1  0.45409565  0.77622401  0.09772952  1
  N  N66  1  0.22326020  0.86871723  0.84215070  1
  N  N67  1  0.08430696  0.77309111  0.59177340  1
  N  N68  1  0.89366966  0.86367632  0.32521369  1
  N  N69  1  0.74417837  0.78221521  0.08114599  1
  N  N70  1  0.58167731  0.86527824  0.84889573  1
  N  N71  1  0.45189247  0.76155644  0.59184107  1
