# generated using pymatgen
data_Al31B5N36
_symmetry_space_group_name_H-M   'P 1'
_cell_length_a   9.19405666
_cell_length_b   9.19494245
_cell_length_c   9.82352914
_cell_angle_alpha   89.71094695
_cell_angle_beta   89.41771449
_cell_angle_gamma   59.98743416
_symmetry_Int_Tables_number   1
_chemical_formula_structural   Al31B5N36
_chemical_formula_sum   'Al31 B5 N36'
_cell_volume   719.07953239
_cell_formula_units_Z   1
loop_
 _symmetry_equiv_pos_site_id
 _symmetry_equiv_pos_as_xyz
  1  'x, y, z'
loop_
 _atom_site_type_symbol
 _atom_site_label
 _atom_site_symmetry_multiplicity
 _atom_site_fract_x
 _atom_site_fract_y
 _atom_site_fract_z
 _atom_site_occupancy
  Al  Al0  1  0.10573065  0.09675602  0.35374187  1
  Al  Al1  1  0.21814260  0.20297140  0.06240110  1
  Al  Al2  1  0.88359878  0.19961174  0.59483058  1
  Al  Al3  1  0.44922704  0.08782190  0.30495233  1
  Al  Al4  1  0.57115394  0.20005931  0.05506390  1
  Al  Al5  1  0.10301924  0.09236415  0.81668163  1
  Al  Al6  1  0.22719933  0.20652322  0.56549023  1
  Al  Al7  1  0.78149760  0.09227958  0.32328218  1
  Al  Al8  1  0.45477826  0.08711126  0.81933818  1
  Al  Al9  1  0.55996755  0.19688894  0.56446814  1
  Al  Al10  1  0.10971971  0.42961355  0.31106774  1
  Al  Al11  1  0.22142536  0.54036196  0.06022065  1
  Al  Al12  1  0.77570914  0.42679429  0.81064778  1
  Al  Al13  1  0.88709005  0.54876843  0.56776282  1
  Al  Al14  1  0.44458921  0.42588322  0.31138848  1
  Al  Al15  1  0.56285013  0.53438330  0.06391277  1
  Al  Al16  1  0.10665376  0.43329038  0.81228844  1
  Al  Al17  1  0.21757953  0.54282952  0.56246837  1
  Al  Al18  1  0.78189888  0.42285244  0.31854528  1
  Al  Al19  1  0.88312857  0.54435170  0.05840750  1
  Al  Al20  1  0.45198483  0.42250139  0.81028929  1
  Al  Al21  1  0.55595199  0.54111587  0.55891588  1
  Al  Al22  1  0.10378779  0.76337048  0.31925167  1
  Al  Al23  1  0.21681279  0.87779653  0.06442649  1
  Al  Al24  1  0.44780581  0.76517498  0.30617421  1
  Al  Al25  1  0.09724418  0.76699131  0.80921160  1
  Al  Al26  1  0.22219350  0.86606940  0.56660737  1
  Al  Al27  1  0.77322386  0.76675438  0.31470868  1
  Al  Al28  1  0.88069346  0.88246177  0.05519493  1
  Al  Al29  1  0.45157765  0.75957918  0.82094807  1
  Al  Al30  1  0.56030454  0.87214697  0.56999423  1
  B  B31  1  0.77552328  0.08373744  0.79753270  1
  B  B32  1  0.89340246  0.20276977  0.10419518  1
  B  B33  1  0.77621463  0.77349277  0.81196272  1
  B  B34  1  0.88231041  0.87302437  0.57326291  1
  B  B35  1  0.56592818  0.86941404  0.05480250  1
  N  N36  1  0.22639240  0.20627737  0.36857862  1
  N  N37  1  0.08026718  0.10946804  0.10956890  1
  N  N38  1  0.87097135  0.18804051  0.82170300  1
  N  N39  1  0.78345442  0.06186317  0.63029979  1
  N  N40  1  0.55507348  0.20245744  0.37013622  1
  N  N41  1  0.46057212  0.06969372  0.10705195  1
  N  N42  1  0.21922833  0.20552749  0.87034739  1
  N  N43  1  0.11752085  0.09072292  0.61088136  1
  N  N44  1  0.88064902  0.20790653  0.39099845  1
  N  N45  1  0.79532432  0.10731002  0.12489712  1
  N  N46  1  0.58280463  0.19081625  0.86099403  1
  N  N47  1  0.44473248  0.09296916  0.62814836  1
  N  N48  1  0.22175320  0.53887781  0.37082343  1
  N  N49  1  0.10843200  0.42939135  0.11882363  1
  N  N50  1  0.87588105  0.56598184  0.86510716  1
  N  N51  1  0.77463163  0.43645004  0.61956268  1
  N  N52  1  0.55434892  0.54144857  0.36451797  1
  N  N53  1  0.44528438  0.42439613  0.11846164  1
  N  N54  1  0.22363659  0.53982020  0.86823994  1
  N  N55  1  0.11040949  0.42868994  0.62149008  1
  N  N56  1  0.88675926  0.54318482  0.37179130  1
  N  N57  1  0.79536976  0.39795299  0.11848908  1
  N  N58  1  0.55718729  0.53632145  0.87503928  1
  N  N59  1  0.44597290  0.42659442  0.61778842  1
  N  N60  1  0.22551460  0.86659385  0.37040539  1
  N  N61  1  0.10318734  0.76372861  0.12377498  1
  N  N62  1  0.86403935  0.88344562  0.86238643  1
  N  N63  1  0.78588607  0.77406979  0.63989295  1
  N  N64  1  0.55458160  0.87271316  0.37875443  1
  N  N65  1  0.45866239  0.77441528  0.11026062  1
  N  N66  1  0.22101254  0.86846556  0.87180057  1
  N  N67  1  0.08390930  0.77319181  0.61647967  1
  N  N68  1  0.88346508  0.87215901  0.39827050  1
  N  N69  1  0.75430460  0.77709652  0.11868864  1
  N  N70  1  0.58163405  0.85975379  0.88256661  1
  N  N71  1  0.44551198  0.76006718  0.62740704  1
