# generated using pymatgen
data_Al31B5N36
_symmetry_space_group_name_H-M   'P 1'
_cell_length_a   9.18371092
_cell_length_b   9.23007937
_cell_length_c   10.14556909
_cell_angle_alpha   90.06572664
_cell_angle_beta   89.42830637
_cell_angle_gamma   59.79404191
_symmetry_Int_Tables_number   1
_chemical_formula_structural   Al31B5N36
_chemical_formula_sum   'Al31 B5 N36'
_cell_volume   743.17816025
_cell_formula_units_Z   1
loop_
 _symmetry_equiv_pos_site_id
 _symmetry_equiv_pos_as_xyz
  1  'x, y, z'
loop_
 _atom_site_type_symbol
 _atom_site_label
 _atom_site_symmetry_multiplicity
 _atom_site_fract_x
 _atom_site_fract_y
 _atom_site_fract_z
 _atom_site_occupancy
  Al  Al0  1  0.12039672  0.08947443  0.39618274  1
  Al  Al1  1  0.21988420  0.20090258  0.12721215  1
  Al  Al2  1  0.88597030  0.20232094  0.59100557  1
  Al  Al3  1  0.45642756  0.08509536  0.31331705  1
  Al  Al4  1  0.57446365  0.19940719  0.06164484  1
  Al  Al5  1  0.09091722  0.09969904  0.89123576  1
  Al  Al6  1  0.22184683  0.20067142  0.65101018  1
  Al  Al7  1  0.78265139  0.09585911  0.32107868  1
  Al  Al8  1  0.46832666  0.07934209  0.83143216  1
  Al  Al9  1  0.55728265  0.19868433  0.57145067  1
  Al  Al10  1  0.10844573  0.43336763  0.31818996  1
  Al  Al11  1  0.22761996  0.53430533  0.06527701  1
  Al  Al12  1  0.77093438  0.43474596  0.81468841  1
  Al  Al13  1  0.88878891  0.54996424  0.56919098  1
  Al  Al14  1  0.44401014  0.42620133  0.32164877  1
  Al  Al15  1  0.56085456  0.53455931  0.07151191  1
  Al  Al16  1  0.10061266  0.43972270  0.82595285  1
  Al  Al17  1  0.21090007  0.54804225  0.57304691  1
  Al  Al18  1  0.78274373  0.41911640  0.32717393  1
  Al  Al19  1  0.88291221  0.53674731  0.07440093  1
  Al  Al20  1  0.44821714  0.42744375  0.81554067  1
  Al  Al21  1  0.55291010  0.54517913  0.56727655  1
  Al  Al22  1  0.10763348  0.75838552  0.31360399  1
  Al  Al23  1  0.21712118  0.88300883  0.12929514  1
  Al  Al24  1  0.45165427  0.76226071  0.31459867  1
  Al  Al25  1  0.09109846  0.76075269  0.83908929  1
  Al  Al26  1  0.21250211  0.87766064  0.65259976  1
  Al  Al27  1  0.77119278  0.76194817  0.32136265  1
  Al  Al28  1  0.88364171  0.87158520  0.09020480  1
  Al  Al29  1  0.45428369  0.75922331  0.83404029  1
  Al  Al30  1  0.56145179  0.87388246  0.57331932  1
  B  B31  1  0.75730752  0.13356714  0.79985552  1
  B  B32  1  0.88646294  0.20702504  0.10709824  1
  B  B33  1  0.77795408  0.75727174  0.88312474  1
  B  B34  1  0.88030342  0.86939282  0.62769858  1
  B  B35  1  0.56488810  0.86351123  0.07220767  1
  N  N36  1  0.22233794  0.20062336  0.32122580  1
  N  N37  1  0.07649329  0.11350423  0.08078328  1
  N  N38  1  0.86895447  0.20013406  0.83365367  1
  N  N39  1  0.78253956  0.07036357  0.65123522  1
  N  N40  1  0.55627882  0.20325850  0.38254146  1
  N  N41  1  0.46959687  0.06604998  0.11524817  1
  N  N42  1  0.21905201  0.20210611  0.84713058  1
  N  N43  1  0.12231702  0.08826698  0.58354697  1
  N  N44  1  0.88260323  0.20559604  0.39652629  1
  N  N45  1  0.79554665  0.11208172  0.12694990  1
  N  N46  1  0.58539960  0.19711934  0.86996920  1
  N  N47  1  0.45316850  0.08917744  0.64243978  1
  N  N48  1  0.21973583  0.54146651  0.38475299  1
  N  N49  1  0.10657599  0.43577746  0.12627896  1
  N  N50  1  0.87004031  0.56000770  0.88438310  1
  N  N51  1  0.77491106  0.43775946  0.62853108  1
  N  N52  1  0.55338478  0.54184272  0.37750149  1
  N  N53  1  0.44823822  0.42124162  0.13143388  1
  N  N54  1  0.22851566  0.53159216  0.88004003  1
  N  N55  1  0.10660200  0.43264214  0.63609890  1
  N  N56  1  0.88754277  0.53785325  0.37984462  1
  N  N57  1  0.79340594  0.39707019  0.13136312  1
  N  N58  1  0.55441487  0.53719001  0.88609421  1
  N  N59  1  0.44328069  0.43010457  0.62809741  1
  N  N60  1  0.21950015  0.87797316  0.32319342  1
  N  N61  1  0.11741254  0.75336143  0.11999243  1
  N  N62  1  0.87387398  0.84231979  0.90228531  1
  N  N63  1  0.79104427  0.77901834  0.61224954  1
  N  N64  1  0.55033172  0.87422416  0.38749223  1
  N  N65  1  0.46148004  0.77182635  0.11946448  1
  N  N66  1  0.21507228  0.87422282  0.84600502  1
  N  N67  1  0.07415882  0.77669889  0.64131326  1
  N  N68  1  0.88383418  0.87317199  0.33647841  1
  N  N69  1  0.74825778  0.76421782  0.13133463  1
  N  N70  1  0.58268025  0.85530935  0.90363195  1
  N  N71  1  0.45089538  0.76098929  0.64105540  1
