# generated using pymatgen
data_Al31B5N36
_symmetry_space_group_name_H-M   'P 1'
_cell_length_a   9.16426803
_cell_length_b   9.19572066
_cell_length_c   9.92654216
_cell_angle_alpha   89.46849160
_cell_angle_beta   89.98558942
_cell_angle_gamma   60.21980821
_symmetry_Int_Tables_number   1
_chemical_formula_structural   Al31B5N36
_chemical_formula_sum   'Al31 B5 N36'
_cell_volume   726.01517412
_cell_formula_units_Z   1
loop_
 _symmetry_equiv_pos_site_id
 _symmetry_equiv_pos_as_xyz
  1  'x, y, z'
loop_
 _atom_site_type_symbol
 _atom_site_label
 _atom_site_symmetry_multiplicity
 _atom_site_fract_x
 _atom_site_fract_y
 _atom_site_fract_z
 _atom_site_occupancy
  Al  Al0  1  0.10951579  0.09615301  0.39676782  1
  Al  Al1  1  0.21755117  0.20373599  0.14932712  1
  Al  Al2  1  0.88852360  0.19185808  0.64661896  1
  Al  Al3  1  0.44626750  0.09050127  0.39428024  1
  Al  Al4  1  0.56018038  0.20546660  0.15070107  1
  Al  Al5  1  0.09898776  0.09099364  0.90448155  1
  Al  Al6  1  0.22402073  0.20127094  0.65071906  1
  Al  Al7  1  0.78238408  0.09214018  0.37306185  1
  Al  Al8  1  0.45088326  0.08942606  0.90601456  1
  Al  Al9  1  0.56558945  0.19348034  0.64444617  1
  Al  Al10  1  0.10927959  0.42742788  0.39693507  1
  Al  Al11  1  0.22109342  0.53992262  0.14988034  1
  Al  Al12  1  0.77958893  0.40991592  0.90293602  1
  Al  Al13  1  0.89192863  0.53642671  0.65450447  1
  Al  Al14  1  0.44436923  0.42780725  0.40192143  1
  Al  Al15  1  0.55978096  0.53693881  0.14947069  1
  Al  Al16  1  0.10713859  0.42454227  0.89887374  1
  Al  Al17  1  0.21473838  0.54069579  0.64864839  1
  Al  Al18  1  0.77993117  0.42600307  0.39394103  1
  Al  Al19  1  0.88146599  0.54183555  0.13859411  1
  Al  Al20  1  0.44538695  0.42572560  0.89778380  1
  Al  Al21  1  0.55916848  0.53691748  0.65159901  1
  Al  Al22  1  0.10798335  0.76209603  0.39312548  1
  Al  Al23  1  0.21951457  0.87878549  0.15077276  1
  Al  Al24  1  0.44842565  0.76189050  0.39486693  1
  Al  Al25  1  0.09664526  0.76569253  0.90056782  1
  Al  Al26  1  0.22014241  0.87217442  0.65002653  1
  Al  Al27  1  0.77828582  0.76266826  0.38696324  1
  Al  Al28  1  0.88328776  0.88666316  0.13228513  1
  Al  Al29  1  0.45309723  0.76078146  0.90535999  1
  Al  Al30  1  0.57224766  0.86915372  0.65486816  1
  B  B31  1  0.77041292  0.08806036  0.87489516  1
  B  B32  1  0.88389936  0.20837711  0.15510235  1
  B  B33  1  0.73906125  0.82395539  0.92810799  1
  B  B34  1  0.88915352  0.87043979  0.59599314  1
  B  B35  1  0.55101042  0.87582700  0.14945870  1
  N  N36  1  0.22281995  0.20548520  0.33901928  1
  N  N37  1  0.08408709  0.10788610  0.09624865  1
  N  N38  1  0.87102493  0.17806279  0.83899420  1
  N  N39  1  0.79406828  0.06079356  0.57867825  1
  N  N40  1  0.55187266  0.20868619  0.34239052  1
  N  N41  1  0.45446770  0.07325872  0.09788667  1
  N  N42  1  0.22707664  0.19499937  0.84372507  1
  N  N43  1  0.10999901  0.09309132  0.58870985  1
  N  N44  1  0.89285463  0.20959590  0.32324934  1
  N  N45  1  0.78634845  0.11749898  0.11686950  1
  N  N46  1  0.57812191  0.19185223  0.84258984  1
  N  N47  1  0.44770176  0.08778124  0.58847742  1
  N  N48  1  0.22243563  0.53945811  0.34138164  1
  N  N49  1  0.11031810  0.42864633  0.08922949  1
  N  N50  1  0.89095002  0.51781015  0.83961640  1
  N  N51  1  0.78045996  0.42005757  0.58654755  1
  N  N52  1  0.55468063  0.53947934  0.33957405  1
  N  N53  1  0.44211694  0.42888259  0.08781404  1
  N  N54  1  0.21702094  0.54041828  0.83802169  1
  N  N55  1  0.11189952  0.42349389  0.58745406  1
  N  N56  1  0.88684369  0.54197692  0.33227795  1
  N  N57  1  0.78812431  0.40370004  0.09586876  1
  N  N58  1  0.55570329  0.53953174  0.84274822  1
  N  N59  1  0.44489499  0.42551223  0.59389633  1
  N  N60  1  0.22301219  0.87257207  0.34215676  1
  N  N61  1  0.11438005  0.76086109  0.08964765  1
  N  N62  1  0.84999227  0.89879263  0.88674423  1
  N  N63  1  0.79573248  0.77077651  0.58500276  1
  N  N64  1  0.55718749  0.87235390  0.31635539  1
  N  N65  1  0.45474545  0.77592225  0.09768504  1
  N  N66  1  0.22336203  0.86840897  0.84173962  1
  N  N67  1  0.08275834  0.77459472  0.59104562  1
  N  N68  1  0.89148632  0.86800057  0.32610989  1
  N  N69  1  0.74518398  0.78296166  0.08078246  1
  N  N70  1  0.58175420  0.86458912  0.84831430  1
  N  N71  1  0.45104632  0.76206932  0.59073590  1
