# generated using pymatgen
data_Al31B5N36
_symmetry_space_group_name_H-M   'P 1'
_cell_length_a   9.16264429
_cell_length_b   9.15072638
_cell_length_c   10.33605387
_cell_angle_alpha   90.16801363
_cell_angle_beta   89.58896738
_cell_angle_gamma   60.15401562
_symmetry_Int_Tables_number   1
_chemical_formula_structural   Al31B5N36
_chemical_formula_sum   'Al31 B5 N36'
_cell_volume   751.64077286
_cell_formula_units_Z   1
loop_
 _symmetry_equiv_pos_site_id
 _symmetry_equiv_pos_as_xyz
  1  'x, y, z'
loop_
 _atom_site_type_symbol
 _atom_site_label
 _atom_site_symmetry_multiplicity
 _atom_site_fract_x
 _atom_site_fract_y
 _atom_site_fract_z
 _atom_site_occupancy
  Al  Al0  1  0.11673817  0.08981020  0.39902900  1
  Al  Al1  1  0.21200557  0.20824204  0.13698909  1
  Al  Al2  1  0.88844303  0.19497673  0.61937981  1
  Al  Al3  1  0.45693558  0.08211227  0.31634514  1
  Al  Al4  1  0.57224430  0.19505077  0.05891736  1
  Al  Al5  1  0.09648515  0.09354322  0.88804365  1
  Al  Al6  1  0.21146296  0.21312082  0.64622089  1
  Al  Al7  1  0.78025844  0.10479251  0.31553864  1
  Al  Al8  1  0.45921401  0.08762950  0.81440964  1
  Al  Al9  1  0.55904712  0.19695284  0.56543482  1
  Al  Al10  1  0.11036112  0.42197175  0.39060410  1
  Al  Al11  1  0.23041316  0.53875293  0.06435270  1
  Al  Al12  1  0.78283897  0.41937688  0.87085950  1
  Al  Al13  1  0.88891990  0.55383101  0.64602519  1
  Al  Al14  1  0.44651888  0.42567990  0.31770205  1
  Al  Al15  1  0.56103347  0.53264481  0.06871531  1
  Al  Al16  1  0.09932716  0.43255704  0.89431429  1
  Al  Al17  1  0.21651376  0.55051063  0.57019839  1
  Al  Al18  1  0.78665033  0.42474082  0.40343549  1
  Al  Al19  1  0.87945863  0.53852852  0.14416663  1
  Al  Al20  1  0.44978470  0.42213616  0.81557643  1
  Al  Al21  1  0.54996989  0.53506772  0.57620596  1
  Al  Al22  1  0.11210554  0.75609152  0.30865789  1
  Al  Al23  1  0.22604610  0.88297921  0.13524178  1
  Al  Al24  1  0.43561854  0.76515159  0.39576141  1
  Al  Al25  1  0.09157881  0.76247649  0.83055021  1
  Al  Al26  1  0.21696077  0.87725693  0.65152613  1
  Al  Al27  1  0.78520945  0.76321883  0.38632879  1
  Al  Al28  1  0.87934898  0.87370703  0.11789942  1
  Al  Al29  1  0.45214606  0.76855369  0.88443300  1
  Al  Al30  1  0.55681797  0.87726222  0.58773694  1
  B  B31  1  0.77092897  0.08100012  0.81061399  1
  B  B32  1  0.88857025  0.20665439  0.09487192  1
  B  B33  1  0.76850962  0.77805445  0.85354791  1
  B  B34  1  0.88559688  0.86965654  0.61852293  1
  B  B35  1  0.56205410  0.86772721  0.10121608  1
  N  N36  1  0.21973234  0.20517575  0.32176416  1
  N  N37  1  0.08120693  0.10868616  0.07694218  1
  N  N38  1  0.87687493  0.18673468  0.82003535  1
  N  N39  1  0.78004268  0.06048999  0.64486224  1
  N  N40  1  0.55724693  0.20325343  0.37939964  1
  N  N41  1  0.46633567  0.06344418  0.12190344  1
  N  N42  1  0.21060970  0.20916151  0.83413228  1
  N  N43  1  0.11981166  0.08873409  0.58358728  1
  N  N44  1  0.88780779  0.19856005  0.39424983  1
  N  N45  1  0.79327177  0.11584800  0.12317854  1
  N  N46  1  0.58145206  0.19154010  0.87171653  1
  N  N47  1  0.44137229  0.10138031  0.63182167  1
  N  N48  1  0.22447469  0.54556274  0.38327816  1
  N  N49  1  0.10391118  0.42991464  0.07979507  1
  N  N50  1  0.87589359  0.57360896  0.83267644  1
  N  N51  1  0.77920925  0.43578695  0.59804788  1
  N  N52  1  0.55602651  0.53283718  0.38296842  1
  N  N53  1  0.44864920  0.42043958  0.13048652  1
  N  N54  1  0.22769426  0.53748700  0.87864661  1
  N  N55  1  0.10551055  0.42673996  0.57807126  1
  N  N56  1  0.88926642  0.53656750  0.32982621  1
  N  N57  1  0.79932311  0.39499452  0.07490642  1
  N  N58  1  0.55258719  0.53638891  0.88154929  1
  N  N59  1  0.44164108  0.42351359  0.63264254  1
  N  N60  1  0.22656649  0.87701391  0.32085255  1
  N  N61  1  0.11752018  0.75698717  0.11868828  1
  N  N62  1  0.85695262  0.88243256  0.86514169  1
  N  N63  1  0.80024973  0.77400570  0.57846321  1
  N  N64  1  0.55400546  0.87685748  0.39348934  1
  N  N65  1  0.45672832  0.78122550  0.07846676  1
  N  N66  1  0.22434986  0.87028424  0.83616707  1
  N  N67  1  0.07619692  0.77546611  0.63620236  1
  N  N68  1  0.88301210  0.87450120  0.31505765  1
  N  N69  1  0.74393911  0.77026049  0.10393705  1
  N  N70  1  0.58710039  0.85497556  0.82893265  1
  N  N71  1  0.43139715  0.76380882  0.58667708  1
