# generated using pymatgen
data_Al31B5N36
_symmetry_space_group_name_H-M   'P 1'
_cell_length_a   9.15698127
_cell_length_b   9.14026031
_cell_length_c   10.30011915
_cell_angle_alpha   90.13600805
_cell_angle_beta   89.55079296
_cell_angle_gamma   60.11586507
_symmetry_Int_Tables_number   1
_chemical_formula_structural   Al31B5N36
_chemical_formula_sum   'Al31 B5 N36'
_cell_volume   747.42031832
_cell_formula_units_Z   1
loop_
 _symmetry_equiv_pos_site_id
 _symmetry_equiv_pos_as_xyz
  1  'x, y, z'
loop_
 _atom_site_type_symbol
 _atom_site_label
 _atom_site_symmetry_multiplicity
 _atom_site_fract_x
 _atom_site_fract_y
 _atom_site_fract_z
 _atom_site_occupancy
  Al  Al0  1  0.11510941  0.09035229  0.39943684  1
  Al  Al1  1  0.21205090  0.20750611  0.13682653  1
  Al  Al2  1  0.88740466  0.19864097  0.61770825  1
  Al  Al3  1  0.45694330  0.07945221  0.31614360  1
  Al  Al4  1  0.57153278  0.19504212  0.05677276  1
  Al  Al5  1  0.09715361  0.09739302  0.88527507  1
  Al  Al6  1  0.21369474  0.21254048  0.64535441  1
  Al  Al7  1  0.78063283  0.10456186  0.31454683  1
  Al  Al8  1  0.46153759  0.08415096  0.81340892  1
  Al  Al9  1  0.56123982  0.19778178  0.56645425  1
  Al  Al10  1  0.10914196  0.42033820  0.39190307  1
  Al  Al11  1  0.23264465  0.53334829  0.06570611  1
  Al  Al12  1  0.77665582  0.42214002  0.88307076  1
  Al  Al13  1  0.88963052  0.55544932  0.64491173  1
  Al  Al14  1  0.44419853  0.41941994  0.31617567  1
  Al  Al15  1  0.56603209  0.53859455  0.13750389  1
  Al  Al16  1  0.09894093  0.43310181  0.89204452  1
  Al  Al17  1  0.21950677  0.55121382  0.56986853  1
  Al  Al18  1  0.77536006  0.43045466  0.40229574  1
  Al  Al19  1  0.88187323  0.53794354  0.14440198  1
  Al  Al20  1  0.44596042  0.41682833  0.81550086  1
  Al  Al21  1  0.55674152  0.54610411  0.64785249  1
  Al  Al22  1  0.10922869  0.75956354  0.32196051  1
  Al  Al23  1  0.22231720  0.88440930  0.13310084  1
  Al  Al24  1  0.43849369  0.75516330  0.39380431  1
  Al  Al25  1  0.09557632  0.77021026  0.87653760  1
  Al  Al26  1  0.21319017  0.87433685  0.65054739  1
  Al  Al27  1  0.78524196  0.76095984  0.38478433  1
  Al  Al28  1  0.87563908  0.87482738  0.11653751  1
  Al  Al29  1  0.45574980  0.76301106  0.88932294  1
  Al  Al30  1  0.55570966  0.87637888  0.58187886  1
  B  B31  1  0.77295171  0.08029370  0.80875480  1
  B  B32  1  0.88631572  0.20746043  0.09356973  1
  B  B33  1  0.77013363  0.77659017  0.85347078  1
  B  B34  1  0.89019405  0.86923712  0.61359158  1
  B  B35  1  0.56133407  0.86636482  0.10050652  1
  N  N36  1  0.22010860  0.20363634  0.32191874  1
  N  N37  1  0.07867310  0.11161270  0.07618694  1
  N  N38  1  0.87604679  0.19085277  0.82147742  1
  N  N39  1  0.78205790  0.06122955  0.64610741  1
  N  N40  1  0.55887335  0.20003074  0.37952483  1
  N  N41  1  0.46561323  0.06150609  0.12087214  1
  N  N42  1  0.21395582  0.20931116  0.83359474  1
  N  N43  1  0.12044613  0.08904895  0.58427021  1
  N  N44  1  0.88516407  0.20083604  0.39421933  1
  N  N45  1  0.79174496  0.11689186  0.12260200  1
  N  N46  1  0.58235720  0.18993462  0.87093637  1
  N  N47  1  0.44378644  0.09905995  0.63019443  1
  N  N48  1  0.22552328  0.54230780  0.37968535  1
  N  N49  1  0.10323023  0.42878801  0.07921028  1
  N  N50  1  0.87529916  0.57260050  0.83343510  1
  N  N51  1  0.77575317  0.44195421  0.58901593  1
  N  N52  1  0.56219015  0.53832022  0.32367724  1
  N  N53  1  0.44748819  0.41602031  0.12782104  1
  N  N54  1  0.22858316  0.53592406  0.87946831  1
  N  N55  1  0.10736789  0.42717418  0.57873830  1
  N  N56  1  0.88998204  0.53442931  0.32955470  1
  N  N57  1  0.79247760  0.39925171  0.07438321  1
  N  N58  1  0.55552611  0.54111105  0.83454486  1
  N  N59  1  0.44386039  0.42311125  0.62933284  1
  N  N60  1  0.22485574  0.87613698  0.31872892  1
  N  N61  1  0.11272255  0.76309390  0.09442777  1
  N  N62  1  0.85794911  0.88245663  0.86670146  1
  N  N63  1  0.79919511  0.77552883  0.57594768  1
  N  N64  1  0.55332814  0.87264466  0.39049065  1
  N  N65  1  0.45679199  0.77613692  0.07891284  1
  N  N66  1  0.22594982  0.87173283  0.83726606  1
  N  N67  1  0.07606847  0.77999044  0.61540481  1
  N  N68  1  0.88311545  0.87261009  0.31008779  1
  N  N69  1  0.74274378  0.76877328  0.10479945  1
  N  N70  1  0.58792792  0.85355547  0.83273924  1
  N  N71  1  0.43126088  0.75771479  0.58049799  1
