# generated using pymatgen
data_Al31B5N36
_symmetry_space_group_name_H-M   'P 1'
_cell_length_a   9.17084351
_cell_length_b   9.17759754
_cell_length_c   9.98730217
_cell_angle_alpha   89.74349842
_cell_angle_beta   89.72973074
_cell_angle_gamma   60.11012007
_symmetry_Int_Tables_number   1
_chemical_formula_structural   Al31B5N36
_chemical_formula_sum   'Al31 B5 N36'
_cell_volume   728.77223469
_cell_formula_units_Z   1
loop_
 _symmetry_equiv_pos_site_id
 _symmetry_equiv_pos_as_xyz
  1  'x, y, z'
loop_
 _atom_site_type_symbol
 _atom_site_label
 _atom_site_symmetry_multiplicity
 _atom_site_fract_x
 _atom_site_fract_y
 _atom_site_fract_z
 _atom_site_occupancy
  Al  Al0  1  0.10918944  0.09662920  0.40003225  1
  Al  Al1  1  0.21771536  0.20370742  0.15025102  1
  Al  Al2  1  0.88717241  0.19046413  0.65128575  1
  Al  Al3  1  0.44351388  0.08748687  0.38755979  1
  Al  Al4  1  0.56833073  0.19909510  0.09418163  1
  Al  Al5  1  0.09710303  0.09114711  0.90630111  1
  Al  Al6  1  0.22212405  0.20280759  0.65206014  1
  Al  Al7  1  0.78108077  0.09610314  0.33232913  1
  Al  Al8  1  0.44875404  0.08314831  0.90419625  1
  Al  Al9  1  0.56813353  0.19231334  0.57618752  1
  Al  Al10  1  0.10868903  0.42845840  0.40046981  1
  Al  Al11  1  0.22126082  0.53988267  0.15187380  1
  Al  Al12  1  0.77777483  0.41716470  0.90463427  1
  Al  Al13  1  0.88809690  0.54624141  0.65696420  1
  Al  Al14  1  0.44091411  0.43571695  0.39894319  1
  Al  Al15  1  0.56118673  0.53672376  0.15136357  1
  Al  Al16  1  0.10377244  0.43238877  0.90178939  1
  Al  Al17  1  0.21585203  0.54100109  0.64987599  1
  Al  Al18  1  0.78076152  0.42681362  0.40010949  1
  Al  Al19  1  0.88195686  0.54053226  0.14524744  1
  Al  Al20  1  0.44422537  0.42890751  0.89741017  1
  Al  Al21  1  0.55793514  0.53804622  0.65269621  1
  Al  Al22  1  0.10494855  0.76459725  0.39562389  1
  Al  Al23  1  0.21958844  0.87764072  0.15226146  1
  Al  Al24  1  0.44787842  0.76273136  0.39591347  1
  Al  Al25  1  0.09861250  0.76614125  0.90000893  1
  Al  Al26  1  0.21943257  0.87264546  0.64989647  1
  Al  Al27  1  0.77763939  0.76457578  0.38872081  1
  Al  Al28  1  0.88489732  0.87680862  0.12734244  1
  Al  Al29  1  0.45133329  0.76099851  0.90524431  1
  Al  Al30  1  0.56933348  0.87135078  0.65420965  1
  B  B31  1  0.77026727  0.08148329  0.87245705  1
  B  B32  1  0.89017040  0.21023247  0.15771060  1
  B  B33  1  0.75448206  0.78929069  0.91771541  1
  B  B34  1  0.88873682  0.87292624  0.59961667  1
  B  B35  1  0.55313884  0.87112971  0.14736246  1
  N  N36  1  0.22097556  0.20702133  0.33853983  1
  N  N37  1  0.08408350  0.10748074  0.09733499  1
  N  N38  1  0.86979761  0.18029250  0.84353291  1
  N  N39  1  0.79890456  0.05640714  0.59401212  1
  N  N40  1  0.55705624  0.20596232  0.37743610  1
  N  N41  1  0.45283753  0.06909443  0.09820195  1
  N  N42  1  0.21886396  0.20179933  0.84490931  1
  N  N43  1  0.10845680  0.09436886  0.59033055  1
  N  N44  1  0.89683570  0.21410317  0.32412489  1
  N  N45  1  0.78934905  0.11279095  0.13741603  1
  N  N46  1  0.58126902  0.18870602  0.88641048  1
  N  N47  1  0.44208593  0.08637618  0.58648069  1
  N  N48  1  0.22068558  0.54058863  0.34167070  1
  N  N49  1  0.11001475  0.42904832  0.09053835  1
  N  N50  1  0.87586114  0.55589891  0.84936214  1
  N  N51  1  0.78220043  0.42158991  0.59326007  1
  N  N52  1  0.55774826  0.53957961  0.33999711  1
  N  N53  1  0.44152684  0.43280414  0.08983813  1
  N  N54  1  0.21869203  0.54026261  0.83829435  1
  N  N55  1  0.10922859  0.42595979  0.59132388  1
  N  N56  1  0.88722469  0.54154224  0.33660103  1
  N  N57  1  0.79054825  0.40201447  0.09598262  1
  N  N58  1  0.55643472  0.53945770  0.84256273  1
  N  N59  1  0.44299436  0.43042733  0.59316412  1
  N  N60  1  0.22258635  0.87264291  0.34265615  1
  N  N61  1  0.11657131  0.75935379  0.08823129  1
  N  N62  1  0.85487025  0.89245087  0.88822262  1
  N  N63  1  0.79358673  0.77325712  0.58442520  1
  N  N64  1  0.55842706  0.86948237  0.31431080  1
  N  N65  1  0.45448143  0.77377946  0.09709313  1
  N  N66  1  0.22368869  0.86954766  0.84125368  1
  N  N67  1  0.08410121  0.77315883  0.59177464  1
  N  N68  1  0.89288197  0.86410935  0.32336013  1
  N  N69  1  0.74635535  0.77416752  0.07984598  1
  N  N70  1  0.58015060  0.86090779  0.84523275  1
  N  N71  1  0.45016362  0.76189096  0.58980041  1
