# generated using pymatgen
data_Al31B5N36
_symmetry_space_group_name_H-M   'P 1'
_cell_length_a   9.14510720
_cell_length_b   9.26107347
_cell_length_c   10.19299612
_cell_angle_alpha   90.30412902
_cell_angle_beta   89.74190607
_cell_angle_gamma   60.08498938
_symmetry_Int_Tables_number   1
_chemical_formula_structural   Al31B5N36
_chemical_formula_sum   'Al31 B5 N36'
_cell_volume   748.22637888
_cell_formula_units_Z   1
loop_
 _symmetry_equiv_pos_site_id
 _symmetry_equiv_pos_as_xyz
  1  'x, y, z'
loop_
 _atom_site_type_symbol
 _atom_site_label
 _atom_site_symmetry_multiplicity
 _atom_site_fract_x
 _atom_site_fract_y
 _atom_site_fract_z
 _atom_site_occupancy
  B  B0  1  0.11344363  0.09999687  0.30243096  1
  B  B1  1  0.58888230  0.48278093  0.15437037  1
  B  B2  1  0.24741890  0.90310818  0.15228788  1
  B  B3  1  0.54293697  0.88604747  0.09800933  1
  B  B4  1  0.77886014  0.76471075  0.35670881  1
  Al  Al5  1  0.22584101  0.20276152  0.06559915  1
  Al  Al6  1  0.78102860  0.08886702  0.80942304  1
  Al  Al7  1  0.90184555  0.18986545  0.55243743  1
  Al  Al8  1  0.45529613  0.08101258  0.31426181  1
  Al  Al9  1  0.56256212  0.19649431  0.05903540  1
  Al  Al10  1  0.10894558  0.09785355  0.81276323  1
  Al  Al11  1  0.22077187  0.20120922  0.55311902  1
  Al  Al12  1  0.78575692  0.08271981  0.30937148  1
  Al  Al13  1  0.89899506  0.18734962  0.06933994  1
  Al  Al14  1  0.43914890  0.09700826  0.80697453  1
  Al  Al15  1  0.55814350  0.20352148  0.55896121  1
  Al  Al16  1  0.10804837  0.43228028  0.30767878  1
  Al  Al17  1  0.22726697  0.54682473  0.06083292  1
  Al  Al18  1  0.76263906  0.42800146  0.89073914  1
  Al  Al19  1  0.89291810  0.54112067  0.56238172  1
  Al  Al20  1  0.44389756  0.42190817  0.31085574  1
  Al  Al21  1  0.10760740  0.42413806  0.81319962  1
  Al  Al22  1  0.22549656  0.53533890  0.55982796  1
  Al  Al23  1  0.78418782  0.42708950  0.36933124  1
  Al  Al24  1  0.87033898  0.55653020  0.06982038  1
  Al  Al25  1  0.44133419  0.42239867  0.81120235  1
  Al  Al26  1  0.56224607  0.53938383  0.63346749  1
  Al  Al27  1  0.11158204  0.76215439  0.30169004  1
  Al  Al28  1  0.77448126  0.75608611  0.82096352  1
  Al  Al29  1  0.89038258  0.86534853  0.56250236  1
  Al  Al30  1  0.45791939  0.75952289  0.37124986  1
  Al  Al31  1  0.10762666  0.75440663  0.81339989  1
  Al  Al32  1  0.23285535  0.86297228  0.63306097  1
  Al  Al33  1  0.88228001  0.86948294  0.05893784  1
  Al  Al34  1  0.43533737  0.77023643  0.89714897  1
  Al  Al35  1  0.55496646  0.86592163  0.61644773  1
  N  N36  1  0.21134791  0.19565620  0.36179319  1
  N  N37  1  0.11758203  0.09334659  0.14136555  1
  N  N38  1  0.89150981  0.19623221  0.88109397  1
  N  N39  1  0.78250403  0.08979397  0.61973829  1
  N  N40  1  0.56031177  0.20459911  0.37189929  1
  N  N41  1  0.45509053  0.07918026  0.12400880  1
  N  N42  1  0.22072865  0.20484584  0.87898752  1
  N  N43  1  0.11253060  0.09575091  0.62415613  1
  N  N44  1  0.92352396  0.18157168  0.35945449  1
  N  N45  1  0.78011766  0.08745750  0.12583644  1
  N  N46  1  0.55617647  0.20203057  0.87274684  1
  N  N47  1  0.44039571  0.10000562  0.61594237  1
  N  N48  1  0.22506600  0.54042280  0.37168276  1
  N  N49  1  0.10811135  0.43288108  0.12268077  1
  N  N50  1  0.88805342  0.53452711  0.87931913  1
  N  N51  1  0.77618514  0.42298458  0.55849081  1
  N  N52  1  0.56709874  0.53563691  0.29801048  1
  N  N53  1  0.46260871  0.42440878  0.12064425  1
  N  N54  1  0.22139912  0.53480955  0.87470824  1
  N  N55  1  0.11374208  0.42162699  0.62126718  1
  N  N56  1  0.88023891  0.57108927  0.36669215  1
  N  N57  1  0.75236712  0.43034159  0.08706882  1
  N  N58  1  0.55171715  0.54653980  0.82307990  1
  N  N59  1  0.44542824  0.42129574  0.62217671  1
  N  N60  1  0.23130017  0.89184609  0.30605879  1
  N  N61  1  0.10939856  0.76560689  0.11883874  1
  N  N62  1  0.88623603  0.87099104  0.87202920  1
  N  N63  1  0.78861225  0.75154558  0.62972304  1
  N  N64  1  0.59458939  0.85786517  0.36510328  1
  N  N65  1  0.41878772  0.82206735  0.08243366  1
  N  N66  1  0.22480891  0.86752865  0.82241748  1
  N  N67  1  0.11047232  0.75319825  0.62024976  1
  N  N68  1  0.88186962  0.85714491  0.37069296  1
  N  N69  1  0.72864921  0.78650929  0.08693129  1
  N  N70  1  0.54268082  0.86948763  0.81308208  1
  N  N71  1  0.44545262  0.75041985  0.55731813  1
