# generated using pymatgen
data_Al31B5N36
_symmetry_space_group_name_H-M   'P 1'
_cell_length_a   9.14322004
_cell_length_b   9.19444654
_cell_length_c   10.31250122
_cell_angle_alpha   91.37603896
_cell_angle_beta   90.83663576
_cell_angle_gamma   60.25443949
_symmetry_Int_Tables_number   1
_chemical_formula_structural   Al31B5N36
_chemical_formula_sum   'Al31 B5 N36'
_cell_volume   752.48847894
_cell_formula_units_Z   1
loop_
 _symmetry_equiv_pos_site_id
 _symmetry_equiv_pos_as_xyz
  1  'x, y, z'
loop_
 _atom_site_type_symbol
 _atom_site_label
 _atom_site_symmetry_multiplicity
 _atom_site_fract_x
 _atom_site_fract_y
 _atom_site_fract_z
 _atom_site_occupancy
  B  B0  1  0.11969245  0.08637215  0.36177169  1
  B  B1  1  0.58552007  0.47890495  0.17098859  1
  B  B2  1  0.22758413  0.88857654  0.10417031  1
  B  B3  1  0.53726078  0.88298364  0.11062846  1
  B  B4  1  0.77295596  0.76320454  0.36999333  1
  Al  Al5  1  0.22795277  0.19621936  0.08205517  1
  Al  Al6  1  0.77309360  0.08715719  0.83184910  1
  Al  Al7  1  0.88757093  0.20956138  0.65711231  1
  Al  Al8  1  0.45229050  0.07788529  0.33081467  1
  Al  Al9  1  0.56314423  0.19036637  0.08396760  1
  Al  Al10  1  0.11267385  0.09345549  0.86029904  1
  Al  Al11  1  0.22141626  0.19629117  0.57268180  1
  Al  Al12  1  0.78275201  0.07859415  0.33322786  1
  Al  Al13  1  0.90339726  0.19374173  0.15237859  1
  Al  Al14  1  0.43478736  0.10578059  0.82285171  1
  Al  Al15  1  0.55876237  0.19854426  0.57590330  1
  Al  Al16  1  0.10346024  0.44028317  0.39457942  1
  Al  Al17  1  0.23076158  0.55336536  0.15580712  1
  Al  Al18  1  0.77178734  0.42792890  0.91242878  1
  Al  Al19  1  0.89855144  0.52386736  0.65504451  1
  Al  Al20  1  0.44518529  0.43195816  0.39989434  1
  Al  Al21  1  0.10576142  0.43834666  0.90946649  1
  Al  Al22  1  0.22368827  0.53778490  0.65137780  1
  Al  Al23  1  0.78775480  0.42485488  0.39960712  1
  Al  Al24  1  0.86041164  0.56211577  0.15462413  1
  Al  Al25  1  0.44779383  0.43422608  0.90728709  1
  Al  Al26  1  0.55683919  0.53933440  0.65357871  1
  Al  Al27  1  0.11596761  0.76745363  0.40138782  1
  Al  Al28  1  0.77501671  0.76108461  0.84083641  1
  Al  Al29  1  0.88397458  0.86594122  0.58229125  1
  Al  Al30  1  0.44887789  0.76304410  0.39343300  1
  Al  Al31  1  0.12290647  0.75939258  0.90192745  1
  Al  Al32  1  0.22664906  0.86822941  0.64908273  1
  Al  Al33  1  0.87790338  0.87300342  0.07901717  1
  Al  Al34  1  0.44543678  0.76712821  0.90377690  1
  Al  Al35  1  0.55584130  0.86662260  0.63835375  1
  N  N36  1  0.21314638  0.18753814  0.37946878  1
  N  N37  1  0.11775326  0.07167214  0.08759552  1
  N  N38  1  0.87971715  0.21206868  0.84813530  1
  N  N39  1  0.77480366  0.08668445  0.64379571  1
  N  N40  1  0.55952056  0.19784230  0.38954765  1
  N  N41  1  0.45258584  0.07511894  0.14398182  1
  N  N42  1  0.22722368  0.20791680  0.89876135  1
  N  N43  1  0.11469608  0.09837641  0.64574273  1
  N  N44  1  0.92562081  0.18941080  0.34355874  1
  N  N45  1  0.77825226  0.08570646  0.15050095  1
  N  N46  1  0.55615778  0.19986398  0.89953275  1
  N  N47  1  0.43842266  0.10367956  0.63651113  1
  N  N48  1  0.22510373  0.54372487  0.33730526  1
  N  N49  1  0.09867253  0.44886601  0.09869171  1
  N  N50  1  0.89088726  0.52596583  0.84439735  1
  N  N51  1  0.77812012  0.42326246  0.58392269  1
  N  N52  1  0.56637099  0.52409358  0.31687481  1
  N  N53  1  0.46418684  0.43425222  0.10288521  1
  N  N54  1  0.22555994  0.53564251  0.84108773  1
  N  N55  1  0.11097612  0.43099310  0.58030652  1
  N  N56  1  0.87223587  0.56976224  0.34341803  1
  N  N57  1  0.75627140  0.42779097  0.10617956  1
  N  N58  1  0.55576597  0.54148816  0.84111742  1
  N  N59  1  0.44417333  0.43276296  0.58690493  1
  N  N60  1  0.21133073  0.90263451  0.35916928  1
  N  N61  1  0.13914870  0.77540324  0.09175878  1
  N  N62  1  0.88942815  0.87112679  0.89632263  1
  N  N63  1  0.78823341  0.75313536  0.64816833  1
  N  N64  1  0.58996625  0.85403346  0.37803034  1
  N  N65  1  0.41934804  0.81255537  0.08699969  1
  N  N66  1  0.22918860  0.86206942  0.83419836  1
  N  N67  1  0.11698543  0.75668859  0.58705096  1
  N  N68  1  0.87496440  0.85464639  0.38935302  1
  N  N69  1  0.72666190  0.78237066  0.09719929  1
  N  N70  1  0.54448599  0.87522686  0.83016342  1
  N  N71  1  0.44681999  0.75186730  0.58015203  1
