# generated using pymatgen
data_Al31B5N36
_symmetry_space_group_name_H-M   'P 1'
_cell_length_a   9.10649393
_cell_length_b   9.20555174
_cell_length_c   10.28723854
_cell_angle_alpha   90.30702955
_cell_angle_beta   89.71624910
_cell_angle_gamma   60.41157008
_symmetry_Int_Tables_number   1
_chemical_formula_structural   Al31B5N36
_chemical_formula_sum   'Al31 B5 N36'
_cell_volume   749.88364752
_cell_formula_units_Z   1
loop_
 _symmetry_equiv_pos_site_id
 _symmetry_equiv_pos_as_xyz
  1  'x, y, z'
loop_
 _atom_site_type_symbol
 _atom_site_label
 _atom_site_symmetry_multiplicity
 _atom_site_fract_x
 _atom_site_fract_y
 _atom_site_fract_z
 _atom_site_occupancy
  B  B0  1  0.11885066  0.08637846  0.35032956  1
  B  B1  1  0.58899649  0.48487107  0.15356923  1
  B  B2  1  0.22861609  0.89212030  0.09844773  1
  B  B3  1  0.54018079  0.88284311  0.09439150  1
  B  B4  1  0.77781620  0.76438285  0.35559525  1
  Al  Al5  1  0.22471191  0.19862616  0.06054866  1
  Al  Al6  1  0.77977885  0.08897719  0.80783446  1
  Al  Al7  1  0.89815264  0.19318099  0.55826013  1
  Al  Al8  1  0.45379042  0.07862439  0.31257050  1
  Al  Al9  1  0.56116041  0.19495663  0.05894818  1
  Al  Al10  1  0.10954924  0.09745879  0.81581877  1
  Al  Al11  1  0.22107849  0.20387560  0.55873542  1
  Al  Al12  1  0.78589123  0.08306338  0.30917053  1
  Al  Al13  1  0.89736458  0.18629548  0.06254722  1
  Al  Al14  1  0.43952737  0.09826817  0.80614065  1
  Al  Al15  1  0.55732271  0.20339797  0.55721514  1
  Al  Al16  1  0.10634055  0.43232326  0.30754568  1
  Al  Al17  1  0.23321938  0.54861194  0.06089437  1
  Al  Al18  1  0.76256754  0.42855593  0.88923619  1
  Al  Al19  1  0.89296975  0.54224045  0.56196344  1
  Al  Al20  1  0.44379069  0.42195851  0.30919729  1
  Al  Al21  1  0.10814530  0.42653165  0.81232879  1
  Al  Al22  1  0.22585396  0.53666781  0.55792193  1
  Al  Al23  1  0.78199195  0.42872638  0.37149303  1
  Al  Al24  1  0.87044176  0.55572384  0.06814938  1
  Al  Al25  1  0.44125640  0.42167829  0.81048725  1
  Al  Al26  1  0.56279188  0.53850440  0.63447998  1
  Al  Al27  1  0.11572699  0.77008070  0.30910275  1
  Al  Al28  1  0.77805037  0.75577906  0.82036998  1
  Al  Al29  1  0.89067483  0.86556880  0.55968337  1
  Al  Al30  1  0.45240144  0.76328115  0.37757212  1
  Al  Al31  1  0.10998601  0.75510619  0.80837652  1
  Al  Al32  1  0.23013357  0.86783931  0.62291114  1
  Al  Al33  1  0.88311364  0.87223846  0.05849622  1
  Al  Al34  1  0.43956983  0.76626820  0.88878131  1
  Al  Al35  1  0.55661377  0.86521356  0.62066972  1
  N  N36  1  0.21012666  0.19343765  0.36738686  1
  N  N37  1  0.12284468  0.07205132  0.09833447  1
  N  N38  1  0.88709004  0.19925981  0.87547067  1
  N  N39  1  0.78044377  0.08896833  0.61966967  1
  N  N40  1  0.55917607  0.20440183  0.37111099  1
  N  N41  1  0.45215678  0.07630561  0.12338388  1
  N  N42  1  0.22229379  0.20861395  0.87524275  1
  N  N43  1  0.10878057  0.10164910  0.62799239  1
  N  N44  1  0.92323548  0.18246086  0.36460999  1
  N  N45  1  0.77870808  0.08790492  0.12677081  1
  N  N46  1  0.55660884  0.20200876  0.87393440  1
  N  N47  1  0.44120511  0.09918941  0.61705478  1
  N  N48  1  0.22481038  0.54169310  0.37021299  1
  N  N49  1  0.10857336  0.43554338  0.12312815  1
  N  N50  1  0.88929655  0.53517883  0.87950206  1
  N  N51  1  0.77470236  0.42470913  0.55849103  1
  N  N52  1  0.56614598  0.53802268  0.29708822  1
  N  N53  1  0.46380526  0.42277172  0.12111131  1
  N  N54  1  0.22193336  0.53817798  0.87634678  1
  N  N55  1  0.11308203  0.42493843  0.62183761  1
  N  N56  1  0.88016804  0.57086618  0.36782813  1
  N  N57  1  0.75294961  0.42940597  0.08541112  1
  N  N58  1  0.55383825  0.54429929  0.82055277  1
  N  N59  1  0.44444663  0.42061242  0.62241802  1
  N  N60  1  0.21319286  0.90333794  0.35835774  1
  N  N61  1  0.13280170  0.77746783  0.11904378  1
  N  N62  1  0.89055348  0.87063520  0.87387631  1
  N  N63  1  0.79000331  0.75207410  0.63027056  1
  N  N64  1  0.59386300  0.85703857  0.36295887  1
  N  N65  1  0.42029251  0.81069381  0.07336625  1
  N  N66  1  0.22859167  0.86681552  0.81601941  1
  N  N67  1  0.10944696  0.75372715  0.61914317  1
  N  N68  1  0.88213278  0.85659464  0.36799002  1
  N  N69  1  0.72887864  0.78598918  0.08646448  1
  N  N70  1  0.54681552  0.87036763  0.81349231  1
  N  N71  1  0.45094804  0.74800404  0.56181721  1
