# generated using pymatgen
data_Al31B5N36
_symmetry_space_group_name_H-M   'P 1'
_cell_length_a   9.19191696
_cell_length_b   9.27852773
_cell_length_c   9.90283590
_cell_angle_alpha   90.68591089
_cell_angle_beta   90.19652692
_cell_angle_gamma   60.17504453
_symmetry_Int_Tables_number   1
_chemical_formula_structural   Al31B5N36
_chemical_formula_sum   'Al31 B5 N36'
_cell_volume   732.66552254
_cell_formula_units_Z   1
loop_
 _symmetry_equiv_pos_site_id
 _symmetry_equiv_pos_as_xyz
  1  'x, y, z'
loop_
 _atom_site_type_symbol
 _atom_site_label
 _atom_site_symmetry_multiplicity
 _atom_site_fract_x
 _atom_site_fract_y
 _atom_site_fract_z
 _atom_site_occupancy
  B  B0  1  0.11018658  0.09089540  0.40074006  1
  B  B1  1  0.58508328  0.48147945  0.16853876  1
  B  B2  1  0.22914875  0.89259522  0.16217354  1
  B  B3  1  0.55396511  0.86866874  0.16247158  1
  B  B4  1  0.77358331  0.75611033  0.39763099  1
  Al  Al5  1  0.23252484  0.19695285  0.09390585  1
  Al  Al6  1  0.77912139  0.08703599  0.83190182  1
  Al  Al7  1  0.89432110  0.20617701  0.64372913  1
  Al  Al8  1  0.44500557  0.08808132  0.33228253  1
  Al  Al9  1  0.56816563  0.18891801  0.08421778  1
  Al  Al10  1  0.11125525  0.08598515  0.90418848  1
  Al  Al11  1  0.22172939  0.20109073  0.57402028  1
  Al  Al12  1  0.77861246  0.08793879  0.34256503  1
  Al  Al13  1  0.90437225  0.19768740  0.15954168  1
  Al  Al14  1  0.43827264  0.09982080  0.83011182  1
  Al  Al15  1  0.55464241  0.20100484  0.58333185  1
  Al  Al16  1  0.10279138  0.43768364  0.39389564  1
  Al  Al17  1  0.23343702  0.54571521  0.15326378  1
  Al  Al18  1  0.77413507  0.42876538  0.90530334  1
  Al  Al19  1  0.88504453  0.54240683  0.64934011  1
  Al  Al20  1  0.44444439  0.43056438  0.40077932  1
  Al  Al21  1  0.10549926  0.43712254  0.90501320  1
  Al  Al22  1  0.22160854  0.53968483  0.65423465  1
  Al  Al23  1  0.78484690  0.42596973  0.40126795  1
  Al  Al24  1  0.86903995  0.55275053  0.15767574  1
  Al  Al25  1  0.44884464  0.43486713  0.90481924  1
  Al  Al26  1  0.55293714  0.54414657  0.65365469  1
  Al  Al27  1  0.11383984  0.76500612  0.39007069  1
  Al  Al28  1  0.76706334  0.76712442  0.90609434  1
  Al  Al29  1  0.88714309  0.86632596  0.60093383  1
  Al  Al30  1  0.44847159  0.75916200  0.37499648  1
  Al  Al31  1  0.11639381  0.76562225  0.90946454  1
  Al  Al32  1  0.22511204  0.86844225  0.64363033  1
  Al  Al33  1  0.89122701  0.86249228  0.14325326  1
  Al  Al34  1  0.44223240  0.77172053  0.92017952  1
  Al  Al35  1  0.55393769  0.86384100  0.64023447  1
  N  N36  1  0.21136615  0.19490525  0.37702198  1
  N  N37  1  0.12167244  0.07196433  0.09762627  1
  N  N38  1  0.89301216  0.20891097  0.84021895  1
  N  N39  1  0.77577819  0.09042086  0.63478591  1
  N  N40  1  0.55526273  0.19927833  0.39240209  1
  N  N41  1  0.45780700  0.07768735  0.14296388  1
  N  N42  1  0.22285889  0.20669657  0.89456329  1
  N  N43  1  0.10884703  0.08169605  0.56777713  1
  N  N44  1  0.91790428  0.19402474  0.35306682  1
  N  N45  1  0.78137984  0.09114786  0.14834092  1
  N  N46  1  0.55812310  0.20179810  0.89212007  1
  N  N47  1  0.43717307  0.09820257  0.63670313  1
  N  N48  1  0.22639198  0.53857893  0.34068139  1
  N  N49  1  0.10287798  0.44151376  0.10113264  1
  N  N50  1  0.88388860  0.54283845  0.84364432  1
  N  N51  1  0.77553888  0.42778576  0.59039470  1
  N  N52  1  0.56641511  0.52174359  0.31937327  1
  N  N53  1  0.46680129  0.43230781  0.10250322  1
  N  N54  1  0.22514070  0.54035989  0.84799723  1
  N  N55  1  0.10742179  0.43233848  0.59036278  1
  N  N56  1  0.87342771  0.56349312  0.34742258  1
  N  N57  1  0.75904796  0.42752012  0.10414339  1
  N  N58  1  0.55318442  0.54877386  0.84564782  1
  N  N59  1  0.44334613  0.43296073  0.59432867  1
  N  N60  1  0.21064085  0.90027740  0.32824386  1
  N  N61  1  0.13134292  0.77294291  0.10523729  1
  N  N62  1  0.89277689  0.86511393  0.86690912  1
  N  N63  1  0.76947338  0.75691805  0.56418949  1
  N  N64  1  0.58433127  0.85165123  0.33249311  1
  N  N65  1  0.42527129  0.80679741  0.11350053  1
  N  N66  1  0.22661039  0.87118250  0.83537660  1
  N  N67  1  0.11576620  0.75615627  0.58351804  1
  N  N68  1  0.87963638  0.85279940  0.35703907  1
  N  N69  1  0.74262653  0.77421066  0.09755243  1
  N  N70  1  0.55515283  0.86699053  0.83300390  1
  N  N71  1  0.44409662  0.75520589  0.57183251  1
