# generated using pymatgen
data_Al31B5N36
_symmetry_space_group_name_H-M   'P 1'
_cell_length_a   9.14304410
_cell_length_b   9.22655435
_cell_length_c   9.94057768
_cell_angle_alpha   89.90664348
_cell_angle_beta   90.29129173
_cell_angle_gamma   60.38131634
_symmetry_Int_Tables_number   1
_chemical_formula_structural   Al31B5N36
_chemical_formula_sum   'Al31 B5 N36'
_cell_volume   728.98402641
_cell_formula_units_Z   1
loop_
 _symmetry_equiv_pos_site_id
 _symmetry_equiv_pos_as_xyz
  1  'x, y, z'
loop_
 _atom_site_type_symbol
 _atom_site_label
 _atom_site_symmetry_multiplicity
 _atom_site_fract_x
 _atom_site_fract_y
 _atom_site_fract_z
 _atom_site_occupancy
  B  B0  1  0.11179815  0.08954559  0.30579175  1
  B  B1  1  0.58751731  0.47443560  0.04918136  1
  B  B2  1  0.21794790  0.88954427  0.07118706  1
  B  B3  1  0.54056701  0.88229542  0.11379288  1
  B  B4  1  0.77049141  0.76669858  0.32547464  1
  Al  Al5  1  0.22371751  0.19890446  0.07017889  1
  Al  Al6  1  0.78049017  0.08985802  0.80949827  1
  Al  Al7  1  0.89504999  0.20378347  0.55765760  1
  Al  Al8  1  0.45011806  0.08545885  0.31904099  1
  Al  Al9  1  0.56171170  0.19187234  0.05944494  1
  Al  Al10  1  0.11627059  0.09046329  0.81937273  1
  Al  Al11  1  0.21817946  0.20450966  0.55509004  1
  Al  Al12  1  0.78234070  0.08794645  0.31157333  1
  Al  Al13  1  0.89499445  0.19407996  0.06433331  1
  Al  Al14  1  0.44084610  0.09260823  0.80810948  1
  Al  Al15  1  0.55524856  0.20787395  0.55964006  1
  Al  Al16  1  0.10557313  0.43294732  0.31001089  1
  Al  Al17  1  0.22813771  0.54725770  0.05946724  1
  Al  Al18  1  0.78012079  0.42497242  0.81470852  1
  Al  Al19  1  0.88605341  0.54329497  0.55639484  1
  Al  Al20  1  0.44949771  0.42821128  0.30467168  1
  Al  Al21  1  0.11056649  0.42737079  0.81233992  1
  Al  Al22  1  0.22401845  0.54166313  0.56252298  1
  Al  Al23  1  0.77723765  0.42971906  0.30506926  1
  Al  Al24  1  0.86935495  0.55055752  0.06403051  1
  Al  Al25  1  0.44580144  0.42532393  0.81560594  1
  Al  Al26  1  0.55745179  0.53500751  0.55770301  1
  Al  Al27  1  0.11099700  0.76773146  0.30649345  1
  Al  Al28  1  0.77876033  0.75832424  0.81189357  1
  Al  Al29  1  0.88950596  0.86808315  0.55711523  1
  Al  Al30  1  0.44768865  0.76828001  0.35949436  1
  Al  Al31  1  0.11358486  0.76579511  0.81933954  1
  Al  Al32  1  0.21357502  0.88199187  0.55759681  1
  Al  Al33  1  0.88445647  0.86991322  0.06619272  1
  Al  Al34  1  0.45213794  0.76293572  0.91304729  1
  Al  Al35  1  0.55690480  0.86871478  0.59727717  1
  N  N36  1  0.20940082  0.19467960  0.35969104  1
  N  N37  1  0.11714442  0.07831789  0.13653957  1
  N  N38  1  0.89095614  0.20215994  0.87415055  1
  N  N39  1  0.78122919  0.09187330  0.61589444  1
  N  N40  1  0.55581752  0.20859848  0.36865459  1
  N  N41  1  0.45565764  0.07398010  0.12455457  1
  N  N42  1  0.22268480  0.20694324  0.87901090  1
  N  N43  1  0.11252134  0.09428221  0.62989502  1
  N  N44  1  0.91328364  0.19600401  0.36097124  1
  N  N45  1  0.77984684  0.08898965  0.12347065  1
  N  N46  1  0.55683864  0.20028678  0.87033308  1
  N  N47  1  0.43911236  0.10225997  0.61528438  1
  N  N48  1  0.22585676  0.54128380  0.36817245  1
  N  N49  1  0.10745080  0.43449539  0.12020283  1
  N  N50  1  0.88811127  0.53864532  0.87500108  1
  N  N51  1  0.77916983  0.42609521  0.62191769  1
  N  N52  1  0.56067706  0.53290156  0.36711060  1
  N  N53  1  0.46485743  0.42603689  0.11113951  1
  N  N54  1  0.22275579  0.54068690  0.87061685  1
  N  N55  1  0.11118531  0.42675064  0.61680677  1
  N  N56  1  0.87332334  0.56571597  0.36024610  1
  N  N57  1  0.75664772  0.42706214  0.11311920  1
  N  N58  1  0.56389738  0.52325309  0.90126644  1
  N  N59  1  0.44756138  0.42733610  0.62608322  1
  N  N60  1  0.20095818  0.90531760  0.36440968  1
  N  N61  1  0.12662520  0.77370009  0.11800500  1
  N  N62  1  0.88847043  0.87038251  0.87571198  1
  N  N63  1  0.78867698  0.75495807  0.62375209  1
  N  N64  1  0.58791210  0.86298878  0.37226478  1
  N  N65  1  0.42776499  0.80698832  0.10385945  1
  N  N66  1  0.21548104  0.87990271  0.90515026  1
  N  N67  1  0.11207389  0.76426696  0.62446650  1
  N  N68  1  0.87989489  0.85634335  0.36167504  1
  N  N69  1  0.73975862  0.77737687  0.12517731  1
  N  N70  1  0.54899393  0.86476195  0.82262180  1
  N  N71  1  0.43975618  0.76010482  0.56826569  1
