# generated using pymatgen
data_Al31B5N36
_symmetry_space_group_name_H-M   'P 1'
_cell_length_a   9.11629035
_cell_length_b   9.19375590
_cell_length_c   10.19661610
_cell_angle_alpha   89.68135129
_cell_angle_beta   89.98585311
_cell_angle_gamma   60.31632696
_symmetry_Int_Tables_number   1
_chemical_formula_structural   Al31B5N36
_chemical_formula_sum   'Al31 B5 N36'
_cell_volume   742.44589199
_cell_formula_units_Z   1
loop_
 _symmetry_equiv_pos_site_id
 _symmetry_equiv_pos_as_xyz
  1  'x, y, z'
loop_
 _atom_site_type_symbol
 _atom_site_label
 _atom_site_symmetry_multiplicity
 _atom_site_fract_x
 _atom_site_fract_y
 _atom_site_fract_z
 _atom_site_occupancy
  B  B0  1  0.11185592  0.09415372  0.35585628  1
  B  B1  1  0.58698975  0.47544824  0.05124430  1
  B  B2  1  0.22519154  0.89484938  0.10471833  1
  B  B3  1  0.53955467  0.88349147  0.10278109  1
  B  B4  1  0.77285806  0.76578561  0.35664341  1
  Al  Al5  1  0.22293405  0.20053197  0.06366156  1
  Al  Al6  1  0.78021482  0.08904707  0.80911817  1
  Al  Al7  1  0.89407235  0.20372901  0.56443106  1
  Al  Al8  1  0.45058421  0.08409127  0.31635840  1
  Al  Al9  1  0.56116532  0.19221915  0.06137709  1
  Al  Al10  1  0.11327213  0.09276398  0.82336855  1
  Al  Al11  1  0.22080603  0.20407211  0.56208160  1
  Al  Al12  1  0.78278487  0.08778677  0.31308599  1
  Al  Al13  1  0.89311865  0.19313945  0.05976721  1
  Al  Al14  1  0.44144179  0.09535605  0.81062408  1
  Al  Al15  1  0.55556900  0.20628918  0.56009519  1
  Al  Al16  1  0.10345038  0.43521597  0.31070446  1
  Al  Al17  1  0.22857418  0.54928845  0.06144162  1
  Al  Al18  1  0.77820186  0.42473431  0.81513077  1
  Al  Al19  1  0.88717701  0.54208365  0.56403013  1
  Al  Al20  1  0.44991828  0.42949519  0.30523353  1
  Al  Al21  1  0.11264087  0.42494036  0.81081264  1
  Al  Al22  1  0.22499466  0.53879695  0.55897711  1
  Al  Al23  1  0.77494390  0.43506634  0.30706754  1
  Al  Al24  1  0.86590175  0.55168551  0.05834555  1
  Al  Al25  1  0.44633819  0.42460605  0.81774086  1
  Al  Al26  1  0.55902103  0.53155227  0.55962109  1
  Al  Al27  1  0.11257642  0.77158743  0.31129360  1
  Al  Al28  1  0.78048508  0.75695987  0.82118557  1
  Al  Al29  1  0.88971769  0.86815751  0.56052539  1
  Al  Al30  1  0.44241733  0.77545866  0.38390155  1
  Al  Al31  1  0.11047141  0.75407255  0.81132410  1
  Al  Al32  1  0.22933169  0.86953585  0.63034034  1
  Al  Al33  1  0.88249956  0.87200858  0.06287095  1
  Al  Al34  1  0.44273336  0.76439042  0.90509769  1
  Al  Al35  1  0.55622924  0.86605180  0.62695194  1
  N  N36  1  0.20785386  0.19559316  0.36993920  1
  N  N37  1  0.11903352  0.07478350  0.09666729  1
  N  N38  1  0.88603120  0.20300589  0.87355400  1
  N  N39  1  0.78016471  0.09134211  0.61950961  1
  N  N40  1  0.55529295  0.20865347  0.37165783  1
  N  N41  1  0.45118144  0.07783088  0.12689474  1
  N  N42  1  0.22460159  0.20709463  0.87736798  1
  N  N43  1  0.10849321  0.10234025  0.63300054  1
  N  N44  1  0.91431413  0.19732081  0.37057354  1
  N  N45  1  0.77955587  0.08885210  0.12828286  1
  N  N46  1  0.55834475  0.19907731  0.87522507  1
  N  N47  1  0.44161465  0.10080970  0.62088887  1
  N  N48  1  0.22589451  0.54117120  0.36831867  1
  N  N49  1  0.10364180  0.43703694  0.12360393  1
  N  N50  1  0.89146276  0.53277788  0.87372572  1
  N  N51  1  0.77734879  0.42690035  0.62634189  1
  N  N52  1  0.55808120  0.53597197  0.37239526  1
  N  N53  1  0.46494097  0.42693120  0.11450801  1
  N  N54  1  0.22346405  0.53606574  0.87620566  1
  N  N55  1  0.11298094  0.42636849  0.61979110  1
  N  N56  1  0.87292027  0.56831315  0.36969820  1
  N  N57  1  0.75633131  0.42750362  0.11664920  1
  N  N58  1  0.56464863  0.52117977  0.90545227  1
  N  N59  1  0.44696821  0.42658972  0.62956595  1
  N  N60  1  0.20278272  0.91101666  0.36059991  1
  N  N61  1  0.13178393  0.77772814  0.12103203  1
  N  N62  1  0.89227633  0.87030685  0.87660809  1
  N  N63  1  0.78929980  0.75468052  0.63049749  1
  N  N64  1  0.58984148  0.86025745  0.36295404  1
  N  N65  1  0.41773555  0.81407877  0.08798571  1
  N  N66  1  0.23465592  0.85984847  0.82389237  1
  N  N67  1  0.10923841  0.75552526  0.62113498  1
  N  N68  1  0.87930486  0.85668541  0.36854003  1
  N  N69  1  0.72828044  0.78354286  0.08715908  1
  N  N70  1  0.54877855  0.86448031  0.81956205  1
  N  N71  1  0.44467600  0.76013474  0.57063756  1
