# generated using pymatgen
data_Al31B5N36
_symmetry_space_group_name_H-M   'P 1'
_cell_length_a   9.17327137
_cell_length_b   9.25876022
_cell_length_c   10.14332498
_cell_angle_alpha   90.87283709
_cell_angle_beta   89.72320501
_cell_angle_gamma   60.17321419
_symmetry_Int_Tables_number   1
_chemical_formula_structural   Al31B5N36
_chemical_formula_sum   'Al31 B5 N36'
_cell_volume   747.22020170
_cell_formula_units_Z   1
loop_
 _symmetry_equiv_pos_site_id
 _symmetry_equiv_pos_as_xyz
  1  'x, y, z'
loop_
 _atom_site_type_symbol
 _atom_site_label
 _atom_site_symmetry_multiplicity
 _atom_site_fract_x
 _atom_site_fract_y
 _atom_site_fract_z
 _atom_site_occupancy
  B  B0  1  0.11542544  0.09671277  0.30923243  1
  B  B1  1  0.58754496  0.47941051  0.16034077  1
  B  B2  1  0.23263774  0.89067102  0.15460357  1
  B  B3  1  0.53549373  0.88540243  0.10803225  1
  B  B4  1  0.77296740  0.75629595  0.40278625  1
  Al  Al5  1  0.22625941  0.19421352  0.08148244  1
  Al  Al6  1  0.77972706  0.09226613  0.81948857  1
  Al  Al7  1  0.89934238  0.19270116  0.56269592  1
  Al  Al8  1  0.45717066  0.07508870  0.31985793  1
  Al  Al9  1  0.56648915  0.18890642  0.07234111  1
  Al  Al10  1  0.10725318  0.10337835  0.82176169  1
  Al  Al11  1  0.22373789  0.19311922  0.55467001  1
  Al  Al12  1  0.78774129  0.08255643  0.31881267  1
  Al  Al13  1  0.89592490  0.19563053  0.07843855  1
  Al  Al14  1  0.43741186  0.10200556  0.81406914  1
  Al  Al15  1  0.56093139  0.19611371  0.56474257  1
  Al  Al16  1  0.10317258  0.43283785  0.37217268  1
  Al  Al17  1  0.23031847  0.54578153  0.12275059  1
  Al  Al18  1  0.76805823  0.43674237  0.89760941  1
  Al  Al19  1  0.89090493  0.53303591  0.63748089  1
  Al  Al20  1  0.44852770  0.42694660  0.37977089  1
  Al  Al21  1  0.10356690  0.43442122  0.90348586  1
  Al  Al22  1  0.22239266  0.53452522  0.59746921  1
  Al  Al23  1  0.78364708  0.42995247  0.38542153  1
  Al  Al24  1  0.85695296  0.56580658  0.15082566  1
  Al  Al25  1  0.45038122  0.43303679  0.89845099  1
  Al  Al26  1  0.55520643  0.53854514  0.64184365  1
  Al  Al27  1  0.10782936  0.77172792  0.31453745  1
  Al  Al28  1  0.76167962  0.76427256  0.88537033  1
  Al  Al29  1  0.89217557  0.86789978  0.56437285  1
  Al  Al30  1  0.45373734  0.76020280  0.37737449  1
  Al  Al31  1  0.10932932  0.75587003  0.82606777  1
  Al  Al32  1  0.23011933  0.86601584  0.64083503  1
  Al  Al33  1  0.89427846  0.87398836  0.06931714  1
  Al  Al34  1  0.43386088  0.77439162  0.90061104  1
  Al  Al35  1  0.55645745  0.86460746  0.62058855  1
  N  N36  1  0.21612576  0.18670859  0.36339240  1
  N  N37  1  0.11245571  0.09071497  0.14944385  1
  N  N38  1  0.88937100  0.20297889  0.88950315  1
  N  N39  1  0.78087300  0.09049079  0.63049038  1
  N  N40  1  0.56316563  0.19473034  0.37584089  1
  N  N41  1  0.45602876  0.07568322  0.13062896  1
  N  N42  1  0.22394759  0.20084332  0.89256892  1
  N  N43  1  0.11010715  0.09904930  0.63294111  1
  N  N44  1  0.92247058  0.18412609  0.37064989  1
  N  N45  1  0.78193920  0.09008118  0.13458351  1
  N  N46  1  0.55796049  0.19918933  0.88400860  1
  N  N47  1  0.43746580  0.10208262  0.62496666  1
  N  N48  1  0.22627875  0.53869174  0.33073461  1
  N  N49  1  0.09405581  0.44073740  0.09605896  1
  N  N50  1  0.88806613  0.53698260  0.82918995  1
  N  N51  1  0.77492519  0.42650007  0.57393225  1
  N  N52  1  0.56558946  0.52618541  0.30615353  1
  N  N53  1  0.47062721  0.42962182  0.09430450  1
  N  N54  1  0.22516916  0.53731784  0.87266350  1
  N  N55  1  0.10802840  0.42548796  0.56602682  1
  N  N56  1  0.87173513  0.56833081  0.33607506  1
  N  N57  1  0.75236697  0.43853156  0.09484905  1
  N  N58  1  0.55237999  0.54577706  0.83090891  1
  N  N59  1  0.44818136  0.42933097  0.57247678  1
  N  N60  1  0.22918147  0.89179393  0.31615710  1
  N  N61  1  0.12291397  0.78163841  0.12507268  1
  N  N62  1  0.88749168  0.87278823  0.88187502  1
  N  N63  1  0.78079453  0.74746218  0.56594382  1
  N  N64  1  0.58869936  0.85474605  0.36251622  1
  N  N65  1  0.41638317  0.82008438  0.08705506  1
  N  N66  1  0.22346971  0.87254066  0.82996503  1
  N  N67  1  0.10625630  0.75645803  0.63043611  1
  N  N68  1  0.88606799  0.86067898  0.37730862  1
  N  N69  1  0.73017950  0.78206298  0.07634777  1
  N  N70  1  0.55172187  0.86745989  0.81435443  1
  N  N71  1  0.44216293  0.75169227  0.56656522  1
