# generated using pymatgen
data_Al31B5N36
_symmetry_space_group_name_H-M   'P 1'
_cell_length_a   9.14185318
_cell_length_b   9.18533810
_cell_length_c   10.35942258
_cell_angle_alpha   91.44135246
_cell_angle_beta   90.84003360
_cell_angle_gamma   60.22240614
_symmetry_Int_Tables_number   1
_chemical_formula_structural   Al31B5N36
_chemical_formula_sum   'Al31 B5 N36'
_cell_volume   754.78928321
_cell_formula_units_Z   1
loop_
 _symmetry_equiv_pos_site_id
 _symmetry_equiv_pos_as_xyz
  1  'x, y, z'
loop_
 _atom_site_type_symbol
 _atom_site_label
 _atom_site_symmetry_multiplicity
 _atom_site_fract_x
 _atom_site_fract_y
 _atom_site_fract_z
 _atom_site_occupancy
  B  B0  1  0.11859311  0.08560629  0.35840718  1
  B  B1  1  0.58543024  0.47892762  0.16662843  1
  B  B2  1  0.22779582  0.89011153  0.09792162  1
  B  B3  1  0.53751424  0.88315214  0.10467597  1
  B  B4  1  0.77199800  0.76284243  0.36511009  1
  Al  Al5  1  0.22747545  0.19463915  0.07536709  1
  Al  Al6  1  0.77422820  0.08771225  0.82687872  1
  Al  Al7  1  0.88458717  0.21077474  0.64981788  1
  Al  Al8  1  0.45077415  0.07765222  0.32484105  1
  Al  Al9  1  0.56337755  0.19063909  0.07974636  1
  Al  Al10  1  0.11503870  0.09708964  0.83682378  1
  Al  Al11  1  0.22220585  0.19627535  0.56754941  1
  Al  Al12  1  0.78161527  0.07788914  0.32888620  1
  Al  Al13  1  0.90353655  0.19355177  0.15044433  1
  Al  Al14  1  0.43659284  0.10680439  0.81910732  1
  Al  Al15  1  0.55786032  0.19841782  0.57053100  1
  Al  Al16  1  0.10288673  0.43980866  0.39039891  1
  Al  Al17  1  0.23017104  0.55406632  0.15099816  1
  Al  Al18  1  0.77302072  0.42717800  0.90795607  1
  Al  Al19  1  0.89850431  0.52376131  0.65080692  1
  Al  Al20  1  0.44436082  0.43179438  0.39494574  1
  Al  Al21  1  0.10618564  0.43908066  0.90516966  1
  Al  Al22  1  0.22379574  0.53718536  0.64750175  1
  Al  Al23  1  0.78674265  0.42521146  0.39491859  1
  Al  Al24  1  0.86078077  0.56196491  0.14980161  1
  Al  Al25  1  0.44807215  0.43534640  0.90374546  1
  Al  Al26  1  0.55688994  0.53890284  0.64952766  1
  Al  Al27  1  0.11480535  0.76631689  0.39796560  1
  Al  Al28  1  0.77593319  0.76102650  0.83645689  1
  Al  Al29  1  0.88285062  0.86556886  0.57753032  1
  Al  Al30  1  0.44844492  0.76294860  0.39053867  1
  Al  Al31  1  0.12339725  0.76134444  0.89661119  1
  Al  Al32  1  0.22712610  0.86633084  0.64157305  1
  Al  Al33  1  0.87860048  0.87331273  0.07343147  1
  Al  Al34  1  0.44503125  0.76832150  0.89797157  1
  Al  Al35  1  0.55569862  0.86682280  0.63607872  1
  N  N36  1  0.21249754  0.18669868  0.37680357  1
  N  N37  1  0.11938356  0.07195792  0.09301525  1
  N  N38  1  0.88115604  0.21239246  0.84077316  1
  N  N39  1  0.77381407  0.08669016  0.63877549  1
  N  N40  1  0.55804775  0.19732648  0.38506329  1
  N  N41  1  0.45223631  0.07568369  0.13860905  1
  N  N42  1  0.22741940  0.20748233  0.89316230  1
  N  N43  1  0.11443427  0.09957692  0.64275177  1
  N  N44  1  0.92393975  0.18899397  0.34137677  1
  N  N45  1  0.77820159  0.08540026  0.14693820  1
  N  N46  1  0.55767051  0.20051873  0.89588219  1
  N  N47  1  0.43808246  0.10414212  0.63325917  1
  N  N48  1  0.22421761  0.54329713  0.33218237  1
  N  N49  1  0.09893043  0.44880556  0.09306735  1
  N  N50  1  0.89173263  0.52562960  0.83940997  1
  N  N51  1  0.77751946  0.42422842  0.57860396  1
  N  N52  1  0.56572547  0.52393065  0.31228301  1
  N  N53  1  0.46393781  0.43485535  0.09857901  1
  N  N54  1  0.22621508  0.53609636  0.83644289  1
  N  N55  1  0.11070948  0.43104526  0.57573442  1
  N  N56  1  0.87197326  0.56912677  0.33832010  1
  N  N57  1  0.75652917  0.42722388  0.10192909  1
  N  N58  1  0.55658165  0.54144516  0.83647585  1
  N  N59  1  0.44383453  0.43309269  0.58161622  1
  N  N60  1  0.21011750  0.90220398  0.36152742  1
  N  N61  1  0.13966070  0.77576803  0.08567906  1
  N  N62  1  0.88974990  0.87185380  0.89139804  1
  N  N63  1  0.78786699  0.75304512  0.64423947  1
  N  N64  1  0.58901606  0.85372542  0.37210919  1
  N  N65  1  0.41966327  0.81303867  0.07991772  1
  N  N66  1  0.22947981  0.86324064  0.82686769  1
  N  N67  1  0.11590046  0.75579626  0.58274375  1
  N  N68  1  0.87388584  0.85420714  0.38572564  1
  N  N69  1  0.72730735  0.78226538  0.09178277  1
  N  N70  1  0.54528292  0.87603951  0.82598397  1
  N  N71  1  0.44814836  0.75143932  0.57635744  1
