# generated using pymatgen
data_Al31B5N36
_symmetry_space_group_name_H-M   'P 1'
_cell_length_a   9.11648536
_cell_length_b   9.19390473
_cell_length_c   10.19636832
_cell_angle_alpha   89.69343317
_cell_angle_beta   89.98317127
_cell_angle_gamma   60.31331232
_symmetry_Int_Tables_number   1
_chemical_formula_structural   Al31B5N36
_chemical_formula_sum   'Al31 B5 N36'
_cell_volume   742.43469766
_cell_formula_units_Z   1
loop_
 _symmetry_equiv_pos_site_id
 _symmetry_equiv_pos_as_xyz
  1  'x, y, z'
loop_
 _atom_site_type_symbol
 _atom_site_label
 _atom_site_symmetry_multiplicity
 _atom_site_fract_x
 _atom_site_fract_y
 _atom_site_fract_z
 _atom_site_occupancy
  B  B0  1  0.11230499  0.09358307  0.36156570  1
  B  B1  1  0.58738292  0.47510588  0.05711678  1
  B  B2  1  0.22555442  0.89468018  0.11075749  1
  B  B3  1  0.53991129  0.88327484  0.10854968  1
  B  B4  1  0.77325848  0.76522491  0.36248174  1
  Al  Al5  1  0.22326536  0.20027460  0.06956152  1
  Al  Al6  1  0.78066486  0.08863584  0.81498318  1
  Al  Al7  1  0.89446415  0.20317684  0.57018017  1
  Al  Al8  1  0.45100791  0.08355331  0.32214371  1
  Al  Al9  1  0.56157009  0.19192561  0.06720096  1
  Al  Al10  1  0.11366956  0.09238518  0.82893965  1
  Al  Al11  1  0.22124468  0.20352913  0.56783948  1
  Al  Al12  1  0.78318743  0.08724178  0.31891990  1
  Al  Al13  1  0.89357586  0.19279874  0.06570940  1
  Al  Al14  1  0.44180635  0.09499311  0.81653111  1
  Al  Al15  1  0.55598727  0.20569321  0.56597476  1
  Al  Al16  1  0.10385851  0.43472825  0.31654240  1
  Al  Al17  1  0.22895434  0.54903947  0.06731622  1
  Al  Al18  1  0.77863877  0.42428083  0.82104247  1
  Al  Al19  1  0.88757786  0.54152989  0.56994025  1
  Al  Al20  1  0.45035841  0.42892764  0.31111560  1
  Al  Al21  1  0.11303753  0.42453049  0.81669763  1
  Al  Al22  1  0.22542067  0.53820539  0.56482765  1
  Al  Al23  1  0.77539200  0.43450644  0.31292802  1
  Al  Al24  1  0.86625872  0.55139980  0.06422813  1
  Al  Al25  1  0.44673467  0.42422354  0.82359915  1
  Al  Al26  1  0.55948583  0.53093326  0.56552231  1
  Al  Al27  1  0.11300842  0.77106425  0.31723062  1
  Al  Al28  1  0.78085953  0.75657241  0.82717827  1
  Al  Al29  1  0.89007005  0.86758779  0.56638996  1
  Al  Al30  1  0.44293732  0.77483579  0.38982039  1
  Al  Al31  1  0.11088602  0.75367130  0.81710200  1
  Al  Al32  1  0.22968339  0.86902317  0.63591904  1
  Al  Al33  1  0.88292695  0.87170047  0.06869955  1
  Al  Al34  1  0.44298940  0.76408208  0.91095723  1
  Al  Al35  1  0.55660615  0.86549687  0.63302403  1
  N  N36  1  0.20828328  0.19506021  0.37570595  1
  N  N37  1  0.11936520  0.07464788  0.10310134  1
  N  N38  1  0.88654570  0.20254185  0.87947514  1
  N  N39  1  0.78059053  0.09080361  0.62536250  1
  N  N40  1  0.55570145  0.20808822  0.37752800  1
  N  N41  1  0.45156527  0.07758559  0.13267308  1
  N  N42  1  0.22492260  0.20667533  0.88325153  1
  N  N43  1  0.10888767  0.10183303  0.63869244  1
  N  N44  1  0.91473952  0.19675070  0.37636537  1
  N  N45  1  0.77993203  0.08854649  0.13411845  1
  N  N46  1  0.55875205  0.19871374  0.88105656  1
  N  N47  1  0.44200421  0.10025358  0.62677150  1
  N  N48  1  0.22632569  0.54062738  0.37417829  1
  N  N49  1  0.10399579  0.43680013  0.12944825  1
  N  N50  1  0.89185784  0.53237261  0.87960642  1
  N  N51  1  0.77779551  0.42630629  0.63224023  1
  N  N52  1  0.55855467  0.53534457  0.37830536  1
  N  N53  1  0.46532465  0.42661667  0.12037892  1
  N  N54  1  0.22384852  0.53570389  0.88206547  1
  N  N55  1  0.11340110  0.42581254  0.62565492  1
  N  N56  1  0.87333483  0.56775852  0.37559152  1
  N  N57  1  0.75670113  0.42720496  0.12250859  1
  N  N58  1  0.56502181  0.52083133  0.91132787  1
  N  N59  1  0.44737240  0.42603497  0.63542776  1
  N  N60  1  0.20325802  0.91040343  0.36670207  1
  N  N61  1  0.13216102  0.77748872  0.12695877  1
  N  N62  1  0.89271277  0.86991839  0.88244219  1
  N  N63  1  0.78967187  0.75414716  0.63642883  1
  N  N64  1  0.59024661  0.85968399  0.36863335  1
  N  N65  1  0.41802891  0.81391767  0.09382241  1
  N  N66  1  0.23501618  0.85949055  0.82961566  1
  N  N67  1  0.10962405  0.75497542  0.62692597  1
  N  N68  1  0.87968853  0.85614057  0.37437997  1
  N  N69  1  0.72864196  0.78329526  0.09287966  1
  N  N70  1  0.54914354  0.86412323  0.82553743  1
  N  N71  1  0.44521201  0.75951141  0.57655789  1
