# generated using pymatgen
data_Al31B5N36
_symmetry_space_group_name_H-M   'P 1'
_cell_length_a   9.16096120
_cell_length_b   9.24126868
_cell_length_c   9.76846476
_cell_angle_alpha   90.22880986
_cell_angle_beta   90.01647374
_cell_angle_gamma   60.22561294
_symmetry_Int_Tables_number   1
_chemical_formula_structural   Al31B5N36
_chemical_formula_sum   'Al31 B5 N36'
_cell_volume   717.80775938
_cell_formula_units_Z   1
loop_
 _symmetry_equiv_pos_site_id
 _symmetry_equiv_pos_as_xyz
  1  'x, y, z'
loop_
 _atom_site_type_symbol
 _atom_site_label
 _atom_site_symmetry_multiplicity
 _atom_site_fract_x
 _atom_site_fract_y
 _atom_site_fract_z
 _atom_site_occupancy
  B  B0  1  0.11048506  0.10481699  0.38280952  1
  B  B1  1  0.58114991  0.49582527  0.14983860  1
  B  B2  1  0.22653934  0.90432078  0.14435137  1
  B  B3  1  0.55011217  0.88527102  0.14221656  1
  B  B4  1  0.77620492  0.77133718  0.38072588  1
  Al  Al5  1  0.22197595  0.20741322  0.13840323  1
  Al  Al6  1  0.77951852  0.10085269  0.88259827  1
  Al  Al7  1  0.89178732  0.21296915  0.62727927  1
  Al  Al8  1  0.44507760  0.09538919  0.37822803  1
  Al  Al9  1  0.55969744  0.20804779  0.13511560  1
  Al  Al10  1  0.11392324  0.09832602  0.88483497  1
  Al  Al11  1  0.22002929  0.21306798  0.62655778  1
  Al  Al12  1  0.78109650  0.09588120  0.38513897  1
  Al  Al13  1  0.89738918  0.20301264  0.13981596  1
  Al  Al14  1  0.44431179  0.09815924  0.88675416  1
  Al  Al15  1  0.55335073  0.21410786  0.63461163  1
  Al  Al16  1  0.10451907  0.44100318  0.38255625  1
  Al  Al17  1  0.22748749  0.55604338  0.13398271  1
  Al  Al18  1  0.77196834  0.43859767  0.88622796  1
  Al  Al19  1  0.88341904  0.55328654  0.62811819  1
  Al  Al20  1  0.44497199  0.43447501  0.38333686  1
  Al  Al21  1  0.10840095  0.43744824  0.88433131  1
  Al  Al22  1  0.22110021  0.55045368  0.63477737  1
  Al  Al23  1  0.78228311  0.43665300  0.38151790  1
  Al  Al24  1  0.86913430  0.56160332  0.13871241  1
  Al  Al25  1  0.44814105  0.43972993  0.88704079  1
  Al  Al26  1  0.55179865  0.55410648  0.63323481  1
  Al  Al27  1  0.10730003  0.77593329  0.37525276  1
  Al  Al28  1  0.76771963  0.77385414  0.88482700  1
  Al  Al29  1  0.88712721  0.87789920  0.62713392  1
  Al  Al30  1  0.44689253  0.77021407  0.35212699  1
  Al  Al31  1  0.11273236  0.77490201  0.88795230  1
  Al  Al32  1  0.22502335  0.88070136  0.62260125  1
  Al  Al33  1  0.88380427  0.87757926  0.13574672  1
  Al  Al34  1  0.43951428  0.77808079  0.90130053  1
  Al  Al35  1  0.55274290  0.87834300  0.62235401  1
  N  N36  1  0.20637612  0.20593950  0.33200343  1
  N  N37  1  0.11989567  0.08540080  0.07798021  1
  N  N38  1  0.88994662  0.21561297  0.82408165  1
  N  N39  1  0.77720466  0.10188885  0.57683259  1
  N  N40  1  0.55596212  0.21281271  0.32624112  1
  N  N41  1  0.45276113  0.08671899  0.08505770  1
  N  N42  1  0.22023867  0.21451572  0.82363633  1
  N  N43  1  0.11230524  0.10015897  0.55021446  1
  N  N44  1  0.91269583  0.20164205  0.33302508  1
  N  N45  1  0.78155834  0.09854474  0.07680904  1
  N  N46  1  0.55281318  0.21597867  0.82985333  1
  N  N47  1  0.44399910  0.10195647  0.57068240  1
  N  N48  1  0.22307466  0.54823683  0.32472791  1
  N  N49  1  0.10584960  0.43949195  0.08026760  1
  N  N50  1  0.88373576  0.55113994  0.82543073  1
  N  N51  1  0.77512372  0.43679385  0.57289661  1
  N  N52  1  0.56251176  0.53427405  0.30196768  1
  N  N53  1  0.46407369  0.44144227  0.08371736  1
  N  N54  1  0.22256685  0.54956903  0.83125359  1
  N  N55  1  0.10932146  0.43824291  0.57586991  1
  N  N56  1  0.87350601  0.57496540  0.33113359  1
  N  N57  1  0.75615676  0.43840353  0.08667287  1
  N  N58  1  0.55055664  0.55785090  0.82730463  1
  N  N59  1  0.44529362  0.43655110  0.57574059  1
  N  N60  1  0.20713079  0.91059151  0.31080862  1
  N  N61  1  0.12088911  0.78374088  0.08400687  1
  N  N62  1  0.88808841  0.87718306  0.82379364  1
  N  N63  1  0.77335378  0.77161764  0.54947548  1
  N  N64  1  0.57819414  0.87175053  0.31047470  1
  N  N65  1  0.42240387  0.81507069  0.09692964  1
  N  N66  1  0.22398425  0.88173079  0.81727799  1
  N  N67  1  0.11110411  0.76979197  0.56917459  1
  N  N68  1  0.87531788  0.86781203  0.32950032  1
  N  N69  1  0.74355416  0.78439027  0.07702805  1
  N  N70  1  0.55099813  0.88099581  0.81644403  1
  N  N71  1  0.44503084  0.76573210  0.55266288  1
