# generated using pymatgen
data_Al31B5N36
_symmetry_space_group_name_H-M   'P 1'
_cell_length_a   9.15489500
_cell_length_b   9.22831454
_cell_length_c   10.18544863
_cell_angle_alpha   91.06344869
_cell_angle_beta   90.05645188
_cell_angle_gamma   60.18176797
_symmetry_Int_Tables_number   1
_chemical_formula_structural   Al31B5N36
_chemical_formula_sum   'Al31 B5 N36'
_cell_volume   746.42242459
_cell_formula_units_Z   1
loop_
 _symmetry_equiv_pos_site_id
 _symmetry_equiv_pos_as_xyz
  1  'x, y, z'
loop_
 _atom_site_type_symbol
 _atom_site_label
 _atom_site_symmetry_multiplicity
 _atom_site_fract_x
 _atom_site_fract_y
 _atom_site_fract_z
 _atom_site_occupancy
  B  B0  1  0.11438685  0.09763474  0.30866579  1
  B  B1  1  0.58318205  0.48181486  0.15880525  1
  B  B2  1  0.23197546  0.88862256  0.15440459  1
  B  B3  1  0.53875093  0.88321741  0.10368160  1
  B  B4  1  0.77401398  0.76492017  0.35714898  1
  Al  Al5  1  0.22628159  0.19424021  0.07956817  1
  Al  Al6  1  0.78020479  0.09215347  0.81760929  1
  Al  Al7  1  0.90020678  0.19173520  0.56079002  1
  Al  Al8  1  0.45355687  0.08016783  0.31980775  1
  Al  Al9  1  0.56429876  0.18986073  0.07040078  1
  Al  Al10  1  0.10685586  0.10383105  0.82069962  1
  Al  Al11  1  0.22421372  0.19408974  0.55647736  1
  Al  Al12  1  0.78249243  0.08588062  0.31797978  1
  Al  Al13  1  0.89573476  0.19144984  0.07841536  1
  Al  Al14  1  0.43612079  0.10267323  0.81541827  1
  Al  Al15  1  0.56126213  0.19720102  0.56655212  1
  Al  Al16  1  0.10370169  0.43839412  0.38205025  1
  Al  Al17  1  0.23144339  0.54381410  0.14036286  1
  Al  Al18  1  0.76737667  0.43447365  0.90055519  1
  Al  Al19  1  0.89622135  0.52435101  0.64219096  1
  Al  Al20  1  0.44345422  0.43219463  0.38933571  1
  Al  Al21  1  0.10602090  0.43308234  0.89971434  1
  Al  Al22  1  0.22560361  0.53077833  0.63750448  1
  Al  Al23  1  0.78240235  0.43175853  0.38201178  1
  Al  Al24  1  0.86002830  0.56294302  0.14140903  1
  Al  Al25  1  0.44781598  0.43401215  0.89425784  1
  Al  Al26  1  0.55700594  0.53953487  0.64144978  1
  Al  Al27  1  0.10794627  0.77134534  0.32636427  1
  Al  Al28  1  0.77217662  0.76190827  0.83373669  1
  Al  Al29  1  0.89055449  0.86169747  0.56762951  1
  Al  Al30  1  0.45434395  0.75977316  0.37780361  1
  Al  Al31  1  0.11159279  0.76096478  0.84398135  1
  Al  Al32  1  0.23020098  0.86481270  0.63810628  1
  Al  Al33  1  0.88437986  0.87006625  0.06892887  1
  Al  Al34  1  0.43641482  0.77390556  0.90370463  1
  Al  Al35  1  0.55648448  0.86558011  0.62697344  1
  N  N36  1  0.21373176  0.18926515  0.36536628  1
  N  N37  1  0.11224142  0.09153197  0.14988304  1
  N  N38  1  0.89041329  0.19979772  0.89081440  1
  N  N39  1  0.78267633  0.08975906  0.62868053  1
  N  N40  1  0.56020480  0.19844727  0.37809724  1
  N  N41  1  0.45515541  0.07592351  0.13147719  1
  N  N42  1  0.22412459  0.20031588  0.89263350  1
  N  N43  1  0.11027715  0.10027796  0.63360390  1
  N  N44  1  0.92186251  0.18286552  0.36938578  1
  N  N45  1  0.77936838  0.08876441  0.13513565  1
  N  N46  1  0.55804388  0.19994887  0.88309266  1
  N  N47  1  0.43831324  0.10267105  0.62616683  1
  N  N48  1  0.22703257  0.53690151  0.32605875  1
  N  N49  1  0.09868714  0.44445468  0.08807506  1
  N  N50  1  0.89193723  0.52436784  0.83265609  1
  N  N51  1  0.77567136  0.42769111  0.56932158  1
  N  N52  1  0.56240638  0.52650857  0.30548320  1
  N  N53  1  0.46445814  0.43380301  0.08937433  1
  N  N54  1  0.22709775  0.52919555  0.83170557  1
  N  N55  1  0.11117521  0.42750521  0.56954954  1
  N  N56  1  0.87261904  0.57185895  0.33086485  1
  N  N57  1  0.75112191  0.43582797  0.09584578  1
  N  N58  1  0.55278142  0.54566597  0.83063862  1
  N  N59  1  0.44651860  0.43079022  0.57733905  1
  N  N60  1  0.22819523  0.89143035  0.31567054  1
  N  N61  1  0.12205726  0.77954743  0.12173304  1
  N  N62  1  0.88792107  0.87316384  0.88309033  1
  N  N63  1  0.78762821  0.75416212  0.63570826  1
  N  N64  1  0.59162872  0.85553391  0.36597600  1
  N  N65  1  0.41655320  0.81763322  0.08905395  1
  N  N66  1  0.22607365  0.87125495  0.82845362  1
  N  N67  1  0.11365691  0.75647048  0.60556555  1
  N  N68  1  0.87646521  0.85693548  0.37415306  1
  N  N69  1  0.72864982  0.78270187  0.08312222  1
  N  N70  1  0.54224716  0.87331206  0.82174793  1
  N  N71  1  0.44559618  0.75351013  0.56576047  1
