# generated using pymatgen
data_Al31B5N36
_symmetry_space_group_name_H-M   'P 1'
_cell_length_a   9.16091707
_cell_length_b   9.24121070
_cell_length_c   9.76854864
_cell_angle_alpha   90.22872213
_cell_angle_beta   90.01656609
_cell_angle_gamma   60.22570626
_symmetry_Int_Tables_number   1
_chemical_formula_structural   Al31B5N36
_chemical_formula_sum   'Al31 B5 N36'
_cell_volume   717.80663945
_cell_formula_units_Z   1
loop_
 _symmetry_equiv_pos_site_id
 _symmetry_equiv_pos_as_xyz
  1  'x, y, z'
loop_
 _atom_site_type_symbol
 _atom_site_label
 _atom_site_symmetry_multiplicity
 _atom_site_fract_x
 _atom_site_fract_y
 _atom_site_fract_z
 _atom_site_occupancy
  B  B0  1  0.11158275  0.09720587  0.38527148  1
  B  B1  1  0.58224461  0.48821898  0.15230361  1
  B  B2  1  0.22762604  0.89670042  0.14681159  1
  B  B3  1  0.55120861  0.87766140  0.14468133  1
  B  B4  1  0.77730333  0.76372561  0.38318919  1
  Al  Al5  1  0.22307555  0.19979981  0.14086609  1
  Al  Al6  1  0.78061600  0.09324185  0.88506540  1
  Al  Al7  1  0.89288510  0.20535808  0.62974439  1
  Al  Al8  1  0.44617431  0.08777800  0.38069559  1
  Al  Al9  1  0.56079456  0.20043725  0.13758621  1
  Al  Al10  1  0.11502090  0.09071531  0.88730157  1
  Al  Al11  1  0.22112741  0.20545589  0.62902590  1
  Al  Al12  1  0.78219441  0.08827081  0.38760916  1
  Al  Al13  1  0.89848470  0.19540415  0.14227935  1
  Al  Al14  1  0.44541149  0.09054723  0.88921803  1
  Al  Al15  1  0.55444845  0.20649620  0.63708083  1
  Al  Al16  1  0.10561720  0.43339004  0.38502041  1
  Al  Al17  1  0.22858912  0.54843434  0.13645244  1
  Al  Al18  1  0.77306614  0.43098723  0.88869030  1
  Al  Al19  1  0.88451854  0.54567262  0.63058011  1
  Al  Al20  1  0.44607099  0.42686303  0.38580660  1
  Al  Al21  1  0.10949909  0.42983752  0.88680089  1
  Al  Al22  1  0.22219965  0.54283902  0.63724652  1
  Al  Al23  1  0.78338058  0.42904233  0.38397925  1
  Al  Al24  1  0.87023305  0.55399267  0.14117575  1
  Al  Al25  1  0.44923979  0.43211733  0.88950564  1
  Al  Al26  1  0.55289716  0.54649436  0.63569903  1
  Al  Al27  1  0.10839752  0.76832080  0.37772629  1
  Al  Al28  1  0.76881818  0.76624258  0.88729426  1
  Al  Al29  1  0.88822424  0.87028738  0.62960293  1
  Al  Al30  1  0.44798777  0.76260350  0.35458880  1
  Al  Al31  1  0.11383354  0.76729138  0.89041435  1
  Al  Al32  1  0.22612248  0.87309031  0.62506292  1
  Al  Al33  1  0.88490547  0.86996951  0.13821609  1
  Al  Al34  1  0.44061412  0.77046981  0.90376606  1
  Al  Al35  1  0.55384104  0.87073017  0.62481496  1
  N  N36  1  0.20747392  0.19832638  0.33446197  1
  N  N37  1  0.12098956  0.07779174  0.08044260  1
  N  N38  1  0.89104554  0.20800219  0.82654531  1
  N  N39  1  0.77830532  0.09427541  0.57929941  1
  N  N40  1  0.55706097  0.20520055  0.32870527  1
  N  N41  1  0.45385988  0.07910817  0.08751866  1
  N  N42  1  0.22133466  0.20690581  0.82610221  1
  N  N43  1  0.11340197  0.09254880  0.55267553  1
  N  N44  1  0.91379290  0.19403090  0.33548441  1
  N  N45  1  0.78265762  0.09093459  0.07927246  1
  N  N46  1  0.55391347  0.20836672  0.83231940  1
  N  N47  1  0.44509593  0.09434442  0.57314741  1
  N  N48  1  0.22417047  0.54062921  0.32719106  1
  N  N49  1  0.10694740  0.43188448  0.08273179  1
  N  N50  1  0.88483420  0.54353023  0.82789278  1
  N  N51  1  0.77622306  0.42918251  0.57535729  1
  N  N52  1  0.56361015  0.52666371  0.30442463  1
  N  N53  1  0.46517171  0.43383174  0.08617925  1
  N  N54  1  0.22366272  0.54196053  0.83372054  1
  N  N55  1  0.11041855  0.43063152  0.57833226  1
  N  N56  1  0.87460536  0.56735363  0.33359214  1
  N  N57  1  0.75725561  0.43079408  0.08913162  1
  N  N58  1  0.55165581  0.55024130  0.82976914  1
  N  N59  1  0.44639067  0.42894098  0.57820783  1
  N  N60  1  0.20822428  0.90297915  0.31327052  1
  N  N61  1  0.12199705  0.77613802  0.08646987  1
  N  N62  1  0.88918818  0.86957163  0.82626046  1
  N  N63  1  0.77445305  0.76400589  0.55193654  1
  N  N64  1  0.57929100  0.86414073  0.31293513  1
  N  N65  1  0.42350154  0.80745732  0.09939044  1
  N  N66  1  0.22508293  0.87412278  0.81974023  1
  N  N67  1  0.11220008  0.76218203  0.57164302  1
  N  N68  1  0.87641666  0.86020074  0.33196391  1
  N  N69  1  0.74465554  0.77677963  0.07949125  1
  N  N70  1  0.55209937  0.87338251  0.81890646  1
  N  N71  1  0.44612720  0.75812201  0.55512292  1
