# generated using pymatgen
data_Al31B5N36
_symmetry_space_group_name_H-M   'P 1'
_cell_length_a   9.12440524
_cell_length_b   9.20930436
_cell_length_c   10.09701961
_cell_angle_alpha   89.55966297
_cell_angle_beta   89.84290629
_cell_angle_gamma   60.31102934
_symmetry_Int_Tables_number   1
_chemical_formula_structural   Al31B5N36
_chemical_formula_sum   'Al31 B5 N36'
_cell_volume   737.04617289
_cell_formula_units_Z   1
loop_
 _symmetry_equiv_pos_site_id
 _symmetry_equiv_pos_as_xyz
  1  'x, y, z'
loop_
 _atom_site_type_symbol
 _atom_site_label
 _atom_site_symmetry_multiplicity
 _atom_site_fract_x
 _atom_site_fract_y
 _atom_site_fract_z
 _atom_site_occupancy
  B  B0  1  0.11069529  0.09426387  0.31488645  1
  B  B1  1  0.58960747  0.47274656  0.04860063  1
  B  B2  1  0.22902095  0.89059186  0.11129284  1
  B  B3  1  0.54106838  0.88594731  0.10318475  1
  B  B4  1  0.77284273  0.76538943  0.35311430  1
  Al  Al5  1  0.22283466  0.20185680  0.06933285  1
  Al  Al6  1  0.78351062  0.08839251  0.80886621  1
  Al  Al7  1  0.89245311  0.20520082  0.55570816  1
  Al  Al8  1  0.45092553  0.08555985  0.31483029  1
  Al  Al9  1  0.56283452  0.19313744  0.05872852  1
  Al  Al10  1  0.11708281  0.08729467  0.81186234  1
  Al  Al11  1  0.21923962  0.20453575  0.55392380  1
  Al  Al12  1  0.78157363  0.08819490  0.31119600  1
  Al  Al13  1  0.89840213  0.19174535  0.06489417  1
  Al  Al14  1  0.43960344  0.09568615  0.81189615  1
  Al  Al15  1  0.55480370  0.20527939  0.56011939  1
  Al  Al16  1  0.10404455  0.43535869  0.30870012  1
  Al  Al17  1  0.22970532  0.55152526  0.05838897  1
  Al  Al18  1  0.78160329  0.42139320  0.81522887  1
  Al  Al19  1  0.88576359  0.54204785  0.56302780  1
  Al  Al20  1  0.45037825  0.42840133  0.30413124  1
  Al  Al21  1  0.11299059  0.42332222  0.81136455  1
  Al  Al22  1  0.22434170  0.53740317  0.55815506  1
  Al  Al23  1  0.77505981  0.43382349  0.30496094  1
  Al  Al24  1  0.86623253  0.55278772  0.05713191  1
  Al  Al25  1  0.44635264  0.42537295  0.81540787  1
  Al  Al26  1  0.55802979  0.53174260  0.55903882  1
  Al  Al27  1  0.11225861  0.76885505  0.31224559  1
  Al  Al28  1  0.78012563  0.75717566  0.82066120  1
  Al  Al29  1  0.88549445  0.86832324  0.55932399  1
  Al  Al30  1  0.44868215  0.77076737  0.37750420  1
  Al  Al31  1  0.11470672  0.75772757  0.80546866  1
  Al  Al32  1  0.21406210  0.88034461  0.57353535  1
  Al  Al33  1  0.88317303  0.87210928  0.06004444  1
  Al  Al34  1  0.44073229  0.76520467  0.90564983  1
  Al  Al35  1  0.55118747  0.86607033  0.62879491  1
  N  N36  1  0.20947015  0.19698088  0.36118632  1
  N  N37  1  0.11909745  0.08012220  0.14479752  1
  N  N38  1  0.89392748  0.19877465  0.87678596  1
  N  N39  1  0.78058755  0.09176675  0.61716358  1
  N  N40  1  0.55540596  0.20822220  0.37030984  1
  N  N41  1  0.45358041  0.07890050  0.12367138  1
  N  N42  1  0.22125634  0.20389600  0.88092139  1
  N  N43  1  0.10710420  0.10191847  0.62482277  1
  N  N44  1  0.91088140  0.19866304  0.36216720  1
  N  N45  1  0.78109670  0.08805911  0.12506769  1
  N  N46  1  0.55910026  0.19952940  0.87188730  1
  N  N47  1  0.43835680  0.10100168  0.61964866  1
  N  N48  1  0.22638196  0.53991049  0.36650119  1
  N  N49  1  0.10355408  0.44040992  0.12068524  1
  N  N50  1  0.89134275  0.53287572  0.87179359  1
  N  N51  1  0.77721504  0.42507461  0.62466351  1
  N  N52  1  0.55890115  0.53433852  0.36992963  1
  N  N53  1  0.46603365  0.42678862  0.11235898  1
  N  N54  1  0.22308574  0.53722663  0.87206843  1
  N  N55  1  0.11212313  0.42503884  0.61802569  1
  N  N56  1  0.87241557  0.56824836  0.36691565  1
  N  N57  1  0.75763588  0.42742432  0.11425852  1
  N  N58  1  0.56590467  0.52070526  0.90316645  1
  N  N59  1  0.44620959  0.42589442  0.62693262  1
  N  N60  1  0.20200190  0.90695572  0.37111729  1
  N  N61  1  0.13482959  0.78004114  0.12195955  1
  N  N62  1  0.89430567  0.86845240  0.87295679  1
  N  N63  1  0.78531917  0.75501567  0.62869285  1
  N  N64  1  0.59000861  0.86065314  0.35804234  1
  N  N65  1  0.41674658  0.81800479  0.09198053  1
  N  N66  1  0.22817833  0.86470947  0.84297853  1
  N  N67  1  0.10832200  0.75748609  0.61481621  1
  N  N68  1  0.87840972  0.85624779  0.36568645  1
  N  N69  1  0.72930887  0.78401591  0.08572705  1
  N  N70  1  0.54814763  0.86535459  0.82178752  1
  N  N71  1  0.44364448  0.75911076  0.56870810  1
