# generated using pymatgen
data_Al31B5N36
_symmetry_space_group_name_H-M   'P 1'
_cell_length_a   9.19610960
_cell_length_b   9.29169954
_cell_length_c   9.75392166
_cell_angle_alpha   90.02789891
_cell_angle_beta   89.78915776
_cell_angle_gamma   59.97559190
_symmetry_Int_Tables_number   1
_chemical_formula_structural   Al31B5N36
_chemical_formula_sum   'Al31 B5 N36'
_cell_volume   721.60214063
_cell_formula_units_Z   1
loop_
 _symmetry_equiv_pos_site_id
 _symmetry_equiv_pos_as_xyz
  1  'x, y, z'
loop_
 _atom_site_type_symbol
 _atom_site_label
 _atom_site_symmetry_multiplicity
 _atom_site_fract_x
 _atom_site_fract_y
 _atom_site_fract_z
 _atom_site_occupancy
  B  B0  1  0.11199359  0.10076715  0.38914393  1
  B  B1  1  0.58432344  0.48296997  0.15529851  1
  B  B2  1  0.24483481  0.91724546  0.15800668  1
  B  B3  1  0.55443419  0.87925667  0.14706214  1
  B  B4  1  0.77734628  0.76526733  0.38573026  1
  Al  Al5  1  0.22409819  0.20394439  0.14312192  1
  Al  Al6  1  0.78108941  0.09251351  0.88610424  1
  Al  Al7  1  0.89301632  0.20602168  0.63209902  1
  Al  Al8  1  0.44722616  0.08945948  0.38279524  1
  Al  Al9  1  0.56190630  0.20176789  0.13884716  1
  Al  Al10  1  0.11620153  0.08959231  0.88928527  1
  Al  Al11  1  0.22154226  0.20646702  0.63097811  1
  Al  Al12  1  0.78256624  0.08925024  0.38910326  1
  Al  Al13  1  0.90001494  0.19317378  0.14456740  1
  Al  Al14  1  0.44555393  0.09191145  0.89098753  1
  Al  Al15  1  0.55471589  0.20777395  0.63870485  1
  Al  Al16  1  0.10501789  0.43530611  0.38719758  1
  Al  Al17  1  0.22384045  0.54497629  0.13689618  1
  Al  Al18  1  0.77267079  0.43110972  0.89097218  1
  Al  Al19  1  0.88416220  0.54662611  0.63281992  1
  Al  Al20  1  0.44588778  0.42773144  0.38705943  1
  Al  Al21  1  0.10932151  0.42955867  0.88748302  1
  Al  Al22  1  0.22205387  0.54402065  0.63670932  1
  Al  Al23  1  0.78439832  0.42941968  0.38590019  1
  Al  Al24  1  0.86959405  0.55415938  0.14219644  1
  Al  Al25  1  0.44809750  0.43328428  0.89066792  1
  Al  Al26  1  0.55289725  0.54719577  0.63831025  1
  Al  Al27  1  0.10924377  0.76941276  0.37338934  1
  Al  Al28  1  0.76765140  0.76734067  0.88843104  1
  Al  Al29  1  0.88832736  0.87126340  0.62853165  1
  Al  Al30  1  0.45243987  0.76186104  0.35921380  1
  Al  Al31  1  0.10905288  0.76444709  0.89236138  1
  Al  Al32  1  0.22545305  0.87325167  0.62758644  1
  Al  Al33  1  0.88004212  0.86801601  0.13909344  1
  Al  Al34  1  0.43824525  0.77286029  0.90608406  1
  Al  Al35  1  0.55373664  0.87219183  0.62723131  1
  N  N36  1  0.20790496  0.20043897  0.33734579  1
  N  N37  1  0.12455178  0.07890981  0.08437382  1
  N  N38  1  0.89167648  0.20784894  0.82979551  1
  N  N39  1  0.77873554  0.09612204  0.58076731  1
  N  N40  1  0.55767529  0.20647921  0.33044482  1
  N  N41  1  0.45481939  0.08253712  0.08988749  1
  N  N42  1  0.22134036  0.20616455  0.82794261  1
  N  N43  1  0.11425988  0.09361522  0.55548891  1
  N  N44  1  0.91524944  0.19444590  0.33789289  1
  N  N45  1  0.78393725  0.09038991  0.08109766  1
  N  N46  1  0.55396020  0.20941121  0.83421202  1
  N  N47  1  0.44587843  0.09569646  0.57541803  1
  N  N48  1  0.22443799  0.54020040  0.32859724  1
  N  N49  1  0.10554120  0.42760991  0.08363645  1
  N  N50  1  0.88373202  0.54407204  0.83059856  1
  N  N51  1  0.77669778  0.43002746  0.57789516  1
  N  N52  1  0.56394312  0.52705695  0.30615467  1
  N  N53  1  0.46455296  0.43496560  0.08831358  1
  N  N54  1  0.22395420  0.53998039  0.83231674  1
  N  N55  1  0.11016548  0.43171021  0.58037537  1
  N  N56  1  0.87432913  0.56836939  0.33509702  1
  N  N57  1  0.75730097  0.42948531  0.09174656  1
  N  N58  1  0.55074917  0.55179355  0.83315307  1
  N  N59  1  0.44733823  0.43018299  0.57958176  1
  N  N60  1  0.21377789  0.90682930  0.31430611  1
  N  N61  1  0.10122672  0.76010289  0.08173762  1
  N  N62  1  0.88577906  0.87086810  0.82403375  1
  N  N63  1  0.77448226  0.76466645  0.55380566  1
  N  N64  1  0.58049211  0.86559181  0.31601458  1
  N  N65  1  0.42288549  0.81793015  0.10289475  1
  N  N66  1  0.22238688  0.87276104  0.82356081  1
  N  N67  1  0.11311844  0.76367077  0.56949418  1
  N  N68  1  0.87536794  0.86214196  0.33415654  1
  N  N69  1  0.74009522  0.77777725  0.08130736  1
  N  N70  1  0.55013266  0.87468276  0.82132033  1
  N  N71  1  0.44680079  0.75918075  0.55848947  1
