# generated using pymatgen
data_Al31B5N36
_symmetry_space_group_name_H-M   'P 1'
_cell_length_a   9.15235198
_cell_length_b   9.14007813
_cell_length_c   10.27298632
_cell_angle_alpha   89.80004668
_cell_angle_beta   90.02049419
_cell_angle_gamma   59.99415866
_symmetry_Int_Tables_number   1
_chemical_formula_structural   Al31B5N36
_chemical_formula_sum   'Al31 B5 N36'
_cell_volume   744.18424639
_cell_formula_units_Z   1
loop_
 _symmetry_equiv_pos_site_id
 _symmetry_equiv_pos_as_xyz
  1  'x, y, z'
loop_
 _atom_site_type_symbol
 _atom_site_label
 _atom_site_symmetry_multiplicity
 _atom_site_fract_x
 _atom_site_fract_y
 _atom_site_fract_z
 _atom_site_occupancy
  B  B0  1  0.11493618  0.08882104  0.35751848  1
  B  B1  1  0.55412922  0.54453535  0.11433461  1
  B  B2  1  0.21824106  0.87454361  0.10256219  1
  B  B3  1  0.56293015  0.86439818  0.10204920  1
  B  B4  1  0.77514554  0.76303739  0.35849380  1
  Al  Al5  1  0.23049241  0.18665337  0.06094546  1
  Al  Al6  1  0.77853266  0.09409004  0.80967255  1
  Al  Al7  1  0.89423520  0.20321714  0.56028156  1
  Al  Al8  1  0.45236699  0.07650255  0.31350773  1
  Al  Al9  1  0.56131820  0.20090637  0.06283774  1
  Al  Al10  1  0.11104296  0.09618100  0.82198910  1
  Al  Al11  1  0.22156405  0.20338055  0.56229608  1
  Al  Al12  1  0.78239266  0.08758193  0.31203899  1
  Al  Al13  1  0.89106663  0.19870572  0.06118766  1
  Al  Al14  1  0.44137418  0.10026573  0.81134138  1
  Al  Al15  1  0.55484828  0.20547772  0.55557218  1
  Al  Al16  1  0.10594993  0.42957794  0.31032691  1
  Al  Al17  1  0.22893325  0.54381553  0.06189687  1
  Al  Al18  1  0.78454357  0.42387824  0.80815188  1
  Al  Al19  1  0.88937302  0.54163061  0.56200918  1
  Al  Al20  1  0.44670055  0.43063943  0.31189997  1
  Al  Al21  1  0.11290846  0.42589521  0.80999022  1
  Al  Al22  1  0.22309702  0.53809613  0.55680567  1
  Al  Al23  1  0.77584198  0.43686252  0.31417450  1
  Al  Al24  1  0.87505953  0.54449782  0.05887789  1
  Al  Al25  1  0.44264825  0.42462049  0.81091586  1
  Al  Al26  1  0.55408057  0.54111563  0.61814312  1
  Al  Al27  1  0.11138031  0.76917230  0.31483413  1
  Al  Al28  1  0.78219862  0.75755941  0.82106528  1
  Al  Al29  1  0.88849426  0.86934986  0.56177540  1
  Al  Al30  1  0.44745120  0.76643002  0.39238154  1
  Al  Al31  1  0.10986332  0.75520801  0.81073736  1
  Al  Al32  1  0.22646500  0.87169963  0.63079822  1
  Al  Al33  1  0.88436730  0.87412908  0.06104614  1
  Al  Al34  1  0.44685896  0.75666279  0.88689864  1
  Al  Al35  1  0.55634736  0.86858428  0.63048601  1
  N  N36  1  0.21060801  0.19028602  0.36998689  1
  N  N37  1  0.12990850  0.05561736  0.08951004  1
  N  N38  1  0.88574319  0.20641892  0.87659679  1
  N  N39  1  0.77823357  0.09439084  0.61987501  1
  N  N40  1  0.55431270  0.20416666  0.36760791  1
  N  N41  1  0.45907430  0.06033375  0.12228364  1
  N  N42  1  0.22473441  0.20696924  0.87713765  1
  N  N43  1  0.10669667  0.10436983  0.63222370  1
  N  N44  1  0.91737354  0.19314548  0.36826596  1
  N  N45  1  0.77982876  0.09188135  0.12845617  1
  N  N46  1  0.55738063  0.20356733  0.87838845  1
  N  N47  1  0.44130845  0.10237421  0.62217952  1
  N  N48  1  0.22231000  0.53934670  0.36898168  1
  N  N49  1  0.11163647  0.42409637  0.12395555  1
  N  N50  1  0.89348228  0.53246897  0.87531721  1
  N  N51  1  0.78758963  0.42283969  0.61932191  1
  N  N52  1  0.55633902  0.53807652  0.36227505  1
  N  N53  1  0.45904885  0.44267996  0.11942602  1
  N  N54  1  0.22309452  0.53645567  0.87787982  1
  N  N55  1  0.11268606  0.42688433  0.62076076  1
  N  N56  1  0.87787634  0.56622158  0.37091121  1
  N  N57  1  0.75076143  0.44159245  0.12245082  1
  N  N58  1  0.55514136  0.54208781  0.82022000  1
  N  N59  1  0.44008494  0.42176066  0.62286942  1
  N  N60  1  0.20677104  0.90470411  0.36043727  1
  N  N61  1  0.12642778  0.77247696  0.12276734  1
  N  N62  1  0.89195714  0.87288834  0.87660901  1
  N  N63  1  0.78897927  0.75521363  0.63193323  1
  N  N64  1  0.59229332  0.85433625  0.36313602  1
  N  N65  1  0.44988305  0.75286121  0.08594531  1
  N  N66  1  0.23010704  0.86434838  0.82378868  1
  N  N67  1  0.10828461  0.75619120  0.62157313  1
  N  N68  1  0.87872519  0.85703432  0.37043656  1
  N  N69  1  0.74440426  0.77586412  0.09019187  1
  N  N70  1  0.55077615  0.87013279  0.82382504  1
  N  N71  1  0.44307156  0.76472701  0.57433726  1
