# generated using pymatgen
data_Al31B5N36
_symmetry_space_group_name_H-M   'P 1'
_cell_length_a   9.12534092
_cell_length_b   9.21123997
_cell_length_c   10.10141390
_cell_angle_alpha   89.57805778
_cell_angle_beta   89.87709335
_cell_angle_gamma   60.29079046
_symmetry_Int_Tables_number   1
_chemical_formula_structural   Al31B5N36
_chemical_formula_sum   'Al31 B5 N36'
_cell_volume   737.45018749
_cell_formula_units_Z   1
loop_
 _symmetry_equiv_pos_site_id
 _symmetry_equiv_pos_as_xyz
  1  'x, y, z'
loop_
 _atom_site_type_symbol
 _atom_site_label
 _atom_site_symmetry_multiplicity
 _atom_site_fract_x
 _atom_site_fract_y
 _atom_site_fract_z
 _atom_site_occupancy
  B  B0  1  0.11128554  0.09375106  0.31535901  1
  B  B1  1  0.58906362  0.47318897  0.04833195  1
  B  B2  1  0.22877541  0.89140973  0.11669164  1
  B  B3  1  0.53985351  0.88683168  0.10123919  1
  B  B4  1  0.77210983  0.76552612  0.35344152  1
  Al  Al5  1  0.22240127  0.20233951  0.06971674  1
  Al  Al6  1  0.78344166  0.08821824  0.80874848  1
  Al  Al7  1  0.89366508  0.20381380  0.55476434  1
  Al  Al8  1  0.45084479  0.08536038  0.31482900  1
  Al  Al9  1  0.56247741  0.19336936  0.05882057  1
  Al  Al10  1  0.11542154  0.09038665  0.81165654  1
  Al  Al11  1  0.21956536  0.20388034  0.55299248  1
  Al  Al12  1  0.78150726  0.08842755  0.31130030  1
  Al  Al13  1  0.89755580  0.19252740  0.06574904  1
  Al  Al14  1  0.43987603  0.09561690  0.81143106  1
  Al  Al15  1  0.55518491  0.20515988  0.55988558  1
  Al  Al16  1  0.10369344  0.43579658  0.30864658  1
  Al  Al17  1  0.22947523  0.55142299  0.05917719  1
  Al  Al18  1  0.78150646  0.42122115  0.81488111  1
  Al  Al19  1  0.88631193  0.54147004  0.56307398  1
  Al  Al20  1  0.45033258  0.42878872  0.30423665  1
  Al  Al21  1  0.11317346  0.42281661  0.81098268  1
  Al  Al22  1  0.22462732  0.53658988  0.55728475  1
  Al  Al23  1  0.77412250  0.43468788  0.30525636  1
  Al  Al24  1  0.86567321  0.55302158  0.05700427  1
  Al  Al25  1  0.44644215  0.42500484  0.81517947  1
  Al  Al26  1  0.55928423  0.53058076  0.55876956  1
  Al  Al27  1  0.11299769  0.77021793  0.31338165  1
  Al  Al28  1  0.78025160  0.75692237  0.82068036  1
  Al  Al29  1  0.88641375  0.86803507  0.55846493  1
  Al  Al30  1  0.44461301  0.77337019  0.38107515  1
  Al  Al31  1  0.11263218  0.75514736  0.80559247  1
  Al  Al32  1  0.22122426  0.87454356  0.60127405  1
  Al  Al33  1  0.88252517  0.87238402  0.06091702  1
  Al  Al34  1  0.43922713  0.76573970  0.90222167  1
  Al  Al35  1  0.55347981  0.86616066  0.62771923  1
  N  N36  1  0.20946096  0.19771296  0.36081988  1
  N  N37  1  0.11803270  0.08184963  0.14428760  1
  N  N38  1  0.89399222  0.19824665  0.87757828  1
  N  N39  1  0.78109257  0.09127352  0.61725819  1
  N  N40  1  0.55527328  0.20837697  0.37020294  1
  N  N41  1  0.45327710  0.07905438  0.12359102  1
  N  N42  1  0.22175203  0.20340201  0.88131107  1
  N  N43  1  0.10651182  0.10398513  0.62498913  1
  N  N44  1  0.91037816  0.19907589  0.36194907  1
  N  N45  1  0.78057827  0.08842642  0.12522107  1
  N  N46  1  0.55917647  0.19940068  0.87192882  1
  N  N47  1  0.43869192  0.10100587  0.61940827  1
  N  N48  1  0.22620090  0.54028286  0.36586412  1
  N  N49  1  0.10286773  0.44101985  0.12064244  1
  N  N50  1  0.89150652  0.53248315  0.87168780  1
  N  N51  1  0.77814970  0.42397676  0.62458232  1
  N  N52  1  0.55787408  0.53556589  0.37009283  1
  N  N53  1  0.46585465  0.42707831  0.11228972  1
  N  N54  1  0.22342898  0.53640148  0.87290952  1
  N  N55  1  0.11283540  0.42424845  0.61789482  1
  N  N56  1  0.87212933  0.56846773  0.36701914  1
  N  N57  1  0.75674755  0.42823485  0.11419653  1
  N  N58  1  0.56539352  0.52101528  0.90270397  1
  N  N59  1  0.44642442  0.42578726  0.62687473  1
  N  N60  1  0.20320210  0.90744093  0.36698609  1
  N  N61  1  0.13444741  0.78088102  0.12067095  1
  N  N62  1  0.89425568  0.86853145  0.87389998  1
  N  N63  1  0.78682137  0.75450683  0.62884346  1
  N  N64  1  0.58913935  0.86050263  0.35875588  1
  N  N65  1  0.41339185  0.82062227  0.08722665  1
  N  N66  1  0.23263174  0.86190934  0.82207139  1
  N  N67  1  0.10754836  0.75488128  0.61509361  1
  N  N68  1  0.87803159  0.85639357  0.36522155  1
  N  N69  1  0.72803409  0.78442189  0.08505089  1
  N  N70  1  0.54856143  0.86553171  0.82116330  1
  N  N71  1  0.44657763  0.75767910  0.57000870  1
