# generated using pymatgen
data_Al31B5N36
_symmetry_space_group_name_H-M   'P 1'
_cell_length_a   9.12398940
_cell_length_b   9.21630134
_cell_length_c   10.23362391
_cell_angle_alpha   90.27273974
_cell_angle_beta   89.93506556
_cell_angle_gamma   60.41167904
_symmetry_Int_Tables_number   1
_chemical_formula_structural   Al31B5N36
_chemical_formula_sum   'Al31 B5 N36'
_cell_volume   748.30701522
_cell_formula_units_Z   1
loop_
 _symmetry_equiv_pos_site_id
 _symmetry_equiv_pos_as_xyz
  1  'x, y, z'
loop_
 _atom_site_type_symbol
 _atom_site_label
 _atom_site_symmetry_multiplicity
 _atom_site_fract_x
 _atom_site_fract_y
 _atom_site_fract_z
 _atom_site_occupancy
  B  B0  1  0.11678345  0.08739551  0.35310083  1
  B  B1  1  0.58836822  0.48461002  0.16383950  1
  B  B2  1  0.22831213  0.89221764  0.09866663  1
  B  B3  1  0.54068889  0.88203101  0.09559270  1
  B  B4  1  0.77618147  0.76510661  0.35643759  1
  Al  Al5  1  0.22514978  0.19837176  0.06216130  1
  Al  Al6  1  0.78001084  0.08840461  0.80926755  1
  Al  Al7  1  0.89660242  0.19559320  0.55921006  1
  Al  Al8  1  0.45261143  0.07879785  0.31411500  1
  Al  Al9  1  0.56216749  0.19483740  0.06103710  1
  Al  Al10  1  0.11276180  0.09469576  0.81995005  1
  Al  Al11  1  0.21972675  0.20457676  0.56092148  1
  Al  Al12  1  0.78465980  0.08346672  0.31037264  1
  Al  Al13  1  0.89411292  0.19306761  0.06511586  1
  Al  Al14  1  0.44046193  0.09765691  0.80788737  1
  Al  Al15  1  0.55672954  0.20330808  0.55867648  1
  Al  Al16  1  0.10473353  0.43304451  0.30820178  1
  Al  Al17  1  0.23424927  0.54788839  0.06347762  1
  Al  Al18  1  0.77841457  0.42339084  0.84364549  1
  Al  Al19  1  0.89073458  0.54281684  0.56137008  1
  Al  Al20  1  0.44004424  0.42251034  0.31351156  1
  Al  Al21  1  0.11209844  0.42616886  0.81299497  1
  Al  Al22  1  0.22310281  0.53769773  0.55924250  1
  Al  Al23  1  0.78551173  0.42744104  0.34912824  1
  Al  Al24  1  0.86678775  0.55149486  0.06868646  1
  Al  Al25  1  0.44308521  0.42113515  0.81211256  1
  Al  Al26  1  0.55685607  0.54123292  0.63070430  1
  Al  Al27  1  0.11444384  0.77084489  0.31045425  1
  Al  Al28  1  0.77846863  0.75774777  0.82209491  1
  Al  Al29  1  0.88994009  0.86630746  0.56104496  1
  Al  Al30  1  0.44912626  0.76600753  0.37982699  1
  Al  Al31  1  0.11142216  0.75486640  0.81037244  1
  Al  Al32  1  0.22837835  0.86968631  0.62433637  1
  Al  Al33  1  0.88398358  0.87119911  0.06057682  1
  Al  Al34  1  0.44287220  0.76379246  0.89114924  1
  Al  Al35  1  0.55662374  0.86579612  0.62181470  1
  N  N36  1  0.20837230  0.19396776  0.36847313  1
  N  N37  1  0.12216205  0.07172514  0.09550775  1
  N  N38  1  0.88691354  0.20125981  0.87598962  1
  N  N39  1  0.78002267  0.08950893  0.62073006  1
  N  N40  1  0.55814871  0.20392624  0.37215944  1
  N  N41  1  0.45307972  0.07556207  0.12441702  1
  N  N42  1  0.22366978  0.20870151  0.87619351  1
  N  N43  1  0.10769842  0.10244671  0.63066157  1
  N  N44  1  0.92161137  0.18323443  0.36758890  1
  N  N45  1  0.78019127  0.08722291  0.12699345  1
  N  N46  1  0.55765922  0.20147851  0.87504472  1
  N  N47  1  0.44052133  0.09962005  0.61824669  1
  N  N48  1  0.22107961  0.54252125  0.37135104  1
  N  N49  1  0.10825849  0.43522351  0.12307557  1
  N  N50  1  0.89148196  0.53447065  0.87877763  1
  N  N51  1  0.77629105  0.42466169  0.57262494  1
  N  N52  1  0.55454197  0.54385452  0.30686470  1
  N  N53  1  0.46600754  0.42200270  0.12403957  1
  N  N54  1  0.22439121  0.53767071  0.87788577  1
  N  N55  1  0.11181081  0.42588917  0.62265229  1
  N  N56  1  0.87862711  0.57142422  0.36921559  1
  N  N57  1  0.76603073  0.42192975  0.12286210  1
  N  N58  1  0.55470422  0.54393572  0.82077341  1
  N  N59  1  0.44231996  0.42100484  0.62245372  1
  N  N60  1  0.21032424  0.90515789  0.36031555  1
  N  N61  1  0.13349643  0.77684697  0.12022105  1
  N  N62  1  0.89241926  0.87050859  0.87528208  1
  N  N63  1  0.78978618  0.75267636  0.63125429  1
  N  N64  1  0.59264650  0.85729556  0.36421295  1
  N  N65  1  0.42064051  0.81047668  0.07573916  1
  N  N66  1  0.23089330  0.86504968  0.81854318  1
  N  N67  1  0.10897123  0.75451555  0.62046689  1
  N  N68  1  0.88076844  0.85690385  0.36853367  1
  N  N69  1  0.72936567  0.78381945  0.08539626  1
  N  N70  1  0.54782978  0.86995305  0.81546625  1
  N  N71  1  0.44797989  0.75202459  0.56383033  1
