# generated using pymatgen
data_Al31B5N36
_symmetry_space_group_name_H-M   'P 1'
_cell_length_a   9.16070701
_cell_length_b   9.24077991
_cell_length_c   9.76867465
_cell_angle_alpha   90.23102179
_cell_angle_beta   90.01922751
_cell_angle_gamma   60.22777398
_symmetry_Int_Tables_number   1
_chemical_formula_structural   Al31B5N36
_chemical_formula_sum   'Al31 B5 N36'
_cell_volume   717.78072340
_cell_formula_units_Z   1
loop_
 _symmetry_equiv_pos_site_id
 _symmetry_equiv_pos_as_xyz
  1  'x, y, z'
loop_
 _atom_site_type_symbol
 _atom_site_label
 _atom_site_symmetry_multiplicity
 _atom_site_fract_x
 _atom_site_fract_y
 _atom_site_fract_z
 _atom_site_occupancy
  B  B0  1  0.11244004  0.09432607  0.41404984  1
  B  B1  1  0.58309595  0.48544227  0.18108564  1
  B  B2  1  0.22833455  0.89366721  0.17552638  1
  B  B3  1  0.55206285  0.87477119  0.17347551  1
  B  B4  1  0.77817365  0.76085146  0.41198082  1
  Al  Al5  1  0.22393391  0.19692094  0.16965584  1
  Al  Al6  1  0.78149862  0.09039445  0.91386852  1
  Al  Al7  1  0.89375227  0.20249847  0.65852720  1
  Al  Al8  1  0.44702748  0.08490562  0.40947902  1
  Al  Al9  1  0.56166043  0.19756743  0.16637938  1
  Al  Al10  1  0.11588510  0.08789665  0.91609320  1
  Al  Al11  1  0.22198983  0.20261068  0.65781567  1
  Al  Al12  1  0.78306056  0.08539672  0.41640251  1
  Al  Al13  1  0.89934441  0.19257375  0.17107445  1
  Al  Al14  1  0.44628214  0.08769128  0.91801489  1
  Al  Al15  1  0.55532390  0.20361982  0.66587223  1
  Al  Al16  1  0.10649415  0.43052962  0.41381580  1
  Al  Al17  1  0.22952399  0.54560662  0.16526606  1
  Al  Al18  1  0.77395588  0.42813840  0.91747940  1
  Al  Al19  1  0.88539242  0.54281465  0.65936788  1
  Al  Al20  1  0.44695976  0.42398843  0.41460334  1
  Al  Al21  1  0.11037835  0.42701670  0.91560107  1
  Al  Al22  1  0.22309161  0.53997837  0.66605738  1
  Al  Al23  1  0.78424351  0.42618058  0.41277403  1
  Al  Al24  1  0.87112444  0.55113957  0.16998109  1
  Al  Al25  1  0.45014265  0.42925302  0.91830491  1
  Al  Al26  1  0.55377702  0.54363289  0.66448473  1
  Al  Al27  1  0.10926583  0.76545686  0.40658502  1
  Al  Al28  1  0.76971274  0.76338802  0.91609734  1
  Al  Al29  1  0.88910405  0.86741870  0.65842520  1
  Al  Al30  1  0.44881817  0.75974975  0.38336262  1
  Al  Al31  1  0.11476843  0.76447682  0.91920091  1
  Al  Al32  1  0.22700694  0.87025095  0.65385791  1
  Al  Al33  1  0.88580911  0.86713507  0.16702273  1
  Al  Al34  1  0.44152594  0.76759898  0.93255243  1
  Al  Al35  1  0.55471375  0.86786764  0.65361001  1
  N  N36  1  0.20832917  0.19546468  0.36324662  1
  N  N37  1  0.12183252  0.07493019  0.10921764  1
  N  N38  1  0.89191581  0.20515539  0.85532347  1
  N  N39  1  0.77917529  0.09139396  0.60809514  1
  N  N40  1  0.55792599  0.20232167  0.35749544  1
  N  N41  1  0.45471826  0.07622261  0.11631028  1
  N  N42  1  0.22220813  0.20408698  0.85489653  1
  N  N43  1  0.11426302  0.08969770  0.58146406  1
  N  N44  1  0.91464683  0.19116561  0.36427747  1
  N  N45  1  0.78352281  0.08808305  0.10806922  1
  N  N46  1  0.55479632  0.20550168  0.86111362  1
  N  N47  1  0.44595198  0.09148344  0.60193370  1
  N  N48  1  0.22504935  0.53777929  0.35599498  1
  N  N49  1  0.10784069  0.42908238  0.11153194  1
  N  N50  1  0.88572575  0.54068068  0.85667694  1
  N  N51  1  0.77709575  0.42631898  0.60414762  1
  N  N52  1  0.56448155  0.52380307  0.33322101  1
  N  N53  1  0.46605989  0.43096588  0.11496815  1
  N  N54  1  0.22455743  0.53913456  0.86254013  1
  N  N55  1  0.11129693  0.42778553  0.60712850  1
  N  N56  1  0.87548330  0.56448572  0.36239466  1
  N  N57  1  0.75813826  0.42795593  0.11791916  1
  N  N58  1  0.55254850  0.54737340  0.85854967  1
  N  N59  1  0.44726764  0.42606341  0.60700618  1
  N  N60  1  0.20904624  0.90009359  0.34207520  1
  N  N61  1  0.12305280  0.77340319  0.11531161  1
  N  N62  1  0.89011099  0.86670669  0.85509519  1
  N  N63  1  0.77532464  0.76114917  0.58073356  1
  N  N64  1  0.58015338  0.86126513  0.34172055  1
  N  N65  1  0.42441623  0.80447468  0.12817358  1
  N  N66  1  0.22599445  0.87130215  0.84852443  1
  N  N67  1  0.11307445  0.75932060  0.60048287  1
  N  N68  1  0.87730584  0.85731449  0.36075721  1
  N  N69  1  0.74557543  0.77391449  0.10828900  1
  N  N70  1  0.55299962  0.87052896  0.84770162  1
  N  N71  1  0.44699340  0.75526104  0.58391187  1
