# generated using pymatgen
data_Al31B5N36
_symmetry_space_group_name_H-M   'P 1'
_cell_length_a   9.18441067
_cell_length_b   9.28673256
_cell_length_c   10.18564855
_cell_angle_alpha   90.61531181
_cell_angle_beta   89.79187361
_cell_angle_gamma   59.94739201
_symmetry_Int_Tables_number   1
_chemical_formula_structural   Al31B5N36
_chemical_formula_sum   'Al31 B5 N36'
_cell_volume   751.89033588
_cell_formula_units_Z   1
loop_
 _symmetry_equiv_pos_site_id
 _symmetry_equiv_pos_as_xyz
  1  'x, y, z'
loop_
 _atom_site_type_symbol
 _atom_site_label
 _atom_site_symmetry_multiplicity
 _atom_site_fract_x
 _atom_site_fract_y
 _atom_site_fract_z
 _atom_site_occupancy
  B  B0  1  0.11163717  0.10353272  0.30493134  1
  B  B1  1  0.59065310  0.47967114  0.15759823  1
  B  B2  1  0.25689711  0.91563395  0.15809531  1
  B  B3  1  0.54270610  0.88907902  0.09341100  1
  B  B4  1  0.77738167  0.76564469  0.35276863  1
  Al  Al5  1  0.22896571  0.20093577  0.06457466  1
  Al  Al6  1  0.78177833  0.09094073  0.80941103  1
  Al  Al7  1  0.90198980  0.19074152  0.55335635  1
  Al  Al8  1  0.45666943  0.08089511  0.31474036  1
  Al  Al9  1  0.56441306  0.19765952  0.05955547  1
  Al  Al10  1  0.10792521  0.09887579  0.81394750  1
  Al  Al11  1  0.22205818  0.20053157  0.55413755  1
  Al  Al12  1  0.78636511  0.08326593  0.31074367  1
  Al  Al13  1  0.90045117  0.18660807  0.07045647  1
  Al  Al14  1  0.44058416  0.09693372  0.80588783  1
  Al  Al15  1  0.55891328  0.20346989  0.55994399  1
  Al  Al16  1  0.11272574  0.42907718  0.30808292  1
  Al  Al17  1  0.22397503  0.54127523  0.06194961  1
  Al  Al18  1  0.76491403  0.43308910  0.89548475  1
  Al  Al19  1  0.88848538  0.52910148  0.63686446  1
  Al  Al20  1  0.44424737  0.42198634  0.31331036  1
  Al  Al21  1  0.11867021  0.41829397  0.81663422  1
  Al  Al22  1  0.22399369  0.53525341  0.56087912  1
  Al  Al23  1  0.78714257  0.43413635  0.37619016  1
  Al  Al24  1  0.86032529  0.56396987  0.12911617  1
  Al  Al25  1  0.44314962  0.42306252  0.81276828  1
  Al  Al26  1  0.55980627  0.54110142  0.63479863  1
  Al  Al27  1  0.10820395  0.76029860  0.29902719  1
  Al  Al28  1  0.76872834  0.76191510  0.83057432  1
  Al  Al29  1  0.88969972  0.86313306  0.56270911  1
  Al  Al30  1  0.45797507  0.75869855  0.37213398  1
  Al  Al31  1  0.10675599  0.75435152  0.81479285  1
  Al  Al32  1  0.23114220  0.86333170  0.63430295  1
  Al  Al33  1  0.87911542  0.86835915  0.05687289  1
  Al  Al34  1  0.43293237  0.77179820  0.89719408  1
  Al  Al35  1  0.55557241  0.86528499  0.61679518  1
  N  N36  1  0.21225711  0.19464783  0.36302872  1
  N  N37  1  0.11935172  0.09542099  0.14274136  1
  N  N38  1  0.89101810  0.19862257  0.88353461  1
  N  N39  1  0.78341899  0.09071221  0.61954854  1
  N  N40  1  0.56051937  0.20441692  0.37254956  1
  N  N41  1  0.45832242  0.07957283  0.12341841  1
  N  N42  1  0.22387818  0.20138948  0.87955022  1
  N  N43  1  0.11242319  0.09653320  0.62516104  1
  N  N44  1  0.92340402  0.18448605  0.36095216  1
  N  N45  1  0.78156274  0.08684760  0.12656734  1
  N  N46  1  0.55668225  0.20237368  0.87287157  1
  N  N47  1  0.44223410  0.09902649  0.61520927  1
  N  N48  1  0.22460065  0.54004191  0.37277054  1
  N  N49  1  0.11093982  0.42451896  0.12075950  1
  N  N50  1  0.88617799  0.52709101  0.83177547  1
  N  N51  1  0.77758446  0.42667450  0.56164060  1
  N  N52  1  0.56929236  0.53295183  0.30156551  1
  N  N53  1  0.46333158  0.42463066  0.12261839  1
  N  N54  1  0.22327949  0.53440136  0.87615765  1
  N  N55  1  0.12126397  0.41749016  0.62277768  1
  N  N56  1  0.87316769  0.57545159  0.32321164  1
  N  N57  1  0.75330174  0.43266973  0.08925132  1
  N  N58  1  0.55203054  0.54715485  0.82623167  1
  N  N59  1  0.44558071  0.42229594  0.62285937  1
  N  N60  1  0.23245846  0.89140672  0.30408379  1
  N  N61  1  0.09300152  0.75222360  0.12119293  1
  N  N62  1  0.88531324  0.87356083  0.87110298  1
  N  N63  1  0.78568111  0.75462005  0.62686428  1
  N  N64  1  0.59362670  0.85716160  0.36112748  1
  N  N65  1  0.41834915  0.82846314  0.08273642  1
  N  N66  1  0.22251463  0.86850322  0.82411016  1
  N  N67  1  0.10977287  0.75332359  0.62142708  1
  N  N68  1  0.87995016  0.85760811  0.37146386  1
  N  N69  1  0.72666502  0.78369333  0.07068803  1
  N  N70  1  0.53916141  0.87070528  0.81292169  1
  N  N71  1  0.44388140  0.75168386  0.55791439  1
