# generated using pymatgen
data_Al31B5N36
_symmetry_space_group_name_H-M   'P 1'
_cell_length_a   9.19441053
_cell_length_b   9.30257163
_cell_length_c   10.14708507
_cell_angle_alpha   90.45506726
_cell_angle_beta   89.76867204
_cell_angle_gamma   59.90980967
_symmetry_Int_Tables_number   1
_chemical_formula_structural   Al31B5N36
_chemical_formula_sum   'Al31 B5 N36'
_cell_volume   750.88094034
_cell_formula_units_Z   1
loop_
 _symmetry_equiv_pos_site_id
 _symmetry_equiv_pos_as_xyz
  1  'x, y, z'
loop_
 _atom_site_type_symbol
 _atom_site_label
 _atom_site_symmetry_multiplicity
 _atom_site_fract_x
 _atom_site_fract_y
 _atom_site_fract_z
 _atom_site_occupancy
  B  B0  1  0.11143542  0.10354884  0.30462656  1
  B  B1  1  0.59016132  0.47930694  0.15722829  1
  B  B2  1  0.25709771  0.91603832  0.15804343  1
  B  B3  1  0.54289843  0.88989906  0.09469934  1
  B  B4  1  0.77809786  0.76372662  0.35148907  1
  Al  Al5  1  0.22962319  0.20052040  0.06430757  1
  Al  Al6  1  0.78162901  0.09072673  0.80928950  1
  Al  Al7  1  0.90211736  0.19039882  0.55265086  1
  Al  Al8  1  0.45657240  0.08072116  0.31565089  1
  Al  Al9  1  0.56416268  0.19760182  0.05967972  1
  Al  Al10  1  0.10841315  0.09837949  0.81374568  1
  Al  Al11  1  0.22173830  0.20050965  0.55409681  1
  Al  Al12  1  0.78622962  0.08265218  0.31068325  1
  Al  Al13  1  0.90048984  0.18608238  0.07011133  1
  Al  Al14  1  0.44046514  0.09688170  0.80587982  1
  Al  Al15  1  0.55885635  0.20358015  0.55963617  1
  Al  Al16  1  0.11085872  0.43029733  0.30702413  1
  Al  Al17  1  0.22495989  0.54132801  0.06143371  1
  Al  Al18  1  0.76408303  0.43171374  0.89459136  1
  Al  Al19  1  0.88957802  0.53085343  0.62545124  1
  Al  Al20  1  0.44360680  0.42192605  0.31326870  1
  Al  Al21  1  0.11589357  0.41996618  0.81846272  1
  Al  Al22  1  0.22422851  0.53547989  0.56099755  1
  Al  Al23  1  0.78708079  0.43338202  0.37240499  1
  Al  Al24  1  0.86457983  0.56064544  0.11429688  1
  Al  Al25  1  0.44296815  0.42294734  0.81245085  1
  Al  Al26  1  0.55986037  0.54101288  0.63418619  1
  Al  Al27  1  0.10822544  0.76007200  0.29886536  1
  Al  Al28  1  0.76906411  0.76188677  0.83019716  1
  Al  Al29  1  0.89005240  0.86352035  0.56252288  1
  Al  Al30  1  0.45829344  0.75845800  0.37150339  1
  Al  Al31  1  0.10677931  0.75466507  0.81560731  1
  Al  Al32  1  0.23136933  0.86303564  0.63405823  1
  Al  Al33  1  0.87874477  0.86897675  0.05743022  1
  Al  Al34  1  0.43352324  0.77189987  0.89726376  1
  Al  Al35  1  0.55530677  0.86574277  0.61536516  1
  N  N36  1  0.21150647  0.19510145  0.36280408  1
  N  N37  1  0.11940735  0.09557539  0.14212421  1
  N  N38  1  0.89113361  0.19821378  0.88223796  1
  N  N39  1  0.78340095  0.09056367  0.61888811  1
  N  N40  1  0.56050909  0.20423685  0.37204800  1
  N  N41  1  0.45790293  0.08016580  0.12395611  1
  N  N42  1  0.22365942  0.20142603  0.87879070  1
  N  N43  1  0.11257971  0.09602051  0.62447667  1
  N  N44  1  0.92304879  0.18416371  0.36002662  1
  N  N45  1  0.78148239  0.08693412  0.12616703  1
  N  N46  1  0.55656833  0.20227154  0.87242864  1
  N  N47  1  0.44194217  0.09950344  0.61464948  1
  N  N48  1  0.22414944  0.53962517  0.37250055  1
  N  N49  1  0.11271847  0.42390944  0.11962709  1
  N  N50  1  0.88695207  0.53046372  0.84799099  1
  N  N51  1  0.77754503  0.42621419  0.56050278  1
  N  N52  1  0.56787135  0.53336482  0.30115783  1
  N  N53  1  0.46321668  0.42440340  0.12195636  1
  N  N54  1  0.22355570  0.53423079  0.87526046  1
  N  N55  1  0.12037309  0.41788192  0.62367667  1
  N  N56  1  0.87377560  0.57464044  0.32492354  1
  N  N57  1  0.75292651  0.43084699  0.08904831  1
  N  N58  1  0.55167887  0.54721834  0.82563627  1
  N  N59  1  0.44594543  0.42209349  0.62200712  1
  N  N60  1  0.23212977  0.89154723  0.30428548  1
  N  N61  1  0.09346158  0.75198777  0.12032446  1
  N  N62  1  0.88504710  0.87381895  0.87093540  1
  N  N63  1  0.78619354  0.75473378  0.62865714  1
  N  N64  1  0.59396550  0.85692701  0.36333613  1
  N  N65  1  0.41872458  0.82907444  0.08317684  1
  N  N66  1  0.22277375  0.86830252  0.82446959  1
  N  N67  1  0.10999519  0.75328071  0.62124074  1
  N  N68  1  0.88005642  0.85692908  0.37110038  1
  N  N69  1  0.72600072  0.78631453  0.07396476  1
  N  N70  1  0.53943783  0.87080942  0.81261729  1
  N  N71  1  0.44401465  0.75151461  0.55795983  1
