# generated using pymatgen
data_Al31B5N36
_symmetry_space_group_name_H-M   'P 1'
_cell_length_a   9.19624236
_cell_length_b   9.29187153
_cell_length_c   9.75385737
_cell_angle_alpha   90.02693402
_cell_angle_beta   89.78813734
_cell_angle_gamma   59.97419967
_symmetry_Int_Tables_number   1
_chemical_formula_structural   Al31B5N36
_chemical_formula_sum   'Al31 B5 N36'
_cell_volume   721.61099405
_cell_formula_units_Z   1
loop_
 _symmetry_equiv_pos_site_id
 _symmetry_equiv_pos_as_xyz
  1  'x, y, z'
loop_
 _atom_site_type_symbol
 _atom_site_label
 _atom_site_symmetry_multiplicity
 _atom_site_fract_x
 _atom_site_fract_y
 _atom_site_fract_z
 _atom_site_occupancy
  B  B0  1  0.11255720  0.09786876  0.39374796  1
  B  B1  1  0.58488611  0.48005792  0.15989856  1
  B  B2  1  0.24542757  0.91437763  0.16262390  1
  B  B3  1  0.55500274  0.87635370  0.15166218  1
  B  B4  1  0.77790510  0.76236545  0.39033019  1
  Al  Al5  1  0.22466301  0.20104370  0.14772319  1
  Al  Al6  1  0.78165186  0.08960167  0.89069351  1
  Al  Al7  1  0.89357844  0.20311646  0.63670213  1
  Al  Al8  1  0.44779306  0.08655961  0.38739569  1
  Al  Al9  1  0.56247100  0.19886658  0.14343697  1
  Al  Al10  1  0.11676609  0.08667935  0.89388430  1
  Al  Al11  1  0.22210538  0.20356260  0.63557673  1
  Al  Al12  1  0.78312968  0.08634998  0.39369506  1
  Al  Al13  1  0.90058123  0.19025985  0.14916294  1
  Al  Al14  1  0.44611461  0.08900774  0.89558829  1
  Al  Al15  1  0.55527778  0.20487354  0.64329929  1
  Al  Al16  1  0.10557591  0.43240491  0.39179325  1
  Al  Al17  1  0.22438829  0.54205410  0.14148627  1
  Al  Al18  1  0.77322816  0.42820175  0.89557501  1
  Al  Al19  1  0.88472126  0.54372130  0.63742203  1
  Al  Al20  1  0.44644851  0.42482824  0.39164754  1
  Al  Al21  1  0.10988144  0.42664821  0.89207187  1
  Al  Al22  1  0.22261549  0.54111617  0.64129254  1
  Al  Al23  1  0.78496228  0.42651344  0.39049867  1
  Al  Al24  1  0.87015258  0.55125171  0.14679282  1
  Al  Al25  1  0.44865359  0.43038195  0.89526438  1
  Al  Al26  1  0.55345822  0.54429101  0.64290673  1
  Al  Al27  1  0.10980821  0.76650781  0.37796850  1
  Al  Al28  1  0.76820785  0.76443578  0.89302335  1
  Al  Al29  1  0.88888803  0.86836001  0.63311131  1
  Al  Al30  1  0.45301222  0.75895553  0.36381981  1
  Al  Al31  1  0.10959871  0.76153088  0.89695442  1
  Al  Al32  1  0.22601246  0.87034466  0.63218356  1
  Al  Al33  1  0.88058190  0.86510731  0.14368959  1
  Al  Al34  1  0.43879976  0.76995764  0.91068551  1
  Al  Al35  1  0.55429640  0.86929140  0.63183190  1
  N  N36  1  0.20846931  0.19753731  0.34194852  1
  N  N37  1  0.12512284  0.07600527  0.08897683  1
  N  N38  1  0.89223844  0.20494020  0.83439916  1
  N  N39  1  0.77929878  0.09322345  0.58536059  1
  N  N40  1  0.55823977  0.20357685  0.33503724  1
  N  N41  1  0.45538393  0.07964077  0.09448806  1
  N  N42  1  0.22190110  0.20325224  0.83254055  1
  N  N43  1  0.11482404  0.09071261  0.56009097  1
  N  N44  1  0.91581587  0.19154114  0.34248996  1
  N  N45  1  0.78450381  0.08748035  0.08569076  1
  N  N46  1  0.55451924  0.20650784  0.83880924  1
  N  N47  1  0.44644363  0.09279627  0.58001847  1
  N  N48  1  0.22499772  0.53729138  0.33318936  1
  N  N49  1  0.10609757  0.42469039  0.08822821  1
  N  N50  1  0.88428718  0.54116416  0.83520027  1
  N  N51  1  0.77726196  0.42712284  0.58249569  1
  N  N52  1  0.56450370  0.52415495  0.31075264  1
  N  N53  1  0.46511099  0.43206496  0.09291223  1
  N  N54  1  0.22451458  0.53706637  0.83690145  1
  N  N55  1  0.11072534  0.42880743  0.58497226  1
  N  N56  1  0.87488791  0.56546592  0.33969415  1
  N  N57  1  0.75786124  0.42657554  0.09634757  1
  N  N58  1  0.55130643  0.54888931  0.83775335  1
  N  N59  1  0.44790290  0.42728165  0.58417142  1
  N  N60  1  0.21435320  0.90393166  0.31890490  1
  N  N61  1  0.10173823  0.75715653  0.08631827  1
  N  N62  1  0.88632953  0.86796206  0.82861366  1
  N  N63  1  0.77504289  0.76176169  0.55840290  1
  N  N64  1  0.58105689  0.86269053  0.32061703  1
  N  N65  1  0.42345195  0.81504548  0.10749767  1
  N  N66  1  0.22293939  0.86984737  0.82816377  1
  N  N67  1  0.11368387  0.76076840  0.57407752  1
  N  N68  1  0.87592565  0.85924156  0.33875515  1
  N  N69  1  0.74064602  0.77487217  0.08590354  1
  N  N70  1  0.55068548  0.87177955  0.82592076  1
  N  N71  1  0.44736535  0.75627950  0.56309242  1
