# generated using pymatgen
data_Al31B5N36
_symmetry_space_group_name_H-M   'P 1'
_cell_length_a   9.16095895
_cell_length_b   9.24125948
_cell_length_c   9.76848460
_cell_angle_alpha   90.22900171
_cell_angle_beta   90.01663045
_cell_angle_gamma   60.22558909
_symmetry_Int_Tables_number   1
_chemical_formula_structural   Al31B5N36
_chemical_formula_sum   'Al31 B5 N36'
_cell_volume   717.80814690
_cell_formula_units_Z   1
loop_
 _symmetry_equiv_pos_site_id
 _symmetry_equiv_pos_as_xyz
  1  'x, y, z'
loop_
 _atom_site_type_symbol
 _atom_site_label
 _atom_site_symmetry_multiplicity
 _atom_site_fract_x
 _atom_site_fract_y
 _atom_site_fract_z
 _atom_site_occupancy
  B  B0  1  0.11208415  0.09479955  0.39151827  1
  B  B1  1  0.58274782  0.48580821  0.15854999  1
  B  B2  1  0.22813654  0.89430311  0.15306053  1
  B  B3  1  0.55171101  0.87525368  0.15092654  1
  B  B4  1  0.77780401  0.76131934  0.38943476  1
  Al  Al5  1  0.22357511  0.19739584  0.14711233  1
  Al  Al6  1  0.78111645  0.09083414  0.89130610  1
  Al  Al7  1  0.89338591  0.20295057  0.63598795  1
  Al  Al8  1  0.44667610  0.08537180  0.38693726  1
  Al  Al9  1  0.56129535  0.19803124  0.14382535  1
  Al  Al10  1  0.11552222  0.08830758  0.89354343  1
  Al  Al11  1  0.22162897  0.20304925  0.63526680  1
  Al  Al12  1  0.78269473  0.08586438  0.39384865  1
  Al  Al13  1  0.89898715  0.19299460  0.14852462  1
  Al  Al14  1  0.44591092  0.08814128  0.89546344  1
  Al  Al15  1  0.55494890  0.20409003  0.64332067  1
  Al  Al16  1  0.10611749  0.43098533  0.39126464  1
  Al  Al17  1  0.22908685  0.54602589  0.14269203  1
  Al  Al18  1  0.77356653  0.42857950  0.89493680  1
  Al  Al19  1  0.88501895  0.54326658  0.63682645  1
  Al  Al20  1  0.44657115  0.42445660  0.39204624  1
  Al  Al21  1  0.11000043  0.42742971  0.89304068  1
  Al  Al22  1  0.22270085  0.54043384  0.64348656  1
  Al  Al23  1  0.78388213  0.42663525  0.39022638  1
  Al  Al24  1  0.87073366  0.55158527  0.14742162  1
  Al  Al25  1  0.44974032  0.42971077  0.89574952  1
  Al  Al26  1  0.55339803  0.54408696  0.64194227  1
  Al  Al27  1  0.10889943  0.76591471  0.38396215  1
  Al  Al28  1  0.76931793  0.76383590  0.89353617  1
  Al  Al29  1  0.88872590  0.86788125  0.63584295  1
  Al  Al30  1  0.44849142  0.76019624  0.36083674  1
  Al  Al31  1  0.11433163  0.76488347  0.89666100  1
  Al  Al32  1  0.22662268  0.87068245  0.63130883  1
  Al  Al33  1  0.88540332  0.86756129  0.14445677  1
  Al  Al34  1  0.44111373  0.76806295  0.91000978  1
  Al  Al35  1  0.55434124  0.86832533  0.63106180  1
  N  N36  1  0.20797413  0.19591977  0.34071015  1
  N  N37  1  0.12149271  0.07538360  0.08668872  1
  N  N38  1  0.89154645  0.20559366  0.83279149  1
  N  N39  1  0.77880615  0.09186830  0.58554204  1
  N  N40  1  0.55756185  0.20279315  0.33494728  1
  N  N41  1  0.45436000  0.07670137  0.09376570  1
  N  N42  1  0.22183573  0.20449663  0.83234580  1
  N  N43  1  0.11390378  0.09014005  0.55892246  1
  N  N44  1  0.91429480  0.19162272  0.34173138  1
  N  N45  1  0.78315926  0.08852599  0.08551624  1
  N  N46  1  0.55441345  0.20595892  0.83856330  1
  N  N47  1  0.44559761  0.09193647  0.57939122  1
  N  N48  1  0.22467136  0.53822044  0.33343357  1
  N  N49  1  0.10744742  0.42947397  0.08897513  1
  N  N50  1  0.88533407  0.54112176  0.83414012  1
  N  N51  1  0.77672492  0.42677450  0.58160557  1
  N  N52  1  0.56411195  0.52425628  0.31067164  1
  N  N53  1  0.46567280  0.43142493  0.09242489  1
  N  N54  1  0.22416405  0.53955229  0.83996412  1
  N  N55  1  0.11091903  0.42822490  0.58457836  1
  N  N56  1  0.87510596  0.56494575  0.33983982  1
  N  N57  1  0.75775723  0.42838431  0.09537958  1
  N  N58  1  0.55215683  0.54783302  0.83601523  1
  N  N59  1  0.44689210  0.42653358  0.58444998  1
  N  N60  1  0.20872887  0.90057330  0.31951574  1
  N  N61  1  0.12248825  0.77372408  0.09271440  1
  N  N62  1  0.88968809  0.86716311  0.83250313  1
  N  N63  1  0.77495344  0.76159873  0.55818345  1
  N  N64  1  0.57979298  0.86173237  0.31918144  1
  N  N65  1  0.42400096  0.80505418  0.10563651  1
  N  N66  1  0.22558234  0.87171280  0.82598751  1
  N  N67  1  0.11270185  0.75977486  0.57788333  1
  N  N68  1  0.87691684  0.85779272  0.33820777  1
  N  N69  1  0.74515404  0.77437059  0.08573603  1
  N  N70  1  0.55259831  0.87097543  0.82515383  1
  N  N71  1  0.44662877  0.75571477  0.56137105  1
