# generated using pymatgen
data_Al31B5N36
_symmetry_space_group_name_H-M   'P 1'
_cell_length_a   9.14233798
_cell_length_b   9.18662063
_cell_length_c   10.35344213
_cell_angle_alpha   91.42594105
_cell_angle_beta   90.83488526
_cell_angle_gamma   60.22637971
_symmetry_Int_Tables_number   1
_chemical_formula_structural   Al31B5N36
_chemical_formula_sum   'Al31 B5 N36'
_cell_volume   754.53380367
_cell_formula_units_Z   1
loop_
 _symmetry_equiv_pos_site_id
 _symmetry_equiv_pos_as_xyz
  1  'x, y, z'
loop_
 _atom_site_type_symbol
 _atom_site_label
 _atom_site_symmetry_multiplicity
 _atom_site_fract_x
 _atom_site_fract_y
 _atom_site_fract_z
 _atom_site_occupancy
  B  B0  1  0.11876504  0.08565525  0.36276037  1
  B  B1  1  0.58546723  0.47887677  0.17110952  1
  B  B2  1  0.22775525  0.88991365  0.10248433  1
  B  B3  1  0.53748080  0.88303847  0.10938021  1
  B  B4  1  0.77219650  0.76284249  0.36970355  1
  Al  Al5  1  0.22755827  0.19459790  0.08003182  1
  Al  Al6  1  0.77417851  0.08753238  0.83151893  1
  Al  Al7  1  0.88486568  0.21064690  0.65469310  1
  Al  Al8  1  0.45099080  0.07763942  0.32959440  1
  Al  Al9  1  0.56333894  0.19051564  0.08426356  1
  Al  Al10  1  0.11497153  0.09671190  0.84252278  1
  Al  Al11  1  0.22218324  0.19623603  0.57224477  1
  Al  Al12  1  0.78182884  0.07792528  0.33333947  1
  Al  Al13  1  0.90356569  0.19346570  0.15454190  1
  Al  Al14  1  0.43654451  0.10654043  0.82351820  1
  Al  Al15  1  0.55806543  0.19837456  0.57512512  1
  Al  Al16  1  0.10302601  0.43980084  0.39491700  1
  Al  Al17  1  0.23026791  0.55388715  0.15553608  1
  Al  Al18  1  0.77293827  0.42715093  0.91249556  1
  Al  Al19  1  0.89857959  0.52371118  0.65527559  1
  Al  Al20  1  0.44452203  0.43177294  0.39949480  1
  Al  Al21  1  0.10618994  0.43890234  0.90966777  1
  Al  Al22  1  0.22386721  0.53719023  0.65198398  1
  Al  Al23  1  0.78693149  0.42509866  0.39939170  1
  Al  Al24  1  0.86079772  0.56189010  0.15435724  1
  Al  Al25  1  0.44808705  0.43510910  0.90815253  1
  Al  Al26  1  0.55698151  0.53885292  0.65400132  1
  Al  Al27  1  0.11501458  0.76638959  0.40235420  1
  Al  Al28  1  0.77587019  0.76091380  0.84091340  1
  Al  Al29  1  0.88307383  0.86555231  0.58207311  1
  Al  Al30  1  0.44856700  0.76290959  0.39488802  1
  Al  Al31  1  0.12335942  0.76105289  0.90125283  1
  Al  Al32  1  0.22723100  0.86635805  0.64642614  1
  Al  Al33  1  0.87852414  0.87317569  0.07808334  1
  Al  Al34  1  0.44514923  0.76805817  0.90262783  1
  Al  Al35  1  0.55583926  0.86671087  0.64022140  1
  N  N36  1  0.21259932  0.18673813  0.38127153  1
  N  N37  1  0.11927652  0.07180245  0.09661048  1
  N  N38  1  0.88105321  0.21223750  0.84568649  1
  N  N39  1  0.77402567  0.08660977  0.64335619  1
  N  N40  1  0.55830351  0.19734900  0.38955125  1
  N  N41  1  0.45226418  0.07552409  0.14327254  1
  N  N42  1  0.22750659  0.20742762  0.89773562  1
  N  N43  1  0.11460858  0.09947468  0.64767835  1
  N  N44  1  0.92417925  0.18899210  0.34559433  1
  N  N45  1  0.77822797  0.08535782  0.15129615  1
  N  N46  1  0.55755207  0.20033581  0.90031271  1
  N  N47  1  0.43824068  0.10399839  0.63759733  1
  N  N48  1  0.22437957  0.54328921  0.33678330  1
  N  N49  1  0.09895351  0.44867225  0.09770911  1
  N  N50  1  0.89169093  0.52554870  0.84396486  1
  N  N51  1  0.77769239  0.42402926  0.58317971  1
  N  N52  1  0.56583903  0.52394316  0.31679597  1
  N  N53  1  0.46401206  0.43468891  0.10308338  1
  N  N54  1  0.22618689  0.53596900  0.84099845  1
  N  N55  1  0.11083053  0.43097496  0.58031547  1
  N  N56  1  0.87207894  0.56915986  0.34292514  1
  N  N57  1  0.75653030  0.42722910  0.10641467  1
  N  N58  1  0.55656907  0.54131527  0.84100688  1
  N  N59  1  0.44395487  0.43298726  0.58622522  1
  N  N60  1  0.21030561  0.90225606  0.36553683  1
  N  N61  1  0.13960060  0.77563735  0.09038226  1
  N  N62  1  0.88973744  0.87162436  0.89595680  1
  N  N63  1  0.78801056  0.75296821  0.64864654  1
  N  N64  1  0.58921190  0.85373394  0.37692741  1
  N  N65  1  0.41966670  0.81287250  0.08470313  1
  N  N66  1  0.22954077  0.86294311  0.83171061  1
  N  N67  1  0.11609694  0.75584145  0.58725139  1
  N  N68  1  0.87409683  0.85421541  0.39013471  1
  N  N69  1  0.72722761  0.78220387  0.09645920  1
  N  N70  1  0.54525109  0.87581175  0.83038633  1
  N  N71  1  0.44810640  0.75137924  0.58080480  1
