# generated using pymatgen
data_Al31B5N36
_symmetry_space_group_name_H-M   'P 1'
_cell_length_a   9.19074796
_cell_length_b   9.30763992
_cell_length_c   10.15066200
_cell_angle_alpha   90.36765890
_cell_angle_beta   89.74631854
_cell_angle_gamma   59.87027242
_symmetry_Int_Tables_number   1
_chemical_formula_structural   Al31B5N36
_chemical_formula_sum   'Al31 B5 N36'
_cell_volume   750.96604233
_cell_formula_units_Z   1
loop_
 _symmetry_equiv_pos_site_id
 _symmetry_equiv_pos_as_xyz
  1  'x, y, z'
loop_
 _atom_site_type_symbol
 _atom_site_label
 _atom_site_symmetry_multiplicity
 _atom_site_fract_x
 _atom_site_fract_y
 _atom_site_fract_z
 _atom_site_occupancy
  B  B0  1  0.11167631  0.10326504  0.30468780  1
  B  B1  1  0.58995671  0.47955821  0.15688933  1
  B  B2  1  0.25715548  0.91599283  0.15798563  1
  B  B3  1  0.54356014  0.88978467  0.09628504  1
  B  B4  1  0.77886857  0.76352602  0.35556206  1
  Al  Al5  1  0.22897574  0.20150986  0.06466739  1
  Al  Al6  1  0.78142173  0.09010419  0.80965579  1
  Al  Al7  1  0.90212974  0.19011674  0.55314692  1
  Al  Al8  1  0.45645861  0.08088260  0.31583446  1
  Al  Al9  1  0.56392983  0.19766304  0.05986557  1
  Al  Al10  1  0.10889266  0.09806328  0.81370711  1
  Al  Al11  1  0.22158045  0.20033545  0.55449173  1
  Al  Al12  1  0.78621655  0.08233354  0.31062213  1
  Al  Al13  1  0.90032091  0.18612682  0.07033163  1
  Al  Al14  1  0.44021121  0.09713304  0.80657933  1
  Al  Al15  1  0.55874539  0.20378545  0.55969841  1
  Al  Al16  1  0.10860833  0.43165250  0.30762434  1
  Al  Al17  1  0.22489115  0.54153393  0.06152382  1
  Al  Al18  1  0.76277879  0.42953481  0.89318433  1
  Al  Al19  1  0.89272604  0.53841988  0.57701862  1
  Al  Al20  1  0.44330995  0.42197185  0.31295260  1
  Al  Al21  1  0.10938234  0.42317877  0.81680502  1
  Al  Al22  1  0.22503191  0.53549432  0.56129130  1
  Al  Al23  1  0.78540734  0.42990280  0.37009156  1
  Al  Al24  1  0.87075187  0.55621003  0.07701385  1
  Al  Al25  1  0.44207902  0.42297564  0.81245110  1
  Al  Al26  1  0.56093489  0.54045354  0.63445553  1
  Al  Al27  1  0.10856714  0.76001545  0.29889347  1
  Al  Al28  1  0.77149146  0.75848046  0.82669864  1
  Al  Al29  1  0.89022969  0.86457229  0.56363426  1
  Al  Al30  1  0.45861289  0.75846473  0.37167565  1
  Al  Al31  1  0.10677600  0.75464711  0.81629215  1
  Al  Al32  1  0.23173913  0.86266645  0.63427818  1
  Al  Al33  1  0.87803977  0.86917721  0.05836544  1
  Al  Al34  1  0.43378126  0.77217508  0.89776004  1
  Al  Al35  1  0.55499507  0.86587131  0.61590635  1
  N  N36  1  0.21134082  0.19517693  0.36324049  1
  N  N37  1  0.11936930  0.09577058  0.14219657  1
  N  N38  1  0.89135226  0.19754928  0.88171794  1
  N  N39  1  0.78320467  0.09034732  0.61938064  1
  N  N40  1  0.56055017  0.20434856  0.37224242  1
  N  N41  1  0.45716118  0.08087659  0.12433161  1
  N  N42  1  0.22234716  0.20306258  0.87849539  1
  N  N43  1  0.11296512  0.09539479  0.62456275  1
  N  N44  1  0.92324812  0.18311017  0.36000034  1
  N  N45  1  0.78141436  0.08705409  0.12623690  1
  N  N46  1  0.55645658  0.20241554  0.87267562  1
  N  N47  1  0.44174104  0.09984391  0.61519246  1
  N  N48  1  0.22440764  0.53963942  0.37277615  1
  N  N49  1  0.11096888  0.42548937  0.12210058  1
  N  N50  1  0.88827580  0.53417677  0.87911755  1
  N  N51  1  0.77660643  0.42397784  0.56059443  1
  N  N52  1  0.56697219  0.53416830  0.30049695  1
  N  N53  1  0.46280526  0.42443498  0.12182874  1
  N  N54  1  0.22241243  0.53372804  0.87486408  1
  N  N55  1  0.11620681  0.41997665  0.62386463  1
  N  N56  1  0.87860072  0.57193394  0.35700160  1
  N  N57  1  0.75271556  0.42959899  0.08960170  1
  N  N58  1  0.55128489  0.54744893  0.82529598  1
  N  N59  1  0.44599106  0.42190443  0.62236707  1
  N  N60  1  0.23225602  0.89164645  0.30440605  1
  N  N61  1  0.09392105  0.75240747  0.12016894  1
  N  N62  1  0.88443469  0.87315317  0.87117953  1
  N  N63  1  0.78777173  0.75260022  0.63164857  1
  N  N64  1  0.59430496  0.85706811  0.36502134  1
  N  N65  1  0.41883801  0.82920702  0.08330061  1
  N  N66  1  0.22300786  0.86807219  0.82463789  1
  N  N67  1  0.11022030  0.75309243  0.62168692  1
  N  N68  1  0.88028227  0.85741857  0.37203251  1
  N  N69  1  0.72608739  0.78744684  0.08071847  1
  N  N70  1  0.54041900  0.87044548  0.81296518  1
  N  N71  1  0.44451853  0.75112794  0.55827851  1
