# generated using pymatgen
data_Al31B5N36
_symmetry_space_group_name_H-M   'P 1'
_cell_length_a   9.24138364
_cell_length_b   9.35238973
_cell_length_c   9.80383634
_cell_angle_alpha   90.32178250
_cell_angle_beta   89.88964628
_cell_angle_gamma   59.89265229
_symmetry_Int_Tables_number   1
_chemical_formula_structural   Al31B5N36
_chemical_formula_sum   'Al31 B5 N36'
_cell_volume   732.99684728
_cell_formula_units_Z   1
loop_
 _symmetry_equiv_pos_site_id
 _symmetry_equiv_pos_as_xyz
  1  'x, y, z'
loop_
 _atom_site_type_symbol
 _atom_site_label
 _atom_site_symmetry_multiplicity
 _atom_site_fract_x
 _atom_site_fract_y
 _atom_site_fract_z
 _atom_site_occupancy
  B  B0  1  0.11078357  0.09583261  0.40192778  1
  B  B1  1  0.58595831  0.47569244  0.16950282  1
  B  B2  1  0.24709438  0.91608647  0.17291560  1
  B  B3  1  0.55658646  0.87303364  0.16344230  1
  B  B4  1  0.77889988  0.75732665  0.40068273  1
  Al  Al5  1  0.22629381  0.20137901  0.13638313  1
  Al  Al6  1  0.77616801  0.09188804  0.83121486  1
  Al  Al7  1  0.89641213  0.20636279  0.64310107  1
  Al  Al8  1  0.45157705  0.08596021  0.34162322  1
  Al  Al9  1  0.56732263  0.18994745  0.08636541  1
  Al  Al10  1  0.11569572  0.08668009  0.90330321  1
  Al  Al11  1  0.22050532  0.20445687  0.59942413  1
  Al  Al12  1  0.78252530  0.08550846  0.34726255  1
  Al  Al13  1  0.90283071  0.19488822  0.15769757  1
  Al  Al14  1  0.44023183  0.09781178  0.82820060  1
  Al  Al15  1  0.55922200  0.20206257  0.58146381  1
  Al  Al16  1  0.10330722  0.43736833  0.39481670  1
  Al  Al17  1  0.22520589  0.54287708  0.14989204  1
  Al  Al18  1  0.77309271  0.42844949  0.90506845  1
  Al  Al19  1  0.88596257  0.54251306  0.64895322  1
  Al  Al20  1  0.44317068  0.43222587  0.39810852  1
  Al  Al21  1  0.10826796  0.42865824  0.90260076  1
  Al  Al22  1  0.22349584  0.53967287  0.65124268  1
  Al  Al23  1  0.78593466  0.42625533  0.40021579  1
  Al  Al24  1  0.86763003  0.55225449  0.15566101  1
  Al  Al25  1  0.44613757  0.43545849  0.90365051  1
  Al  Al26  1  0.55361500  0.54423805  0.65357934  1
  Al  Al27  1  0.10982326  0.76655803  0.38865047  1
  Al  Al28  1  0.76557444  0.76638017  0.90242207  1
  Al  Al29  1  0.89167878  0.86171339  0.63612923  1
  Al  Al30  1  0.45295064  0.75749999  0.37493314  1
  Al  Al31  1  0.10765554  0.76240081  0.90552022  1
  Al  Al32  1  0.22616554  0.86825536  0.64334516  1
  Al  Al33  1  0.88323785  0.85881964  0.15285894  1
  Al  Al34  1  0.43807586  0.77367389  0.92035834  1
  Al  Al35  1  0.55755378  0.86209403  0.63681614  1
  N  N36  1  0.20941881  0.19766068  0.36329959  1
  N  N37  1  0.12509690  0.07446234  0.09940287  1
  N  N38  1  0.89283682  0.20725962  0.84402738  1
  N  N39  1  0.77985556  0.09275392  0.62981043  1
  N  N40  1  0.55728126  0.20260631  0.38902937  1
  N  N41  1  0.45925440  0.07854632  0.14567033  1
  N  N42  1  0.21626822  0.20699157  0.85970576  1
  N  N43  1  0.11339466  0.08434251  0.56694128  1
  N  N44  1  0.91869259  0.19392727  0.35312577  1
  N  N45  1  0.78293768  0.08829513  0.14559997  1
  N  N46  1  0.55612469  0.20190090  0.89156288  1
  N  N47  1  0.44629057  0.09404683  0.62791997  1
  N  N48  1  0.22464828  0.53955679  0.34018566  1
  N  N49  1  0.10363253  0.42903328  0.10029225  1
  N  N50  1  0.88325380  0.54196007  0.84551091  1
  N  N51  1  0.77728874  0.42842395  0.59147669  1
  N  N52  1  0.56631147  0.52257232  0.31915233  1
  N  N53  1  0.46459366  0.43271192  0.10345111  1
  N  N54  1  0.22407176  0.53678128  0.84539662  1
  N  N55  1  0.10880564  0.43291971  0.58929853  1
  N  N56  1  0.87431170  0.56358785  0.34737278  1
  N  N57  1  0.75760952  0.42620807  0.10483683  1
  N  N58  1  0.55117041  0.54978618  0.84755593  1
  N  N59  1  0.44564954  0.43323950  0.59345568  1
  N  N60  1  0.21481497  0.90389855  0.32724853  1
  N  N61  1  0.10074115  0.75535486  0.09308842  1
  N  N62  1  0.88798041  0.86156263  0.83567628  1
  N  N63  1  0.77638889  0.75769832  0.56665720  1
  N  N64  1  0.58735019  0.85178149  0.33543810  1
  N  N65  1  0.42338765  0.81823071  0.11675074  1
  N  N66  1  0.22200364  0.86976073  0.83798038  1
  N  N67  1  0.11586757  0.75844310  0.58296355  1
  N  N68  1  0.87884381  0.85136751  0.35084219  1
  N  N69  1  0.73922378  0.77558888  0.09512324  1
  N  N70  1  0.55234882  0.86656298  0.83194723  1
  N  N71  1  0.44612762  0.75482852  0.57209221  1
