# generated using pymatgen
data_Al31B5N36
_symmetry_space_group_name_H-M   'P 1'
_cell_length_a   9.13347062
_cell_length_b   9.22868482
_cell_length_c   10.23501719
_cell_angle_alpha   90.80974507
_cell_angle_beta   89.62957042
_cell_angle_gamma   60.19156509
_symmetry_Int_Tables_number   1
_chemical_formula_structural   Al31B5N36
_chemical_formula_sum   'Al31 B5 N36'
_cell_volume   748.40052181
_cell_formula_units_Z   1
loop_
 _symmetry_equiv_pos_site_id
 _symmetry_equiv_pos_as_xyz
  1  'x, y, z'
loop_
 _atom_site_type_symbol
 _atom_site_label
 _atom_site_symmetry_multiplicity
 _atom_site_fract_x
 _atom_site_fract_y
 _atom_site_fract_z
 _atom_site_occupancy
  B  B0  1  0.11544557  0.09750634  0.31033078  1
  B  B1  1  0.59155504  0.48400199  0.16509056  1
  B  B2  1  0.23445221  0.89263070  0.15678236  1
  B  B3  1  0.53609630  0.88664727  0.10857863  1
  B  B4  1  0.77418220  0.75758884  0.40273632  1
  Al  Al5  1  0.22725133  0.19603822  0.08208260  1
  Al  Al6  1  0.78021065  0.09058767  0.81889833  1
  Al  Al7  1  0.89960688  0.19150324  0.56282286  1
  Al  Al8  1  0.45773086  0.07687444  0.32092912  1
  Al  Al9  1  0.56292182  0.19664922  0.06700437  1
  Al  Al10  1  0.10622376  0.10225219  0.82210891  1
  Al  Al11  1  0.22468688  0.19205090  0.55713670  1
  Al  Al12  1  0.78679727  0.08448957  0.31985555  1
  Al  Al13  1  0.89621292  0.19496502  0.07878081  1
  Al  Al14  1  0.43809901  0.09704305  0.81353130  1
  Al  Al15  1  0.55677364  0.20243305  0.56790839  1
  Al  Al16  1  0.10317346  0.43204131  0.37920784  1
  Al  Al17  1  0.23542781  0.55361804  0.07352552  1
  Al  Al18  1  0.76342833  0.43629231  0.90016897  1
  Al  Al19  1  0.89371718  0.53163087  0.63930338  1
  Al  Al20  1  0.44585510  0.42029987  0.31862359  1
  Al  Al21  1  0.10109984  0.43176351  0.90240079  1
  Al  Al22  1  0.22764225  0.53863904  0.56547059  1
  Al  Al23  1  0.78503304  0.43119544  0.38834923  1
  Al  Al24  1  0.86169329  0.56483598  0.15177274  1
  Al  Al25  1  0.44100457  0.42185807  0.82040143  1
  Al  Al26  1  0.55840930  0.54088297  0.64357083  1
  Al  Al27  1  0.11068903  0.76655413  0.31365649  1
  Al  Al28  1  0.76106305  0.76262228  0.88743890  1
  Al  Al29  1  0.89272546  0.86749329  0.56402390  1
  Al  Al30  1  0.45362003  0.76169046  0.37959006  1
  Al  Al31  1  0.10619548  0.75456865  0.82093896  1
  Al  Al32  1  0.22935153  0.86470297  0.64257309  1
  Al  Al33  1  0.89183266  0.87508616  0.07081112  1
  Al  Al34  1  0.43262808  0.77131593  0.90221702  1
  Al  Al35  1  0.55789871  0.86250977  0.62130379  1
  N  N36  1  0.21725520  0.18680692  0.36540013  1
  N  N37  1  0.11249469  0.09272907  0.15110531  1
  N  N38  1  0.88854567  0.20181366  0.89144882  1
  N  N39  1  0.78082491  0.08950643  0.63091725  1
  N  N40  1  0.55914767  0.20429996  0.38157553  1
  N  N41  1  0.45744008  0.07779912  0.13171208  1
  N  N42  1  0.22442866  0.19891545  0.89330381  1
  N  N43  1  0.10980437  0.09797906  0.63460340  1
  N  N44  1  0.92280949  0.18471028  0.37187198  1
  N  N45  1  0.77897549  0.09209418  0.13565661  1
  N  N46  1  0.55510837  0.20159212  0.88177358  1
  N  N47  1  0.43946246  0.09815374  0.62574160  1
  N  N48  1  0.22791372  0.54654041  0.37585702  1
  N  N49  1  0.09839279  0.44275624  0.09509804  1
  N  N50  1  0.88657188  0.53561586  0.83012792  1
  N  N51  1  0.77543261  0.42596992  0.57389287  1
  N  N52  1  0.57032577  0.53266395  0.30906681  1
  N  N53  1  0.46594627  0.42417773  0.12966333  1
  N  N54  1  0.22462316  0.54089027  0.88754226  1
  N  N55  1  0.10991030  0.42294617  0.57051255  1
  N  N56  1  0.87499239  0.56827691  0.33576594  1
  N  N57  1  0.75272613  0.43915882  0.09477413  1
  N  N58  1  0.55109767  0.54690036  0.83292425  1
  N  N59  1  0.44281055  0.42106335  0.63294611  1
  N  N60  1  0.22951419  0.89199981  0.31530471  1
  N  N61  1  0.12361417  0.77827237  0.12770047  1
  N  N62  1  0.88671701  0.87224202  0.88413419  1
  N  N63  1  0.78195450  0.74559821  0.56534017  1
  N  N64  1  0.58923128  0.85679481  0.36348010  1
  N  N65  1  0.41612411  0.82128230  0.08735084  1
  N  N66  1  0.22209221  0.87083130  0.83030253  1
  N  N67  1  0.10624755  0.75317860  0.63246472  1
  N  N68  1  0.88600335  0.86191289  0.37769719  1
  N  N69  1  0.73076516  0.78176014  0.07733455  1
  N  N70  1  0.55205828  0.86394205  0.81479359  1
  N  N71  1  0.44116533  0.75054786  0.56625126  1
