# generated using pymatgen
data_Al31B5N36
_symmetry_space_group_name_H-M   'P 1'
_cell_length_a   9.24401018
_cell_length_b   9.35074140
_cell_length_c   9.76697313
_cell_angle_alpha   90.20419076
_cell_angle_beta   89.72413751
_cell_angle_gamma   59.96395777
_symmetry_Int_Tables_number   1
_chemical_formula_structural   Al31B5N36
_chemical_formula_sum   'Al31 B5 N36'
_cell_volume   730.84262397
_cell_formula_units_Z   1
loop_
 _symmetry_equiv_pos_site_id
 _symmetry_equiv_pos_as_xyz
  1  'x, y, z'
loop_
 _atom_site_type_symbol
 _atom_site_label
 _atom_site_symmetry_multiplicity
 _atom_site_fract_x
 _atom_site_fract_y
 _atom_site_fract_z
 _atom_site_occupancy
  B  B0  1  0.11243085  0.10006706  0.40309239  1
  B  B1  1  0.58627481  0.47537120  0.16905147  1
  B  B2  1  0.24775401  0.91657869  0.17189053  1
  B  B3  1  0.55618522  0.87456300  0.16369762  1
  B  B4  1  0.78010829  0.75654305  0.40057932  1
  Al  Al5  1  0.22267704  0.20226854  0.15481326  1
  Al  Al6  1  0.77746968  0.09140967  0.83556484  1
  Al  Al7  1  0.89571325  0.20643385  0.64040693  1
  Al  Al8  1  0.45177088  0.08515140  0.34741451  1
  Al  Al9  1  0.56594724  0.19025623  0.08939304  1
  Al  Al10  1  0.11595677  0.08711554  0.90216530  1
  Al  Al11  1  0.21429096  0.20868225  0.63709921  1
  Al  Al12  1  0.78533681  0.08477234  0.35566287  1
  Al  Al13  1  0.90311003  0.19340828  0.15735257  1
  Al  Al14  1  0.44491009  0.09459186  0.82914053  1
  Al  Al15  1  0.55758094  0.20327730  0.58142350  1
  Al  Al16  1  0.10532312  0.43307767  0.39922390  1
  Al  Al17  1  0.22452524  0.54056287  0.14907117  1
  Al  Al18  1  0.77245188  0.42845521  0.90466595  1
  Al  Al19  1  0.88462586  0.54357768  0.64852321  1
  Al  Al20  1  0.44287861  0.43227976  0.39684212  1
  Al  Al21  1  0.10863619  0.42712422  0.90073772  1
  Al  Al22  1  0.22286585  0.54126822  0.65028740  1
  Al  Al23  1  0.78570412  0.42712585  0.39915486  1
  Al  Al24  1  0.86931123  0.55124776  0.15456261  1
  Al  Al25  1  0.44568274  0.43561302  0.90353491  1
  Al  Al26  1  0.55288006  0.54485800  0.65267975  1
  Al  Al27  1  0.11086822  0.76552661  0.38620711  1
  Al  Al28  1  0.76604809  0.76582316  0.90244079  1
  Al  Al29  1  0.89184964  0.86216577  0.63501820  1
  Al  Al30  1  0.45285496  0.75741787  0.37306752  1
  Al  Al31  1  0.10767468  0.76219103  0.90555389  1
  Al  Al32  1  0.22575309  0.87007689  0.64125635  1
  Al  Al33  1  0.88192957  0.86019608  0.15337436  1
  Al  Al34  1  0.43800208  0.77283637  0.92033852  1
  Al  Al35  1  0.55692347  0.86259983  0.63469458  1
  N  N36  1  0.20672208  0.19904431  0.35375231  1
  N  N37  1  0.12652989  0.07573676  0.09716531  1
  N  N38  1  0.89299475  0.20736006  0.84260833  1
  N  N39  1  0.78074571  0.09228938  0.62363205  1
  N  N40  1  0.55780216  0.20338904  0.38737478  1
  N  N41  1  0.45775108  0.07814244  0.14629185  1
  N  N42  1  0.21284185  0.20783834  0.83755104  1
  N  N43  1  0.11568407  0.08899487  0.56768699  1
  N  N44  1  0.91919423  0.19430993  0.35366515  1
  N  N45  1  0.78392322  0.08767516  0.14156931  1
  N  N46  1  0.55531195  0.20228901  0.89155684  1
  N  N47  1  0.44582536  0.09369083  0.62492113  1
  N  N48  1  0.22411681  0.53749628  0.34021874  1
  N  N49  1  0.10623876  0.42355650  0.09652638  1
  N  N50  1  0.88319218  0.54167524  0.84575163  1
  N  N51  1  0.77643485  0.42921163  0.59108292  1
  N  N52  1  0.56631503  0.52293347  0.31871259  1
  N  N53  1  0.46435397  0.43260813  0.10354162  1
  N  N54  1  0.22396641  0.53657677  0.84527234  1
  N  N55  1  0.10879775  0.43222684  0.59209881  1
  N  N56  1  0.87669347  0.56262357  0.34722097  1
  N  N57  1  0.75803186  0.42558987  0.10457809  1
  N  N58  1  0.55092392  0.54973253  0.84729462  1
  N  N59  1  0.44501696  0.43382310  0.59310143  1
  N  N60  1  0.21515906  0.90430168  0.32656805  1
  N  N61  1  0.09970826  0.75351361  0.09361778  1
  N  N62  1  0.88803284  0.86188579  0.83483849  1
  N  N63  1  0.77665056  0.75767212  0.56668742  1
  N  N64  1  0.58821853  0.85139158  0.33600759  1
  N  N65  1  0.42373137  0.81752379  0.11676846  1
  N  N66  1  0.22203576  0.87009213  0.83746511  1
  N  N67  1  0.11596460  0.75953973  0.58169735  1
  N  N68  1  0.87931397  0.85152479  0.35119374  1
  N  N69  1  0.73938187  0.77557191  0.09527794  1
  N  N70  1  0.55288370  0.86551641  0.83165597  1
  N  N71  1  0.44583709  0.75493956  0.57114038  1
