# generated using pymatgen
data_Al31B5N36
_symmetry_space_group_name_H-M   'P 1'
_cell_length_a   9.19623754
_cell_length_b   9.29186739
_cell_length_c   9.75386717
_cell_angle_alpha   90.02697649
_cell_angle_beta   89.78815822
_cell_angle_gamma   59.97420652
_symmetry_Int_Tables_number   1
_chemical_formula_structural   Al31B5N36
_chemical_formula_sum   'Al31 B5 N36'
_cell_volume   721.61106819
_cell_formula_units_Z   1
loop_
 _symmetry_equiv_pos_site_id
 _symmetry_equiv_pos_as_xyz
  1  'x, y, z'
loop_
 _atom_site_type_symbol
 _atom_site_label
 _atom_site_symmetry_multiplicity
 _atom_site_fract_x
 _atom_site_fract_y
 _atom_site_fract_z
 _atom_site_occupancy
  B  B0  1  0.11230756  0.09886395  0.39122627  1
  B  B1  1  0.58463456  0.48105544  0.15737734  1
  B  B2  1  0.24517809  0.91537328  0.16010036  1
  B  B3  1  0.55475202  0.87734853  0.14913889  1
  B  B4  1  0.77765487  0.76336155  0.38780752  1
  Al  Al5  1  0.22441198  0.20204021  0.14520148  1
  Al  Al6  1  0.78140111  0.09059974  0.88817521  1
  Al  Al7  1  0.89332790  0.20411252  0.63417684  1
  Al  Al8  1  0.44754330  0.08755508  0.38486959  1
  Al  Al9  1  0.56221962  0.19986452  0.14091630  1
  Al  Al10  1  0.11651501  0.08767732  0.89135963  1
  Al  Al11  1  0.22185572  0.20455857  0.63305042  1
  Al  Al12  1  0.78287953  0.08734465  0.39117297  1
  Al  Al13  1  0.90033134  0.19125675  0.14664393  1
  Al  Al14  1  0.44586342  0.09000598  0.89306463  1
  Al  Al15  1  0.55502807  0.20586888  0.64077604  1
  Al  Al16  1  0.10532511  0.43340196  0.38927430  1
  Al  Al17  1  0.22413878  0.54305003  0.13896746  1
  Al  Al18  1  0.77297820  0.42919788  0.89305201  1
  Al  Al19  1  0.88447042  0.54471860  0.63489921  1
  Al  Al20  1  0.44619828  0.42582497  0.38913039  1
  Al  Al21  1  0.10963115  0.42764421  0.88955054  1
  Al  Al22  1  0.22236395  0.54211379  0.63877355  1
  Al  Al23  1  0.78471138  0.42751074  0.38797796  1
  Al  Al24  1  0.86990244  0.55224778  0.14426964  1
  Al  Al25  1  0.44840310  0.43137854  0.89274062  1
  Al  Al26  1  0.55320809  0.54528786  0.64038632  1
  Al  Al27  1  0.10955724  0.76750517  0.37544380  1
  Al  Al28  1  0.76795750  0.76543211  0.89050183  1
  Al  Al29  1  0.88863781  0.86935651  0.63059250  1
  Al  Al30  1  0.45276145  0.75995225  0.36130236  1
  Al  Al31  1  0.10934845  0.76252734  0.89443174  1
  Al  Al32  1  0.22576121  0.87134096  0.62966425  1
  Al  Al33  1  0.88033149  0.86610340  0.14116542  1
  Al  Al34  1  0.43854924  0.77095504  0.90816111  1
  Al  Al35  1  0.55404635  0.87028872  0.62931172  1
  N  N36  1  0.20821806  0.19853372  0.33942724  1
  N  N37  1  0.12487218  0.07700153  0.08645375  1
  N  N38  1  0.89198750  0.20593649  0.83187526  1
  N  N39  1  0.77904881  0.09421843  0.58283809  1
  N  N40  1  0.55798924  0.20457408  0.33251643  1
  N  N41  1  0.45513316  0.08063779  0.09196594  1
  N  N42  1  0.22165084  0.20424890  0.83001526  1
  N  N43  1  0.11457437  0.09170752  0.55756922  1
  N  N44  1  0.91556579  0.19253700  0.33997042  1
  N  N45  1  0.78425321  0.08847762  0.08317143  1
  N  N46  1  0.55426964  0.20750401  0.83628647  1
  N  N47  1  0.44619409  0.09379181  0.57749339  1
  N  N48  1  0.22474801  0.53828717  0.33067006  1
  N  N49  1  0.10584755  0.42568646  0.08570664  1
  N  N50  1  0.88403689  0.54216083  0.83267806  1
  N  N51  1  0.77701111  0.42811961  0.57997430  1
  N  N52  1  0.56425220  0.52515198  0.30823231  1
  N  N53  1  0.46486031  0.43306167  0.09039009  1
  N  N54  1  0.22426352  0.53806308  0.83438056  1
  N  N55  1  0.11047475  0.42980421  0.58245198  1
  N  N56  1  0.87463784  0.56646188  0.33717202  1
  N  N57  1  0.75761052  0.42757170  0.09382633  1
  N  N58  1  0.55105621  0.54988610  0.83523161  1
  N  N59  1  0.44765218  0.42827834  0.58165324  1
  N  N60  1  0.21410384  0.90492755  0.31638251  1
  N  N61  1  0.10148889  0.75815182  0.08379605  1
  N  N62  1  0.88607856  0.86895956  0.82609424  1
  N  N63  1  0.77479256  0.76275845  0.55588168  1
  N  N64  1  0.58080658  0.86368519  0.31809461  1
  N  N65  1  0.42320162  0.81604197  0.10497288  1
  N  N66  1  0.22268845  0.87084394  0.82564239  1
  N  N67  1  0.11343285  0.76176509  0.57155499  1
  N  N68  1  0.87567480  0.86023707  0.33623132  1
  N  N69  1  0.74039544  0.77586813  0.08338113  1
  N  N70  1  0.55043541  0.87277700  0.82339949  1
  N  N71  1  0.44711462  0.75727643  0.56057364  1
