# generated using pymatgen
data_Al31B5N36
_symmetry_space_group_name_H-M   'P 1'
_cell_length_a   9.14185651
_cell_length_b   9.18533827
_cell_length_c   10.35940834
_cell_angle_alpha   91.44131680
_cell_angle_beta   90.83998975
_cell_angle_gamma   60.22241124
_symmetry_Int_Tables_number   1
_chemical_formula_structural   Al31B5N36
_chemical_formula_sum   'Al31 B5 N36'
_cell_volume   754.78858628
_cell_formula_units_Z   1
loop_
 _symmetry_equiv_pos_site_id
 _symmetry_equiv_pos_as_xyz
  1  'x, y, z'
loop_
 _atom_site_type_symbol
 _atom_site_label
 _atom_site_symmetry_multiplicity
 _atom_site_fract_x
 _atom_site_fract_y
 _atom_site_fract_z
 _atom_site_occupancy
  B  B0  1  0.11849832  0.08572384  0.35245196  1
  B  B1  1  0.58533469  0.47904655  0.16067390  1
  B  B2  1  0.22770089  0.89022858  0.09196840  1
  B  B3  1  0.53741897  0.88326971  0.09872334  1
  B  B4  1  0.77190401  0.76296029  0.35915835  1
  Al  Al5  1  0.22738050  0.19475797  0.06941730  1
  Al  Al6  1  0.77413336  0.08783019  0.82092760  1
  Al  Al7  1  0.88449359  0.21089162  0.64386512  1
  Al  Al8  1  0.45067965  0.07776977  0.31888943  1
  Al  Al9  1  0.56328164  0.19075623  0.07379016  1
  Al  Al10  1  0.11494371  0.09720741  0.83087660  1
  Al  Al11  1  0.22211099  0.19639233  0.56159713  1
  Al  Al12  1  0.78152179  0.07800537  0.32292755  1
  Al  Al13  1  0.90344116  0.19366968  0.14448500  1
  Al  Al14  1  0.43649780  0.10692134  0.81315442  1
  Al  Al15  1  0.55776654  0.19853560  0.56457593  1
  Al  Al16  1  0.10279191  0.43992737  0.38444824  1
  Al  Al17  1  0.23007535  0.55418482  0.14504652  1
  Al  Al18  1  0.77292563  0.42729693  0.90200008  1
  Al  Al19  1  0.89840914  0.52387870  0.64485060  1
  Al  Al20  1  0.44426681  0.43191138  0.38898929  1
  Al  Al21  1  0.10609047  0.43919840  0.89921799  1
  Al  Al22  1  0.22370246  0.53730195  0.64155113  1
  Al  Al23  1  0.78664832  0.42532752  0.38896112  1
  Al  Al24  1  0.86068523  0.56208304  0.14384900  1
  Al  Al25  1  0.44797709  0.43546481  0.89779365  1
  Al  Al26  1  0.55679575  0.53901921  0.64357395  1
  Al  Al27  1  0.11471124  0.76643505  0.39201602  1
  Al  Al28  1  0.77583791  0.76114346  0.83050248  1
  Al  Al29  1  0.88275631  0.86568770  0.57158038  1
  Al  Al30  1  0.44834934  0.76306648  0.38458817  1
  Al  Al31  1  0.12330279  0.76146128  0.89065990  1
  Al  Al32  1  0.22703202  0.86644815  0.63562561  1
  Al  Al33  1  0.87850525  0.87342877  0.06747734  1
  Al  Al34  1  0.44493774  0.76843880  0.89201998  1
  Al  Al35  1  0.55560391  0.86694106  0.63012122  1
  N  N36  1  0.21240225  0.18681677  0.37085001  1
  N  N37  1  0.11928883  0.07207474  0.08705741  1
  N  N38  1  0.88106108  0.21251034  0.83482091  1
  N  N39  1  0.77371882  0.08680882  0.63282378  1
  N  N40  1  0.55795493  0.19744356  0.37910765  1
  N  N41  1  0.45214188  0.07580080  0.13265673  1
  N  N42  1  0.22732543  0.20760058  0.88721148  1
  N  N43  1  0.11434040  0.09969368  0.63680083  1
  N  N44  1  0.92384584  0.18911080  0.33541827  1
  N  N45  1  0.77810660  0.08551803  0.14097975  1
  N  N46  1  0.55757459  0.20063730  0.88992746  1
  N  N47  1  0.43798818  0.10426011  0.62730526  1
  N  N48  1  0.22412224  0.54341582  0.32623052  1
  N  N49  1  0.09883454  0.44892436  0.08711558  1
  N  N50  1  0.89163899  0.52574642  0.83345443  1
  N  N51  1  0.77742537  0.42434437  0.57264804  1
  N  N52  1  0.56563037  0.52404941  0.30632837  1
  N  N53  1  0.46384226  0.43497303  0.09262588  1
  N  N54  1  0.22612064  0.53621379  0.83049161  1
  N  N55  1  0.11061596  0.43116237  0.56978269  1
  N  N56  1  0.87187854  0.56924499  0.33236734  1
  N  N57  1  0.75643333  0.42734291  0.09597389  1
  N  N58  1  0.55648632  0.54156297  0.83052217  1
  N  N59  1  0.44373961  0.43321049  0.57566084  1
  N  N60  1  0.21002323  0.90232121  0.35557275  1
  N  N61  1  0.13956565  0.77588545  0.07972669  1
  N  N62  1  0.88965564  0.87196987  0.88544400  1
  N  N63  1  0.78777169  0.75316231  0.63828446  1
  N  N64  1  0.58892061  0.85384335  0.36615848  1
  N  N65  1  0.41956868  0.81315569  0.07396610  1
  N  N66  1  0.22938539  0.86335823  0.82091833  1
  N  N67  1  0.11580614  0.75591419  0.57679409  1
  N  N68  1  0.87379154  0.85432539  0.37977312  1
  N  N69  1  0.72721168  0.78238289  0.08582911  1
  N  N70  1  0.54518788  0.87615649  0.82002903  1
  N  N71  1  0.44805247  0.75155668  0.57040572  1
