# generated using pymatgen
data_Al31B5N36
_symmetry_space_group_name_H-M   'P 1'
_cell_length_a   9.15906373
_cell_length_b   9.22770641
_cell_length_c   9.78607389
_cell_angle_alpha   89.87984308
_cell_angle_beta   90.01170814
_cell_angle_gamma   60.27321037
_symmetry_Int_Tables_number   1
_chemical_formula_structural   Al31B5N36
_chemical_formula_sum   'Al31 B5 N36'
_cell_volume   718.24338349
_cell_formula_units_Z   1
loop_
 _symmetry_equiv_pos_site_id
 _symmetry_equiv_pos_as_xyz
  1  'x, y, z'
loop_
 _atom_site_type_symbol
 _atom_site_label
 _atom_site_symmetry_multiplicity
 _atom_site_fract_x
 _atom_site_fract_y
 _atom_site_fract_z
 _atom_site_occupancy
  B  B0  1  0.11599746  0.08818079  0.28783109  1
  B  B1  1  0.58064332  0.48943161  0.03000094  1
  B  B2  1  0.22856027  0.87961907  0.04721094  1
  B  B3  1  0.53408551  0.88437374  0.04449478  1
  B  B4  1  0.76778816  0.76455495  0.28712563  1
  Al  Al5  1  0.22286775  0.19988683  0.05178418  1
  Al  Al6  1  0.78131286  0.09087838  0.79351261  1
  Al  Al7  1  0.89540753  0.20255629  0.53964294  1
  Al  Al8  1  0.44921713  0.08308514  0.29083002  1
  Al  Al9  1  0.56076903  0.19677290  0.04249057  1
  Al  Al10  1  0.11350852  0.09249537  0.80160387  1
  Al  Al11  1  0.21996268  0.20187331  0.53958471  1
  Al  Al12  1  0.78144045  0.08798333  0.29553675  1
  Al  Al13  1  0.89398814  0.19734928  0.05083735  1
  Al  Al14  1  0.44379886  0.09022624  0.79952040  1
  Al  Al15  1  0.55451543  0.20502447  0.54427479  1
  Al  Al16  1  0.10514485  0.43120803  0.29329532  1
  Al  Al17  1  0.22891731  0.54724050  0.04374084  1
  Al  Al18  1  0.78109057  0.42455867  0.79774925  1
  Al  Al19  1  0.88390290  0.54510897  0.53972467  1
  Al  Al20  1  0.44813671  0.43060177  0.29028596  1
  Al  Al21  1  0.10945773  0.42860408  0.79581223  1
  Al  Al22  1  0.22282170  0.54054368  0.54412305  1
  Al  Al23  1  0.77311978  0.43234137  0.29137190  1
  Al  Al24  1  0.87334465  0.54943730  0.05055960  1
  Al  Al25  1  0.44547384  0.42510734  0.79709218  1
  Al  Al26  1  0.55283998  0.54395532  0.54628993  1
  Al  Al27  1  0.11116352  0.76871986  0.29169975  1
  Al  Al28  1  0.77452085  0.76295330  0.80335959  1
  Al  Al29  1  0.88750560  0.86742625  0.54002456  1
  Al  Al30  1  0.44347009  0.77050077  0.27963785  1
  Al  Al31  1  0.11180263  0.76564274  0.80154448  1
  Al  Al32  1  0.22414899  0.87604536  0.54530774  1
  Al  Al33  1  0.88918312  0.86963537  0.05338388  1
  Al  Al34  1  0.44556168  0.75865351  0.82603689  1
  Al  Al35  1  0.55829423  0.86695595  0.54485172  1
  N  N36  1  0.21115883  0.19279039  0.34189484  1
  N  N37  1  0.11837849  0.07809130  0.11851843  1
  N  N38  1  0.89048419  0.20344037  0.85778369  1
  N  N39  1  0.78089748  0.09148196  0.59784366  1
  N  N40  1  0.55263021  0.20752031  0.35009624  1
  N  N41  1  0.45420473  0.07601756  0.09763378  1
  N  N42  1  0.22082410  0.20762657  0.85849667  1
  N  N43  1  0.11219156  0.09288661  0.61070735  1
  N  N44  1  0.91277732  0.19546349  0.34268370  1
  N  N45  1  0.77876115  0.09118897  0.10569370  1
  N  N46  1  0.55740054  0.20240291  0.85092817  1
  N  N47  1  0.44384115  0.09058452  0.60334461  1
  N  N48  1  0.22365993  0.54102318  0.34920350  1
  N  N49  1  0.11017503  0.43245495  0.10171431  1
  N  N50  1  0.88663143  0.54062064  0.85814067  1
  N  N51  1  0.77837609  0.42606023  0.60239367  1
  N  N52  1  0.54982945  0.54867106  0.35344050  1
  N  N53  1  0.46432970  0.43140614  0.09369084  1
  N  N54  1  0.22246669  0.54075985  0.85227236  1
  N  N55  1  0.10992029  0.42665206  0.59829519  1
  N  N56  1  0.87278104  0.56397830  0.34198687  1
  N  N57  1  0.75240687  0.43316975  0.09613791  1
  N  N58  1  0.56163213  0.52738919  0.87693625  1
  N  N59  1  0.44630228  0.42710849  0.60512057  1
  N  N60  1  0.21254789  0.89872340  0.35039324  1
  N  N61  1  0.12978017  0.77399197  0.09972112  1
  N  N62  1  0.88886866  0.87139430  0.85971112  1
  N  N63  1  0.77665782  0.76080266  0.61146292  1
  N  N64  1  0.57963029  0.85835191  0.35043461  1
  N  N65  1  0.42274788  0.80352915  0.09074349  1
  N  N66  1  0.21899006  0.87815891  0.88071679  1
  N  N67  1  0.11161119  0.76352289  0.60424984  1
  N  N68  1  0.87819525  0.85708662  0.34323285  1
  N  N69  1  0.75389979  0.77174109  0.12011464  1
  N  N70  1  0.55659438  0.87403037  0.88091808  1
  N  N71  1  0.44465212  0.76034606  0.62117087  1
