# generated using pymatgen
data_Al31B5N36
_symmetry_space_group_name_H-M   'P 1'
_cell_length_a   9.15413188
_cell_length_b   9.23029602
_cell_length_c   10.11866610
_cell_angle_alpha   91.10325691
_cell_angle_beta   90.53116825
_cell_angle_gamma   60.25569666
_symmetry_Int_Tables_number   1
_chemical_formula_structural   Al31B5N36
_chemical_formula_sum   'Al31 B5 N36'
_cell_volume   742.19732356
_cell_formula_units_Z   1
loop_
 _symmetry_equiv_pos_site_id
 _symmetry_equiv_pos_as_xyz
  1  'x, y, z'
loop_
 _atom_site_type_symbol
 _atom_site_label
 _atom_site_symmetry_multiplicity
 _atom_site_fract_x
 _atom_site_fract_y
 _atom_site_fract_z
 _atom_site_occupancy
  B  B0  1  0.11212030  0.08981661  0.39476800  1
  B  B1  1  0.58455369  0.48038560  0.16851812  1
  B  B2  1  0.22525216  0.89146499  0.15360918  1
  B  B3  1  0.53961504  0.88145141  0.11468345  1
  B  B4  1  0.77290878  0.76369258  0.36832515  1
  Al  Al5  1  0.22784800  0.19989149  0.09377884  1
  Al  Al6  1  0.77752838  0.08695414  0.82862580  1
  Al  Al7  1  0.89595902  0.20242896  0.64337415  1
  Al  Al8  1  0.45205233  0.07935571  0.33073870  1
  Al  Al9  1  0.56531121  0.19061941  0.08328360  1
  Al  Al10  1  0.11012044  0.08692054  0.90386700  1
  Al  Al11  1  0.22523300  0.19832372  0.56622130  1
  Al  Al12  1  0.78043704  0.08135101  0.33603630  1
  Al  Al13  1  0.90213994  0.19786636  0.16004756  1
  Al  Al14  1  0.43428821  0.10320519  0.82653229  1
  Al  Al15  1  0.55762301  0.19837395  0.57823659  1
  Al  Al16  1  0.10297829  0.43966799  0.39180986  1
  Al  Al17  1  0.23003551  0.55132866  0.15452830  1
  Al  Al18  1  0.77390636  0.42548143  0.90800046  1
  Al  Al19  1  0.89629699  0.52687019  0.65689575  1
  Al  Al20  1  0.44529238  0.43116203  0.39986044  1
  Al  Al21  1  0.10689483  0.43636684  0.90974466  1
  Al  Al22  1  0.22272223  0.53859019  0.65085246  1
  Al  Al23  1  0.78547105  0.42713256  0.40014760  1
  Al  Al24  1  0.86042072  0.56193329  0.15195104  1
  Al  Al25  1  0.44789569  0.43418727  0.90534442  1
  Al  Al26  1  0.55576965  0.54071385  0.65313192  1
  Al  Al27  1  0.11661683  0.76538821  0.39189968  1
  Al  Al28  1  0.77333635  0.76319835  0.84841376  1
  Al  Al29  1  0.88548378  0.86391264  0.58036966  1
  Al  Al30  1  0.45213865  0.75971760  0.38332546  1
  Al  Al31  1  0.12379001  0.76218047  0.90563911  1
  Al  Al32  1  0.22556484  0.86883908  0.64300997  1
  Al  Al33  1  0.88018252  0.87355376  0.08344027  1
  Al  Al34  1  0.44196210  0.77013508  0.91142384  1
  Al  Al35  1  0.55597462  0.86481636  0.63651480  1
  N  N36  1  0.21444297  0.19287253  0.37334241  1
  N  N37  1  0.11690776  0.07394740  0.09466302  1
  N  N38  1  0.89288083  0.20762688  0.83758578  1
  N  N39  1  0.77690819  0.08538792  0.63886941  1
  N  N40  1  0.55735461  0.19881698  0.38955130  1
  N  N41  1  0.45656370  0.07401526  0.14193891  1
  N  N42  1  0.22420622  0.20646570  0.90016968  1
  N  N43  1  0.10957250  0.08075152  0.56364589  1
  N  N44  1  0.91904386  0.19314512  0.34889263  1
  N  N45  1  0.77904111  0.08841435  0.15001626  1
  N  N46  1  0.55822112  0.20049189  0.89522364  1
  N  N47  1  0.43636983  0.10167838  0.63727976  1
  N  N48  1  0.22645584  0.54070461  0.33805873  1
  N  N49  1  0.09964538  0.44681615  0.10131063  1
  N  N50  1  0.89071860  0.52831748  0.84775682  1
  N  N51  1  0.77835406  0.42447822  0.58650214  1
  N  N52  1  0.56624217  0.52386441  0.31660701  1
  N  N53  1  0.46393720  0.43385378  0.10178802  1
  N  N54  1  0.22444759  0.53870039  0.84316516  1
  N  N55  1  0.11014748  0.42968886  0.58348944  1
  N  N56  1  0.87090297  0.57093602  0.34355994  1
  N  N57  1  0.75664085  0.42711397  0.10389132  1
  N  N58  1  0.55429053  0.54479252  0.84281414  1
  N  N59  1  0.44484451  0.43143569  0.58977012  1
  N  N60  1  0.21465793  0.89815751  0.32372873  1
  N  N61  1  0.13401444  0.77515605  0.09949293  1
  N  N62  1  0.89092303  0.87333184  0.89606251  1
  N  N63  1  0.78747231  0.75432210  0.64842676  1
  N  N64  1  0.59005427  0.85525213  0.37747792  1
  N  N65  1  0.42135366  0.81150608  0.10032001  1
  N  N66  1  0.22416917  0.87287601  0.83130752  1
  N  N67  1  0.11862444  0.75533503  0.58222067  1
  N  N68  1  0.87535370  0.85429947  0.38491147  1
  N  N69  1  0.72911606  0.78207496  0.09486589  1
  N  N70  1  0.54336842  0.87399828  0.83260870  1
  N  N71  1  0.44523791  0.75194267  0.57502062  1
