# generated using pymatgen
data_Al31B5N36
_symmetry_space_group_name_H-M   'P 1'
_cell_length_a   9.15118053
_cell_length_b   9.14083720
_cell_length_c   10.27396240
_cell_angle_alpha   89.80872301
_cell_angle_beta   90.02540215
_cell_angle_gamma   59.99629729
_symmetry_Int_Tables_number   1
_chemical_formula_structural   Al31B5N36
_chemical_formula_sum   'Al31 B5 N36'
_cell_volume   744.23790117
_cell_formula_units_Z   1
loop_
 _symmetry_equiv_pos_site_id
 _symmetry_equiv_pos_as_xyz
  1  'x, y, z'
loop_
 _atom_site_type_symbol
 _atom_site_label
 _atom_site_symmetry_multiplicity
 _atom_site_fract_x
 _atom_site_fract_y
 _atom_site_fract_z
 _atom_site_occupancy
  B  B0  1  0.11469413  0.08916542  0.35764764  1
  B  B1  1  0.55424093  0.54412249  0.12199335  1
  B  B2  1  0.21956982  0.87436871  0.10285192  1
  B  B3  1  0.56217014  0.86458429  0.10234882  1
  B  B4  1  0.77505629  0.76333127  0.35860817  1
  Al  Al5  1  0.23039482  0.18685535  0.06106298  1
  Al  Al6  1  0.77872493  0.09370969  0.80965512  1
  Al  Al7  1  0.89410002  0.20321760  0.56044564  1
  Al  Al8  1  0.45234568  0.07691763  0.31353086  1
  Al  Al9  1  0.56123879  0.20094996  0.06278449  1
  Al  Al10  1  0.11143678  0.09571209  0.82205708  1
  Al  Al11  1  0.22147159  0.20351856  0.56225866  1
  Al  Al12  1  0.78243894  0.08761583  0.31193484  1
  Al  Al13  1  0.89122743  0.19868040  0.06119954  1
  Al  Al14  1  0.44145872  0.09978011  0.81125819  1
  Al  Al15  1  0.55496867  0.20550348  0.55579365  1
  Al  Al16  1  0.10579633  0.42984373  0.31026961  1
  Al  Al17  1  0.22915914  0.54362495  0.06190038  1
  Al  Al18  1  0.78523360  0.42328598  0.80884726  1
  Al  Al19  1  0.88922123  0.54166903  0.56202130  1
  Al  Al20  1  0.44550107  0.42997865  0.31063371  1
  Al  Al21  1  0.11296314  0.42579644  0.81000521  1
  Al  Al22  1  0.22310411  0.53815110  0.55690490  1
  Al  Al23  1  0.77747390  0.43620509  0.31295679  1
  Al  Al24  1  0.87490735  0.54434807  0.05886147  1
  Al  Al25  1  0.44253790  0.42402822  0.81170635  1
  Al  Al26  1  0.55337837  0.54240682  0.62428877  1
  Al  Al27  1  0.11149025  0.76923273  0.31468024  1
  Al  Al28  1  0.78210079  0.75756689  0.82098065  1
  Al  Al29  1  0.88853546  0.86930805  0.56170047  1
  Al  Al30  1  0.44712501  0.76710344  0.39124814  1
  Al  Al31  1  0.10994589  0.75521481  0.81068466  1
  Al  Al32  1  0.22664993  0.87152549  0.63028784  1
  Al  Al33  1  0.88443031  0.87393669  0.06117541  1
  Al  Al34  1  0.44692287  0.75656387  0.88827497  1
  Al  Al35  1  0.55636910  0.86835976  0.62980505  1
  N  N36  1  0.21042706  0.19059420  0.37003232  1
  N  N37  1  0.13001683  0.05563905  0.08946900  1
  N  N38  1  0.88603981  0.20590090  0.87640895  1
  N  N39  1  0.77831846  0.09423414  0.61995303  1
  N  N40  1  0.55449286  0.20452738  0.36804987  1
  N  N41  1  0.45898655  0.06068626  0.12245907  1
  N  N42  1  0.22482103  0.20689237  0.87712338  1
  N  N43  1  0.10681128  0.10428306  0.63217343  1
  N  N44  1  0.91707146  0.19342886  0.36857229  1
  N  N45  1  0.77991373  0.09172907  0.12843064  1
  N  N46  1  0.55760131  0.20300013  0.87817973  1
  N  N47  1  0.44127360  0.10227123  0.62206606  1
  N  N48  1  0.22211885  0.53946939  0.36933003  1
  N  N49  1  0.11149136  0.42433344  0.12395561  1
  N  N50  1  0.89354685  0.53250622  0.87518668  1
  N  N51  1  0.78667181  0.42322545  0.61900091  1
  N  N52  1  0.55406867  0.54233995  0.34951662  1
  N  N53  1  0.45862370  0.44096851  0.11934512  1
  N  N54  1  0.22296947  0.53648741  0.87777094  1
  N  N55  1  0.11263547  0.42688664  0.62081299  1
  N  N56  1  0.87770132  0.56641766  0.37116147  1
  N  N57  1  0.75284013  0.43991893  0.12240495  1
  N  N58  1  0.55522105  0.54192776  0.82051440  1
  N  N59  1  0.44045835  0.42211253  0.62273201  1
  N  N60  1  0.20642027  0.90517560  0.36071379  1
  N  N61  1  0.12694280  0.77233712  0.12285098  1
  N  N62  1  0.89206286  0.87265601  0.87665702  1
  N  N63  1  0.78899586  0.75520000  0.63186701  1
  N  N64  1  0.59218917  0.85504681  0.36368181  1
  N  N65  1  0.44876992  0.75451845  0.08659848  1
  N  N66  1  0.23075590  0.86386418  0.82336866  1
  N  N67  1  0.10828606  0.75619670  0.62154856  1
  N  N68  1  0.87879837  0.85710800  0.37040005  1
  N  N69  1  0.74391065  0.77586800  0.09018358  1
  N  N70  1  0.55061783  0.86961467  0.82334487  1
  N  N71  1  0.44385873  0.76298389  0.57317700  1
