# generated using pymatgen
data_Al31B5N36
_symmetry_space_group_name_H-M   'P 1'
_cell_length_a   9.12614906
_cell_length_b   9.21228867
_cell_length_c   10.23205081
_cell_angle_alpha   90.27871456
_cell_angle_beta   89.95116595
_cell_angle_gamma   60.40007371
_symmetry_Int_Tables_number   1
_chemical_formula_structural   Al31B5N36
_chemical_formula_sum   'Al31 B5 N36'
_cell_volume   747.95759012
_cell_formula_units_Z   1
loop_
 _symmetry_equiv_pos_site_id
 _symmetry_equiv_pos_as_xyz
  1  'x, y, z'
loop_
 _atom_site_type_symbol
 _atom_site_label
 _atom_site_symmetry_multiplicity
 _atom_site_fract_x
 _atom_site_fract_y
 _atom_site_fract_z
 _atom_site_occupancy
  B  B0  1  0.11670498  0.08795962  0.35366996  1
  B  B1  1  0.58644583  0.48572909  0.16420772  1
  B  B2  1  0.22814618  0.89226207  0.09874803  1
  B  B3  1  0.54077713  0.88185279  0.09563822  1
  B  B4  1  0.77574616  0.76507643  0.35684029  1
  Al  Al5  1  0.22511106  0.19833181  0.06204062  1
  Al  Al6  1  0.78011682  0.08873589  0.80938338  1
  Al  Al7  1  0.89610934  0.19690218  0.56015902  1
  Al  Al8  1  0.45255683  0.07877607  0.31405346  1
  Al  Al9  1  0.56233390  0.19469615  0.06088832  1
  Al  Al10  1  0.11258016  0.09470216  0.82015282  1
  Al  Al11  1  0.21984171  0.20455128  0.56117422  1
  Al  Al12  1  0.78444314  0.08363873  0.31056032  1
  Al  Al13  1  0.89375237  0.19379736  0.06352881  1
  Al  Al14  1  0.44047919  0.09755845  0.80792280  1
  Al  Al15  1  0.55680833  0.20315803  0.55882314  1
  Al  Al16  1  0.10504865  0.43307291  0.30852770  1
  Al  Al17  1  0.23386641  0.54802578  0.06341495  1
  Al  Al18  1  0.78176603  0.42215161  0.82624034  1
  Al  Al19  1  0.89030032  0.54200048  0.56214487  1
  Al  Al20  1  0.43988285  0.42237521  0.31400231  1
  Al  Al21  1  0.11210673  0.42628277  0.81297760  1
  Al  Al22  1  0.22293300  0.53766403  0.55938472  1
  Al  Al23  1  0.78888130  0.42635376  0.33333153  1
  Al  Al24  1  0.86632328  0.55085478  0.06608022  1
  Al  Al25  1  0.44333421  0.42132565  0.81278766  1
  Al  Al26  1  0.55432980  0.54262567  0.63183340  1
  Al  Al27  1  0.11429099  0.77092249  0.31042443  1
  Al  Al28  1  0.77860551  0.75757251  0.82198681  1
  Al  Al29  1  0.89001746  0.86630642  0.56120962  1
  Al  Al30  1  0.44884566  0.76621124  0.38001703  1
  Al  Al31  1  0.11147102  0.75489401  0.81048348  1
  Al  Al32  1  0.22837817  0.86975077  0.62463562  1
  Al  Al33  1  0.88393640  0.87117869  0.06061118  1
  Al  Al34  1  0.44338210  0.76286597  0.89134648  1
  Al  Al35  1  0.55677939  0.86570092  0.62211669  1
  N  N36  1  0.20843862  0.19402112  0.36846000  1
  N  N37  1  0.12185427  0.07191465  0.09546829  1
  N  N38  1  0.88618148  0.20286362  0.87574950  1
  N  N39  1  0.78010113  0.08947731  0.62051503  1
  N  N40  1  0.55805164  0.20373981  0.37213679  1
  N  N41  1  0.45313367  0.07553535  0.12439669  1
  N  N42  1  0.22377573  0.20864660  0.87619244  1
  N  N43  1  0.10816326  0.10203962  0.63050295  1
  N  N44  1  0.92034708  0.18555481  0.36889594  1
  N  N45  1  0.78038218  0.08755483  0.12703071  1
  N  N46  1  0.55766139  0.20124914  0.87509752  1
  N  N47  1  0.44064155  0.09948205  0.61818966  1
  N  N48  1  0.22086296  0.54267314  0.37133864  1
  N  N49  1  0.10767630  0.43536902  0.12321542  1
  N  N50  1  0.89105875  0.53379146  0.87807697  1
  N  N51  1  0.77976900  0.42317397  0.59231299  1
  N  N52  1  0.55368505  0.54405078  0.30804243  1
  N  N53  1  0.46593872  0.42226690  0.12407486  1
  N  N54  1  0.22425026  0.53762027  0.87803376  1
  N  N55  1  0.11214789  0.42588547  0.62246581  1
  N  N56  1  0.87800274  0.57002884  0.37057976  1
  N  N57  1  0.76773651  0.42104374  0.12888394  1
  N  N58  1  0.55397835  0.54408845  0.82212162  1
  N  N59  1  0.44206658  0.42091939  0.62230345  1
  N  N60  1  0.20958901  0.90573995  0.36034312  1
  N  N61  1  0.13348987  0.77686877  0.12033251  1
  N  N62  1  0.89242451  0.87055327  0.87536010  1
  N  N63  1  0.78982747  0.75285249  0.63095556  1
  N  N64  1  0.59253837  0.85715152  0.36399977  1
  N  N65  1  0.42073838  0.81014463  0.07627401  1
  N  N66  1  0.23095999  0.86503393  0.81879714  1
  N  N67  1  0.10908075  0.75454535  0.62048332  1
  N  N68  1  0.88072017  0.85652293  0.36841423  1
  N  N69  1  0.72943323  0.78335821  0.08535219  1
  N  N70  1  0.54788540  0.86976222  0.81557869  1
  N  N71  1  0.44789772  0.75229064  0.56361869  1
