# generated using pymatgen
data_Al31B5N36
_symmetry_space_group_name_H-M   'P 1'
_cell_length_a   9.12909473
_cell_length_b   9.14687910
_cell_length_c   10.23009133
_cell_angle_alpha   89.89390208
_cell_angle_beta   90.02860020
_cell_angle_gamma   60.11523916
_symmetry_Int_Tables_number   1
_chemical_formula_structural   Al31B5N36
_chemical_formula_sum   'Al31 B5 N36'
_cell_volume   740.64928850
_cell_formula_units_Z   1
loop_
 _symmetry_equiv_pos_site_id
 _symmetry_equiv_pos_as_xyz
  1  'x, y, z'
loop_
 _atom_site_type_symbol
 _atom_site_label
 _atom_site_symmetry_multiplicity
 _atom_site_fract_x
 _atom_site_fract_y
 _atom_site_fract_z
 _atom_site_occupancy
  B  B0  1  0.11377538  0.09039151  0.35679654  1
  B  B1  1  0.56857474  0.51481715  0.05834751  1
  B  B2  1  0.22623910  0.87842546  0.10320640  1
  B  B3  1  0.55311066  0.86863728  0.10202285  1
  B  B4  1  0.77495913  0.76274461  0.35772974  1
  Al  Al5  1  0.22862621  0.18990603  0.06193850  1
  Al  Al6  1  0.77909026  0.09278829  0.80974548  1
  Al  Al7  1  0.89413912  0.20358190  0.56325309  1
  Al  Al8  1  0.45269050  0.07883289  0.31298168  1
  Al  Al9  1  0.56044742  0.19858404  0.06226899  1
  Al  Al10  1  0.11118387  0.09569027  0.82222908  1
  Al  Al11  1  0.22213123  0.20241862  0.56160012  1
  Al  Al12  1  0.78257146  0.08761196  0.31237704  1
  Al  Al13  1  0.89294219  0.19683157  0.06077889  1
  Al  Al14  1  0.44160790  0.09982450  0.81097114  1
  Al  Al15  1  0.55513775  0.20573739  0.55834393  1
  Al  Al16  1  0.10609467  0.43028842  0.31095082  1
  Al  Al17  1  0.22889171  0.54441436  0.06174656  1
  Al  Al18  1  0.77623221  0.42782013  0.81541415  1
  Al  Al19  1  0.88843096  0.54110541  0.56460263  1
  Al  Al20  1  0.44879424  0.43045882  0.30596619  1
  Al  Al21  1  0.11333708  0.42499158  0.81034373  1
  Al  Al22  1  0.22473496  0.53782578  0.55915908  1
  Al  Al23  1  0.77494418  0.43656990  0.30771964  1
  Al  Al24  1  0.87358198  0.54563368  0.05864814  1
  Al  Al25  1  0.44657635  0.42850508  0.81776233  1
  Al  Al26  1  0.55982833  0.53029001  0.56236275  1
  Al  Al27  1  0.11163620  0.76888320  0.31316687  1
  Al  Al28  1  0.78217920  0.75755668  0.82218480  1
  Al  Al29  1  0.88887910  0.86863255  0.56124796  1
  Al  Al30  1  0.44377183  0.77289291  0.38770260  1
  Al  Al31  1  0.10951465  0.75496480  0.81116869  1
  Al  Al32  1  0.22825866  0.86957855  0.63061947  1
  Al  Al33  1  0.88369696  0.87355035  0.06225434  1
  Al  Al34  1  0.44185883  0.76664138  0.89648715  1
  Al  Al35  1  0.55673414  0.86642077  0.63027865  1
  N  N36  1  0.21069191  0.19072096  0.36965165  1
  N  N37  1  0.12694426  0.06047541  0.09078239  1
  N  N38  1  0.88566070  0.20584659  0.87487403  1
  N  N39  1  0.77899583  0.09318887  0.61976592  1
  N  N40  1  0.55428772  0.20645436  0.36959187  1
  N  N41  1  0.45718807  0.06588759  0.12294536  1
  N  N42  1  0.22508924  0.20665013  0.87706248  1
  N  N43  1  0.10778093  0.10318095  0.63211410  1
  N  N44  1  0.91610092  0.19516868  0.36977953  1
  N  N45  1  0.77950465  0.09156697  0.12852040  1
  N  N46  1  0.55777507  0.20303806  0.87661583  1
  N  N47  1  0.44176358  0.10145827  0.62167739  1
  N  N48  1  0.22536728  0.53891492  0.36987123  1
  N  N49  1  0.10970939  0.42728024  0.12423519  1
  N  N50  1  0.89323690  0.53256263  0.87403117  1
  N  N51  1  0.77836866  0.42692799  0.62667320  1
  N  N52  1  0.55965690  0.53286952  0.37636009  1
  N  N53  1  0.46053898  0.43654755  0.11684101  1
  N  N54  1  0.22316787  0.53655379  0.87665169  1
  N  N55  1  0.11359093  0.42555018  0.62032073  1
  N  N56  1  0.87627952  0.56553029  0.37155713  1
  N  N57  1  0.75420479  0.43574764  0.11897752  1
  N  N58  1  0.56187106  0.52897186  0.90062441  1
  N  N59  1  0.44603912  0.42656925  0.62942408  1
  N  N60  1  0.20491247  0.90629941  0.36059870  1
  N  N61  1  0.12946158  0.77307388  0.12228023  1
  N  N62  1  0.89194110  0.87288850  0.87692197  1
  N  N63  1  0.78936344  0.75495026  0.63186657  1
  N  N64  1  0.59175694  0.85541445  0.36176952  1
  N  N65  1  0.43437173  0.78133641  0.08728182  1
  N  N66  1  0.23212952  0.86231584  0.82239701  1
  N  N67  1  0.10824977  0.75581984  0.62153636  1
  N  N68  1  0.87885581  0.85626913  0.36964139  1
  N  N69  1  0.73869971  0.77744118  0.08874200  1
  N  N70  1  0.55038527  0.86835653  0.82170238  1
  N  N71  1  0.44496809  0.76085671  0.57364157  1
