# generated using pymatgen
data_Al31B5N36
_symmetry_space_group_name_H-M   'P 1'
_cell_length_a   9.14359378
_cell_length_b   9.19173352
_cell_length_c   10.32807944
_cell_angle_alpha   91.38829602
_cell_angle_beta   90.83051090
_cell_angle_gamma   60.24327711
_symmetry_Int_Tables_number   1
_chemical_formula_structural   Al31B5N36
_chemical_formula_sum   'Al31 B5 N36'
_cell_volume   753.34640010
_cell_formula_units_Z   1
loop_
 _symmetry_equiv_pos_site_id
 _symmetry_equiv_pos_as_xyz
  1  'x, y, z'
loop_
 _atom_site_type_symbol
 _atom_site_label
 _atom_site_symmetry_multiplicity
 _atom_site_fract_x
 _atom_site_fract_y
 _atom_site_fract_z
 _atom_site_occupancy
  B  B0  1  0.11929164  0.08610022  0.36212215  1
  B  B1  1  0.58546404  0.47892155  0.17109589  1
  B  B2  1  0.22746595  0.88934320  0.10300454  1
  B  B3  1  0.53720997  0.88301029  0.11020300  1
  B  B4  1  0.77268931  0.76309846  0.37000379  1
  Al  Al5  1  0.22769270  0.19523436  0.08099152  1
  Al  Al6  1  0.77354330  0.08723814  0.83194853  1
  Al  Al7  1  0.88609704  0.21026187  0.65637844  1
  Al  Al8  1  0.45172051  0.07782783  0.33051706  1
  Al  Al9  1  0.56307577  0.19041417  0.08422916  1
  Al  Al10  1  0.11396563  0.09514637  0.85026729  1
  Al  Al11  1  0.22168883  0.19631676  0.57290715  1
  Al  Al12  1  0.78242891  0.07836635  0.33324705  1
  Al  Al13  1  0.90349464  0.19351455  0.15300458  1
  Al  Al14  1  0.43570247  0.10600012  0.82316623  1
  Al  Al15  1  0.55854648  0.19850358  0.57561475  1
  Al  Al16  1  0.10331893  0.44006959  0.39486455  1
  Al  Al17  1  0.23051044  0.55356895  0.15574704  1
  Al  Al18  1  0.77222686  0.42757961  0.91264074  1
  Al  Al19  1  0.89856230  0.52385109  0.65520442  1
  Al  Al20  1  0.44493434  0.43192179  0.39977383  1
  Al  Al21  1  0.10590826  0.43859116  0.90964734  1
  Al  Al22  1  0.22378690  0.53757132  0.65177113  1
  Al  Al23  1  0.78746012  0.42493347  0.39945586  1
  Al  Al24  1  0.86057227  0.56201861  0.15459681  1
  Al  Al25  1  0.44788198  0.43454617  0.90770857  1
  Al  Al26  1  0.55696058  0.53909549  0.65385645  1
  Al  Al27  1  0.11558077  0.76703342  0.40186386  1
  Al  Al28  1  0.77529874  0.76094922  0.84090939  1
  Al  Al29  1  0.88363645  0.86580135  0.58227059  1
  Al  Al30  1  0.44877038  0.76301968  0.39414116  1
  Al  Al31  1  0.12299811  0.76008212  0.90179007  1
  Al  Al32  1  0.22712263  0.86716095  0.64812300  1
  Al  Al33  1  0.87807632  0.87303527  0.07871093  1
  Al  Al34  1  0.44536211  0.76740595  0.90336729  1
  Al  Al35  1  0.55595275  0.86663801  0.63900439  1
  N  N36  1  0.21285006  0.18716938  0.38072360  1
  N  N37  1  0.11841346  0.07164997  0.09170553  1
  N  N38  1  0.88011637  0.21212587  0.84741963  1
  N  N39  1  0.77457314  0.08664448  0.64368504  1
  N  N40  1  0.55908218  0.19768580  0.38958048  1
  N  N41  1  0.45228161  0.07529307  0.14385407  1
  N  N42  1  0.22745560  0.20773699  0.89825695  1
  N  N43  1  0.11493855  0.09919279  0.64873718  1
  N  N44  1  0.92502724  0.18925570  0.34440210  1
  N  N45  1  0.77816038  0.08556791  0.15080094  1
  N  N46  1  0.55670308  0.20001916  0.89995009  1
  N  N47  1  0.43845947  0.10377780  0.63695792  1
  N  N48  1  0.22481267  0.54355972  0.33720620  1
  N  N49  1  0.09876267  0.44870488  0.09836479  1
  N  N50  1  0.89118637  0.52572306  0.84427468  1
  N  N51  1  0.77805074  0.42351903  0.58362542  1
  N  N52  1  0.56612373  0.52413308  0.31691940  1
  N  N53  1  0.46410053  0.43440386  0.10306304  1
  N  N54  1  0.22578623  0.53577429  0.84115009  1
  N  N55  1  0.11094680  0.43100052  0.58049863  1
  N  N56  1  0.87220716  0.56955968  0.34333997  1
  N  N57  1  0.75632972  0.42760413  0.10638335  1
  N  N58  1  0.55614200  0.54131020  0.84114359  1
  N  N59  1  0.44411158  0.43287327  0.58671175  1
  N  N60  1  0.21085471  0.90262959  0.36258160  1
  N  N61  1  0.13922442  0.77548708  0.09125895  1
  N  N62  1  0.88947765  0.87120697  0.89621519  1
  N  N63  1  0.78819473  0.75305103  0.64837236  1
  N  N64  1  0.58970148  0.85396761  0.37787520  1
  N  N65  1  0.41944418  0.81265556  0.08604412  1
  N  N66  1  0.22947574  0.86211174  0.83329358  1
  N  N67  1  0.11660782  0.75641926  0.58724918  1
  N  N68  1  0.87464325  0.85452058  0.38973584  1
  N  N69  1  0.72677174  0.78232410  0.09703493  1
  N  N70  1  0.54476565  0.87539799  0.83019120  1
  N  N71  1  0.44742807  0.75161853  0.58053016  1
