# generated using pymatgen
data_Al31B5N36
_symmetry_space_group_name_H-M   'P 1'
_cell_length_a   9.10938429
_cell_length_b   9.20911675
_cell_length_c   10.26761524
_cell_angle_alpha   90.31397692
_cell_angle_beta   89.72056659
_cell_angle_gamma   60.38173667
_symmetry_Int_Tables_number   1
_chemical_formula_structural   Al31B5N36
_chemical_formula_sum   'Al31 B5 N36'
_cell_volume   748.75876204
_cell_formula_units_Z   1
loop_
 _symmetry_equiv_pos_site_id
 _symmetry_equiv_pos_as_xyz
  1  'x, y, z'
loop_
 _atom_site_type_symbol
 _atom_site_label
 _atom_site_symmetry_multiplicity
 _atom_site_fract_x
 _atom_site_fract_y
 _atom_site_fract_z
 _atom_site_occupancy
  B  B0  1  0.11842615  0.08666519  0.34539256  1
  B  B1  1  0.58909568  0.48466354  0.15433511  1
  B  B2  1  0.22874417  0.89314767  0.10145459  1
  B  B3  1  0.53995373  0.88401341  0.09474358  1
  B  B4  1  0.77734402  0.76461866  0.35572865  1
  Al  Al5  1  0.22450105  0.19930551  0.06243147  1
  Al  Al6  1  0.78055544  0.08866210  0.80859988  1
  Al  Al7  1  0.89849737  0.19254737  0.55684928  1
  Al  Al8  1  0.45374071  0.07910399  0.31286524  1
  Al  Al9  1  0.56143609  0.19534517  0.05905483  1
  Al  Al10  1  0.10962764  0.09729312  0.81465503  1
  Al  Al11  1  0.22093388  0.20337475  0.55768794  1
  Al  Al12  1  0.78532100  0.08312677  0.30947375  1
  Al  Al13  1  0.89851282  0.18620996  0.06518184  1
  Al  Al14  1  0.43928363  0.09794252  0.80690610  1
  Al  Al15  1  0.55734766  0.20310538  0.55798767  1
  Al  Al16  1  0.10614787  0.43292601  0.30773137  1
  Al  Al17  1  0.23330548  0.54941121  0.06129005  1
  Al  Al18  1  0.76322117  0.42756020  0.89032067  1
  Al  Al19  1  0.89289918  0.54181056  0.56229642  1
  Al  Al20  1  0.44358377  0.42221663  0.30988228  1
  Al  Al21  1  0.10828624  0.42581101  0.81310088  1
  Al  Al22  1  0.22580470  0.53608912  0.55847106  1
  Al  Al23  1  0.78178652  0.42899829  0.37104363  1
  Al  Al24  1  0.87027080  0.55624508  0.06883058  1
  Al  Al25  1  0.44144134  0.42146784  0.81091079  1
  Al  Al26  1  0.56324690  0.53795052  0.63485771  1
  Al  Al27  1  0.11553321  0.77022829  0.31014493  1
  Al  Al28  1  0.77792577  0.75542911  0.82099782  1
  Al  Al29  1  0.89030929  0.86532659  0.56013891  1
  Al  Al30  1  0.45204040  0.76357890  0.37779583  1
  Al  Al31  1  0.11016788  0.75490199  0.80837340  1
  Al  Al32  1  0.22971315  0.86767134  0.62119442  1
  Al  Al33  1  0.88307153  0.87246291  0.05884111  1
  Al  Al34  1  0.43910459  0.76624519  0.88929046  1
  Al  Al35  1  0.55641885  0.86497891  0.62103004  1
  N  N36  1  0.20989307  0.19387109  0.36605075  1
  N  N37  1  0.12279519  0.07410790  0.10714939  1
  N  N38  1  0.88867305  0.19787971  0.87762434  1
  N  N39  1  0.78084391  0.08885733  0.61996568  1
  N  N40  1  0.55892956  0.20463743  0.37160763  1
  N  N41  1  0.45258791  0.07705642  0.12354184  1
  N  N42  1  0.22193558  0.20770836  0.87665306  1
  N  N43  1  0.10865788  0.10146302  0.62732846  1
  N  N44  1  0.92257403  0.18286958  0.36331433  1
  N  N45  1  0.77874224  0.08795382  0.12698038  1
  N  N46  1  0.55686743  0.20167836  0.87390961  1
  N  N47  1  0.44078998  0.09903656  0.61728794  1
  N  N48  1  0.22458215  0.54181767  0.37060028  1
  N  N49  1  0.10840893  0.43682406  0.12328468  1
  N  N50  1  0.88927684  0.53471831  0.87996590  1
  N  N51  1  0.77499328  0.42409857  0.55843218  1
  N  N52  1  0.56543811  0.53854772  0.29764220  1
  N  N53  1  0.46400175  0.42299007  0.12130805  1
  N  N54  1  0.22198865  0.53790884  0.87653175  1
  N  N55  1  0.11320442  0.42415502  0.62204514  1
  N  N56  1  0.87976121  0.57114915  0.36773726  1
  N  N57  1  0.75336217  0.42944572  0.08675526  1
  N  N58  1  0.55433945  0.54363427  0.82148548  1
  N  N59  1  0.44454061  0.42049189  0.62272526  1
  N  N60  1  0.21280410  0.90327252  0.35963169  1
  N  N61  1  0.13314374  0.77846747  0.11967322  1
  N  N62  1  0.89076625  0.87006222  0.87407767  1
  N  N63  1  0.78984022  0.75171762  0.63062074  1
  N  N64  1  0.59337650  0.85742009  0.36321442  1
  N  N65  1  0.41926034  0.81262469  0.07410415  1
  N  N66  1  0.22834600  0.86684792  0.81606000  1
  N  N67  1  0.10930252  0.75334231  0.61906513  1
  N  N68  1  0.88166466  0.85668328  0.36819914  1
  N  N69  1  0.72860350  0.78647125  0.08669679  1
  N  N70  1  0.54669134  0.87010012  0.81418472  1
  N  N71  1  0.45139585  0.74735347  0.56220987  1
