# generated using pymatgen
data_Al31B5N36
_symmetry_space_group_name_H-M   'P 1'
_cell_length_a   9.13127135
_cell_length_b   9.16156969
_cell_length_c   10.27239841
_cell_angle_alpha   90.07001071
_cell_angle_beta   90.04379272
_cell_angle_gamma   60.16350067
_symmetry_Int_Tables_number   1
_chemical_formula_structural   Al31B5N36
_chemical_formula_sum   'Al31 B5 N36'
_cell_volume   745.44646015
_cell_formula_units_Z   1
loop_
 _symmetry_equiv_pos_site_id
 _symmetry_equiv_pos_as_xyz
  1  'x, y, z'
loop_
 _atom_site_type_symbol
 _atom_site_label
 _atom_site_symmetry_multiplicity
 _atom_site_fract_x
 _atom_site_fract_y
 _atom_site_fract_z
 _atom_site_occupancy
  B  B0  1  0.11422675  0.09103809  0.35746347  1
  B  B1  1  0.56672113  0.51933787  0.15398811  1
  B  B2  1  0.22728787  0.88116153  0.10185313  1
  B  B3  1  0.54995266  0.87174114  0.10032366  1
  B  B4  1  0.77432913  0.76506253  0.35890971  1
  Al  Al5  1  0.22776011  0.19219810  0.06165266  1
  Al  Al6  1  0.78005264  0.09074444  0.80991074  1
  Al  Al7  1  0.89448769  0.20188382  0.56255726  1
  Al  Al8  1  0.45203355  0.07950268  0.31374452  1
  Al  Al9  1  0.56140947  0.19781827  0.06225999  1
  Al  Al10  1  0.11336933  0.09354590  0.82183825  1
  Al  Al11  1  0.22122326  0.20382265  0.56224278  1
  Al  Al12  1  0.78317196  0.08696284  0.31157922  1
  Al  Al13  1  0.89271696  0.19627583  0.06069047  1
  Al  Al14  1  0.44191316  0.09694652  0.80982554  1
  Al  Al15  1  0.55601032  0.20460700  0.55825602  1
  Al  Al16  1  0.10499732  0.43226580  0.31014110  1
  Al  Al17  1  0.23061375  0.54522286  0.06265083  1
  Al  Al18  1  0.78657449  0.42090605  0.81190772  1
  Al  Al19  1  0.88924627  0.54089169  0.56357935  1
  Al  Al20  1  0.44070344  0.42609154  0.30944216  1
  Al  Al21  1  0.11335270  0.42524772  0.81120736  1
  Al  Al22  1  0.22337120  0.53788544  0.55894793  1
  Al  Al23  1  0.78705048  0.43076913  0.31209306  1
  Al  Al24  1  0.87059761  0.54672443  0.05950429  1
  Al  Al25  1  0.44345769  0.42151309  0.81534213  1
  Al  Al26  1  0.55211861  0.54422034  0.63666470  1
  Al  Al27  1  0.11204937  0.77074021  0.31247839  1
  Al  Al28  1  0.78097348  0.75705292  0.82061257  1
  Al  Al29  1  0.88940053  0.86816924  0.56155020  1
  Al  Al30  1  0.44619012  0.76885811  0.38291710  1
  Al  Al31  1  0.11109282  0.75473038  0.81086141  1
  Al  Al32  1  0.22860272  0.86953663  0.62737307  1
  Al  Al33  1  0.88384433  0.87229276  0.06159315  1
  Al  Al34  1  0.44633645  0.75807500  0.89320700  1
  Al  Al35  1  0.55667190  0.86591500  0.62512860  1
  N  N36  1  0.20909960  0.19342073  0.37000858  1
  N  N37  1  0.12643069  0.06265617  0.09115257  1
  N  N38  1  0.88716872  0.20356719  0.87537238  1
  N  N39  1  0.77941605  0.09214068  0.62063857  1
  N  N40  1  0.55615544  0.20613531  0.37124945  1
  N  N41  1  0.45596386  0.06809906  0.12405996  1
  N  N42  1  0.22527874  0.20693376  0.87687201  1
  N  N43  1  0.10861721  0.10229962  0.63152251  1
  N  N44  1  0.91601759  0.19401132  0.37086971  1
  N  N45  1  0.78033858  0.09004085  0.12840453  1
  N  N46  1  0.55854787  0.20013536  0.87718423  1
  N  N47  1  0.44159483  0.10011873  0.62041671  1
  N  N48  1  0.22155885  0.54176694  0.37157757  1
  N  N49  1  0.10844124  0.42984172  0.12431075  1
  N  N50  1  0.89319043  0.53259712  0.87536119  1
  N  N51  1  0.78463574  0.42297982  0.61902365  1
  N  N52  1  0.54946102  0.55191035  0.30593326  1
  N  N53  1  0.45981352  0.43019442  0.12131932  1
  N  N54  1  0.22324029  0.53669578  0.87822216  1
  N  N55  1  0.11285695  0.42614541  0.62167514  1
  N  N56  1  0.87610724  0.56771335  0.37300255  1
  N  N57  1  0.76225379  0.42922119  0.12448785  1
  N  N58  1  0.55543699  0.54153628  0.82524819  1
  N  N59  1  0.44180217  0.42186674  0.62391238  1
  N  N60  1  0.20540052  0.90779918  0.36136330  1
  N  N61  1  0.13126501  0.77387191  0.12251367  1
  N  N62  1  0.89262830  0.87096002  0.87671937  1
  N  N63  1  0.78950597  0.75431339  0.63096928  1
  N  N64  1  0.59130317  0.85792178  0.36500485  1
  N  N65  1  0.43266759  0.78491397  0.08460065  1
  N  N66  1  0.23324949  0.86241725  0.82055478  1
  N  N67  1  0.10860499  0.75548247  0.62152188  1
  N  N68  1  0.87921208  0.85726106  0.36979298  1
  N  N69  1  0.73574255  0.77875340  0.08851112  1
  N  N70  1  0.54951365  0.86746599  0.81868586  1
  N  N71  1  0.44768088  0.75358678  0.56534477  1
