# generated using pymatgen
data_Al31B5N36
_symmetry_space_group_name_H-M   'P 1'
_cell_length_a   9.15031572
_cell_length_b   9.22155939
_cell_length_c   10.14679408
_cell_angle_alpha   91.19770754
_cell_angle_beta   90.63583757
_cell_angle_gamma   60.26242544
_symmetry_Int_Tables_number   1
_chemical_formula_structural   Al31B5N36
_chemical_formula_sum   'Al31 B5 N36'
_cell_volume   743.27110702
_cell_formula_units_Z   1
loop_
 _symmetry_equiv_pos_site_id
 _symmetry_equiv_pos_as_xyz
  1  'x, y, z'
loop_
 _atom_site_type_symbol
 _atom_site_label
 _atom_site_symmetry_multiplicity
 _atom_site_fract_x
 _atom_site_fract_y
 _atom_site_fract_z
 _atom_site_occupancy
  B  B0  1  0.11390745  0.09048017  0.38785801  1
  B  B1  1  0.58422641  0.48096954  0.16869489  1
  B  B2  1  0.22554870  0.89081294  0.15165516  1
  B  B3  1  0.53960556  0.88115300  0.11485832  1
  B  B4  1  0.77340363  0.76378702  0.36858191  1
  Al  Al5  1  0.22813038  0.19946772  0.09209239  1
  Al  Al6  1  0.77635507  0.08682601  0.82964837  1
  Al  Al7  1  0.89548099  0.20300422  0.64671914  1
  Al  Al8  1  0.45276965  0.07923753  0.33075212  1
  Al  Al9  1  0.56462755  0.19070351  0.08326367  1
  Al  Al10  1  0.10986260  0.08651420  0.90297081  1
  Al  Al11  1  0.22425209  0.19769511  0.56689834  1
  Al  Al12  1  0.78129003  0.08126024  0.33519562  1
  Al  Al13  1  0.90172138  0.19797821  0.15798748  1
  Al  Al14  1  0.43377792  0.10334544  0.82556216  1
  Al  Al15  1  0.55792028  0.19847356  0.57809063  1
  Al  Al16  1  0.10336300  0.43993083  0.39234488  1
  Al  Al17  1  0.22997158  0.55129064  0.15484501  1
  Al  Al18  1  0.77314132  0.42640335  0.90868983  1
  Al  Al19  1  0.89669529  0.52634357  0.65618280  1
  Al  Al20  1  0.44562081  0.43143283  0.40010290  1
  Al  Al21  1  0.10652382  0.43634287  0.90943467  1
  Al  Al22  1  0.22280334  0.53863509  0.65073856  1
  Al  Al23  1  0.78636907  0.42650401  0.40022221  1
  Al  Al24  1  0.86056337  0.56189061  0.15258079  1
  Al  Al25  1  0.44759391  0.43420122  0.90552758  1
  Al  Al26  1  0.55570561  0.54087679  0.65309251  1
  Al  Al27  1  0.11687742  0.76614932  0.39281465  1
  Al  Al28  1  0.77359277  0.76286770  0.84627874  1
  Al  Al29  1  0.88557318  0.86463155  0.58066789  1
  Al  Al30  1  0.45238671  0.75996292  0.38412061  1
  Al  Al31  1  0.12368036  0.76135113  0.90616447  1
  Al  Al32  1  0.22538573  0.86924833  0.64496211  1
  Al  Al33  1  0.87968675  0.87319620  0.08310691  1
  Al  Al34  1  0.44236540  0.76985358  0.91124745  1
  Al  Al35  1  0.55585906  0.86514295  0.63604512  1
  N  N36  1  0.21474339  0.19200679  0.37347174  1
  N  N37  1  0.11701312  0.07357808  0.09352936  1
  N  N38  1  0.89096745  0.20797717  0.84030021  1
  N  N39  1  0.77635891  0.08571518  0.64050460  1
  N  N40  1  0.55841434  0.19875619  0.38969084  1
  N  N41  1  0.45610169  0.07410897  0.14241779  1
  N  N42  1  0.22407132  0.20615016  0.89968206  1
  N  N43  1  0.10905921  0.08214259  0.57113785  1
  N  N44  1  0.92105936  0.19284158  0.34680564  1
  N  N45  1  0.77867203  0.08830211  0.14974684  1
  N  N46  1  0.55720139  0.20037399  0.89588522  1
  N  N47  1  0.43644613  0.10208073  0.63680032  1
  N  N48  1  0.22661264  0.54115570  0.33801728  1
  N  N49  1  0.09951720  0.44674520  0.10075981  1
  N  N50  1  0.89055849  0.52796294  0.84678235  1
  N  N51  1  0.77821974  0.42399812  0.58628511  1
  N  N52  1  0.56659418  0.52389855  0.31668560  1
  N  N53  1  0.46370063  0.43414697  0.10183421  1
  N  N54  1  0.22428705  0.53816491  0.84274856  1
  N  N55  1  0.11039854  0.42973586  0.58276362  1
  N  N56  1  0.87144155  0.57082459  0.34371558  1
  N  N57  1  0.75610184  0.42790103  0.10399864  1
  N  N58  1  0.55407814  0.54453704  0.84254695  1
  N  N59  1  0.44466979  0.43170871  0.58942706  1
  N  N60  1  0.21495237  0.89903269  0.32297810  1
  N  N61  1  0.13400221  0.77493094  0.09932521  1
  N  N62  1  0.89058754  0.87272967  0.89643104  1
  N  N63  1  0.78773781  0.75424428  0.64794277  1
  N  N64  1  0.59049026  0.85524184  0.37791102  1
  N  N65  1  0.42150066  0.81102812  0.09962641  1
  N  N66  1  0.22450889  0.87135918  0.83261062  1
  N  N67  1  0.11883041  0.75557810  0.58243945  1
  N  N68  1  0.87567190  0.85478610  0.38546658  1
  N  N69  1  0.72888315  0.78203760  0.09603807  1
  N  N70  1  0.54337484  0.87380431  0.83186641  1
  N  N71  1  0.44474283  0.75229583  0.57511369  1
