# generated using pymatgen
data_Al31B5N36
_symmetry_space_group_name_H-M   'P 1'
_cell_length_a   9.12527991
_cell_length_b   9.21462010
_cell_length_c   10.23213882
_cell_angle_alpha   90.27569673
_cell_angle_beta   89.94389252
_cell_angle_gamma   60.40644112
_symmetry_Int_Tables_number   1
_chemical_formula_structural   Al31B5N36
_chemical_formula_sum   'Al31 B5 N36'
_cell_volume   748.12915123
_cell_formula_units_Z   1
loop_
 _symmetry_equiv_pos_site_id
 _symmetry_equiv_pos_as_xyz
  1  'x, y, z'
loop_
 _atom_site_type_symbol
 _atom_site_label
 _atom_site_symmetry_multiplicity
 _atom_site_fract_x
 _atom_site_fract_y
 _atom_site_fract_z
 _atom_site_occupancy
  B  B0  1  0.11675509  0.08763705  0.35335954  1
  B  B1  1  0.58741661  0.48515647  0.16413294  1
  B  B2  1  0.22823843  0.89223532  0.09871090  1
  B  B3  1  0.54073183  0.88194762  0.09561738  1
  B  B4  1  0.77598333  0.76510042  0.35661707  1
  Al  Al5  1  0.22513673  0.19834943  0.06211116  1
  Al  Al6  1  0.78004334  0.08854667  0.80931152  1
  Al  Al7  1  0.89635472  0.19622800  0.55960911  1
  Al  Al8  1  0.45258556  0.07878335  0.31409808  1
  Al  Al9  1  0.56225180  0.19476619  0.06096867  1
  Al  Al10  1  0.11269848  0.09468254  0.82004428  1
  Al  Al11  1  0.21975732  0.20457639  0.56105227  1
  Al  Al12  1  0.78455938  0.08352469  0.31046634  1
  Al  Al13  1  0.89393852  0.19346212  0.06445776  1
  Al  Al14  1  0.44046729  0.09760983  0.80789446  1
  Al  Al15  1  0.55677496  0.20325067  0.55875834  1
  Al  Al16  1  0.10490538  0.43306584  0.30835393  1
  Al  Al17  1  0.23407180  0.54795897  0.06345378  1
  Al  Al18  1  0.78011678  0.42277037  0.83490972  1
  Al  Al19  1  0.89049613  0.54242972  0.56167211  1
  Al  Al20  1  0.43993621  0.42244554  0.31377637  1
  Al  Al21  1  0.11212880  0.42621574  0.81296721  1
  Al  Al22  1  0.22301104  0.53768153  0.55932222  1
  Al  Al23  1  0.78724936  0.42683893  0.34088207  1
  Al  Al24  1  0.86654991  0.55115591  0.06752183  1
  Al  Al25  1  0.44317491  0.42121945  0.81241595  1
  Al  Al26  1  0.55564145  0.54189073  0.63116956  1
  Al  Al27  1  0.11438159  0.77088164  0.31044996  1
  Al  Al28  1  0.77851761  0.75770082  0.82203689  1
  Al  Al29  1  0.88997215  0.86630575  0.56113377  1
  Al  Al30  1  0.44898003  0.76612129  0.37996345  1
  Al  Al31  1  0.11144476  0.75488001  0.81041955  1
  Al  Al32  1  0.22836421  0.86973019  0.62447060  1
  Al  Al33  1  0.88396828  0.87118440  0.06060188  1
  Al  Al34  1  0.44309368  0.76338381  0.89125392  1
  Al  Al35  1  0.55670543  0.86574418  0.62194260  1
  N  N36  1  0.20839199  0.19399615  0.36845853  1
  N  N37  1  0.12202647  0.07180664  0.09548188  1
  N  N38  1  0.88653491  0.20205225  0.87596038  1
  N  N39  1  0.78006909  0.08947092  0.62063753  1
  N  N40  1  0.55810480  0.20383656  0.37214287  1
  N  N41  1  0.45311047  0.07554829  0.12440391  1
  N  N42  1  0.22371209  0.20868224  0.87619153  1
  N  N43  1  0.10791381  0.10224379  0.63059818  1
  N  N44  1  0.92106172  0.18423527  0.36819073  1
  N  N45  1  0.78028205  0.08737454  0.12700082  1
  N  N46  1  0.55765716  0.20137245  0.87506678  1
  N  N47  1  0.44057539  0.09955881  0.61821257  1
  N  N48  1  0.22096176  0.54259301  0.37134417  1
  N  N49  1  0.10799423  0.43528886  0.12313056  1
  N  N50  1  0.89127146  0.53414965  0.87851102  1
  N  N51  1  0.77789624  0.42396781  0.58184807  1
  N  N52  1  0.55390757  0.54407150  0.30751949  1
  N  N53  1  0.46601448  0.42212877  0.12404672  1
  N  N54  1  0.22431204  0.53765153  0.87795948  1
  N  N55  1  0.11196393  0.42590354  0.62256752  1
  N  N56  1  0.87836336  0.57080979  0.36983037  1
  N  N57  1  0.76709854  0.42137854  0.12658063  1
  N  N58  1  0.55427252  0.54404943  0.82146912  1
  N  N59  1  0.44216182  0.42097293  0.62240505  1
  N  N60  1  0.20999260  0.90542331  0.36032428  1
  N  N61  1  0.13349784  0.77685580  0.12027222  1
  N  N62  1  0.89242784  0.87053027  0.87532387  1
  N  N63  1  0.78981597  0.75276104  0.63112495  1
  N  N64  1  0.59260249  0.85722407  0.36411511  1
  N  N65  1  0.42069438  0.81031991  0.07600014  1
  N  N66  1  0.23090914  0.86504545  0.81868413  1
  N  N67  1  0.10902250  0.75453233  0.62047239  1
  N  N68  1  0.88074957  0.85672707  0.36847389  1
  N  N69  1  0.72940139  0.78358688  0.08537080  1
  N  N70  1  0.54785395  0.86986525  0.81553199  1
  N  N71  1  0.44789388  0.75220175  0.56376337  1
