# generated using pymatgen
data_Al31B5N36
_symmetry_space_group_name_H-M   'P 1'
_cell_length_a   9.17292096
_cell_length_b   9.28067937
_cell_length_c   10.20235933
_cell_angle_alpha   90.69801992
_cell_angle_beta   89.64432735
_cell_angle_gamma   59.94892549
_symmetry_Int_Tables_number   1
_chemical_formula_structural   Al31B5N36
_chemical_formula_sum   'Al31 B5 N36'
_cell_volume   751.65538822
_cell_formula_units_Z   1
loop_
 _symmetry_equiv_pos_site_id
 _symmetry_equiv_pos_as_xyz
  1  'x, y, z'
loop_
 _atom_site_type_symbol
 _atom_site_label
 _atom_site_symmetry_multiplicity
 _atom_site_fract_x
 _atom_site_fract_y
 _atom_site_fract_z
 _atom_site_occupancy
  B  B0  1  0.11188943  0.10403802  0.30602781  1
  B  B1  1  0.59126480  0.47983182  0.15883289  1
  B  B2  1  0.25591002  0.91564859  0.15832411  1
  B  B3  1  0.54057814  0.89029602  0.09657267  1
  B  B4  1  0.77736037  0.76452507  0.36850030  1
  Al  Al5  1  0.22849009  0.20177156  0.06490062  1
  Al  Al6  1  0.78158203  0.08946448  0.80993541  1
  Al  Al7  1  0.90158760  0.19069868  0.55466391  1
  Al  Al8  1  0.45682696  0.08100643  0.31413659  1
  Al  Al9  1  0.56455565  0.19855462  0.05989105  1
  Al  Al10  1  0.10738412  0.09883611  0.81383220  1
  Al  Al11  1  0.22223978  0.19982312  0.55488775  1
  Al  Al12  1  0.78694149  0.08400235  0.31173547  1
  Al  Al13  1  0.90035834  0.18886722  0.07108856  1
  Al  Al14  1  0.44105812  0.09624862  0.80620502  1
  Al  Al15  1  0.55882288  0.20225682  0.56071430  1
  Al  Al16  1  0.11289135  0.42894646  0.30989694  1
  Al  Al17  1  0.22507007  0.54099350  0.06266321  1
  Al  Al18  1  0.76443017  0.43295862  0.89493765  1
  Al  Al19  1  0.88557621  0.53434254  0.63686100  1
  Al  Al20  1  0.44456187  0.42213154  0.31453427  1
  Al  Al21  1  0.11756380  0.41873964  0.81607807  1
  Al  Al22  1  0.22317170  0.53467083  0.56156200  1
  Al  Al23  1  0.78756829  0.43432958  0.37943792  1
  Al  Al24  1  0.86011974  0.56407284  0.13526116  1
  Al  Al25  1  0.44254831  0.42250774  0.81291372  1
  Al  Al26  1  0.55925294  0.54073891  0.63496845  1
  Al  Al27  1  0.10873386  0.76128791  0.30035516  1
  Al  Al28  1  0.76219640  0.76063856  0.86975371  1
  Al  Al29  1  0.89085321  0.86410628  0.56041688  1
  Al  Al30  1  0.45857854  0.76006168  0.37256579  1
  Al  Al31  1  0.10574546  0.75336075  0.81438906  1
  Al  Al32  1  0.23069188  0.86282804  0.63413531  1
  Al  Al33  1  0.88424495  0.87103784  0.06022226  1
  Al  Al34  1  0.43134895  0.77156208  0.89645497  1
  Al  Al35  1  0.55839478  0.86262776  0.61966078  1
  N  N36  1  0.21284822  0.19478229  0.36374185  1
  N  N37  1  0.11911575  0.09608191  0.14342111  1
  N  N38  1  0.89047327  0.19858366  0.88411124  1
  N  N39  1  0.78314076  0.09014224  0.62115627  1
  N  N40  1  0.56032400  0.20455086  0.37350595  1
  N  N41  1  0.45843699  0.08022201  0.12270932  1
  N  N42  1  0.22324551  0.20139712  0.87991547  1
  N  N43  1  0.11227612  0.09582391  0.62566175  1
  N  N44  1  0.92360468  0.18508967  0.36228747  1
  N  N45  1  0.78142282  0.08892118  0.12741333  1
  N  N46  1  0.55640776  0.20207098  0.87370702  1
  N  N47  1  0.44244461  0.09725896  0.61680342  1
  N  N48  1  0.22444210  0.54065692  0.37382165  1
  N  N49  1  0.11102645  0.42541733  0.12209168  1
  N  N50  1  0.88299908  0.53176551  0.83016867  1
  N  N51  1  0.77778191  0.42545881  0.56429411  1
  N  N52  1  0.57023901  0.53248373  0.30260339  1
  N  N53  1  0.46374536  0.42485080  0.12370557  1
  N  N54  1  0.22252355  0.53416426  0.87708781  1
  N  N55  1  0.12037509  0.41708707  0.62414708  1
  N  N56  1  0.87375882  0.57424208  0.32484865  1
  N  N57  1  0.75320740  0.43445326  0.08903577  1
  N  N58  1  0.55116426  0.54698815  0.82670928  1
  N  N59  1  0.44484398  0.42170555  0.62366518  1
  N  N60  1  0.23296598  0.89214727  0.30438956  1
  N  N61  1  0.09752193  0.75291307  0.12195036  1
  N  N62  1  0.88462575  0.87224777  0.87292612  1
  N  N63  1  0.78345812  0.74914378  0.58893233  1
  N  N64  1  0.59229221  0.85759430  0.35163970  1
  N  N65  1  0.41799872  0.82918374  0.08170211  1
  N  N66  1  0.22167067  0.86847558  0.82395744  1
  N  N67  1  0.10896477  0.75271841  0.62286199  1
  N  N68  1  0.88205038  0.86071719  0.37078918  1
  N  N69  1  0.72827053  0.78219011  0.06500126  1
  N  N70  1  0.54476100  0.86722995  0.81229484  1
  N  N71  1  0.44396248  0.75170372  0.55846863  1
