# generated using pymatgen
data_Al31B5N36
_symmetry_space_group_name_H-M   'P 1'
_cell_length_a   9.11707299
_cell_length_b   9.18143182
_cell_length_c   10.20765844
_cell_angle_alpha   89.81293040
_cell_angle_beta   90.01385797
_cell_angle_gamma   60.27673491
_symmetry_Int_Tables_number   1
_chemical_formula_structural   Al31B5N36
_chemical_formula_sum   'Al31 B5 N36'
_cell_volume   742.03366857
_cell_formula_units_Z   1
loop_
 _symmetry_equiv_pos_site_id
 _symmetry_equiv_pos_as_xyz
  1  'x, y, z'
loop_
 _atom_site_type_symbol
 _atom_site_label
 _atom_site_symmetry_multiplicity
 _atom_site_fract_x
 _atom_site_fract_y
 _atom_site_fract_z
 _atom_site_occupancy
  B  B0  1  0.11298245  0.09201392  0.35643556  1
  B  B1  1  0.58504173  0.48102427  0.05226080  1
  B  B2  1  0.22720632  0.88954540  0.10454894  1
  B  B3  1  0.54348592  0.87863072  0.10267106  1
  B  B4  1  0.77408462  0.76390911  0.35695151  1
  Al  Al5  1  0.22560401  0.19615010  0.06304543  1
  Al  Al6  1  0.78024537  0.09013383  0.80934757  1
  Al  Al7  1  0.89419060  0.20364258  0.56427143  1
  Al  Al8  1  0.45202998  0.08146364  0.31516242  1
  Al  Al9  1  0.56177767  0.19277291  0.06173880  1
  Al  Al10  1  0.11321257  0.09318204  0.82292281  1
  Al  Al11  1  0.22177696  0.20289731  0.56193335  1
  Al  Al12  1  0.78329012  0.08694861  0.31305893  1
  Al  Al13  1  0.89427430  0.19287033  0.06007787  1
  Al  Al14  1  0.44203768  0.09651762  0.81081852  1
  Al  Al15  1  0.55563902  0.20597649  0.55969873  1
  Al  Al16  1  0.10513451  0.43235281  0.31099160  1
  Al  Al17  1  0.22927378  0.54701009  0.06165613  1
  Al  Al18  1  0.77827592  0.42544269  0.81563619  1
  Al  Al19  1  0.88787455  0.54142530  0.56453810  1
  Al  Al20  1  0.45026865  0.42883549  0.30543781  1
  Al  Al21  1  0.11346474  0.42450824  0.81065482  1
  Al  Al22  1  0.22529307  0.53808214  0.55923401  1
  Al  Al23  1  0.77554187  0.43462444  0.30722575  1
  Al  Al24  1  0.86924721  0.54905712  0.05856802  1
  Al  Al25  1  0.44668034  0.42569917  0.81811982  1
  Al  Al26  1  0.55960075  0.53088261  0.56056507  1
  Al  Al27  1  0.11283740  0.76970652  0.31195847  1
  Al  Al28  1  0.78143833  0.75707058  0.82203254  1
  Al  Al29  1  0.88958703  0.86803884  0.56082591  1
  Al  Al30  1  0.44337827  0.77385809  0.38501947  1
  Al  Al31  1  0.11059046  0.75426482  0.81135639  1
  Al  Al32  1  0.22924817  0.86922363  0.63008801  1
  Al  Al33  1  0.88367550  0.87168747  0.06297109  1
  Al  Al34  1  0.44282280  0.76506847  0.90375431  1
  Al  Al35  1  0.55673271  0.86573165  0.62849430  1
  N  N36  1  0.20955800  0.19288626  0.36990715  1
  N  N37  1  0.12180254  0.06988570  0.09459972  1
  N  N38  1  0.88639817  0.20373865  0.87402385  1
  N  N39  1  0.78001650  0.09174056  0.61965865  1
  N  N40  1  0.55540905  0.20731926  0.37114724  1
  N  N41  1  0.45388301  0.07397709  0.12564939  1
  N  N42  1  0.22524297  0.20666553  0.87721603  1
  N  N43  1  0.10850309  0.10226477  0.63270399  1
  N  N44  1  0.91530224  0.19607233  0.37051476  1
  N  N45  1  0.78026345  0.08896435  0.12855917  1
  N  N46  1  0.55858673  0.20029787  0.87579708  1
  N  N47  1  0.44217132  0.10057196  0.62133246  1
  N  N48  1  0.22644806  0.53948127  0.36892221  1
  N  N49  1  0.10647210  0.43281618  0.12398586  1
  N  N50  1  0.89267926  0.53255589  0.87395751  1
  N  N51  1  0.77774866  0.42683065  0.62701948  1
  N  N52  1  0.55918834  0.53414971  0.37369302  1
  N  N53  1  0.46494672  0.42834301  0.11495079  1
  N  N54  1  0.22361868  0.53618499  0.87646756  1
  N  N55  1  0.11364662  0.42553584  0.61996209  1
  N  N56  1  0.87459721  0.56646262  0.37040326  1
  N  N57  1  0.75676084  0.42842496  0.11704953  1
  N  N58  1  0.56461924  0.52280022  0.90519380  1
  N  N59  1  0.44702317  0.42649575  0.62998513  1
  N  N60  1  0.20373780  0.90870036  0.36105523  1
  N  N61  1  0.13223962  0.77523645  0.12173032  1
  N  N62  1  0.89258559  0.87127356  0.87692440  1
  N  N63  1  0.78969644  0.75443374  0.63125252  1
  N  N64  1  0.59102359  0.85783190  0.36233560  1
  N  N65  1  0.42172517  0.80703518  0.08841214  1
  N  N66  1  0.23484047  0.86007163  0.82319544  1
  N  N67  1  0.10910066  0.75527630  0.62130055  1
  N  N68  1  0.87962682  0.85576772  0.36896037  1
  N  N69  1  0.73192395  0.78079614  0.08766299  1
  N  N70  1  0.54964233  0.86542899  0.82060231  1
  N  N71  1  0.44523906  0.75996625  0.57150231  1
