# generated using pymatgen
data_Al31B5N36
_symmetry_space_group_name_H-M   'P 1'
_cell_length_a   9.12552885
_cell_length_b   9.21094516
_cell_length_c   10.09763525
_cell_angle_alpha   89.56005386
_cell_angle_beta   89.85843796
_cell_angle_gamma   60.30007410
_symmetry_Int_Tables_number   1
_chemical_formula_structural   Al31B5N36
_chemical_formula_sum   'Al31 B5 N36'
_cell_volume   737.23255557
_cell_formula_units_Z   1
loop_
 _symmetry_equiv_pos_site_id
 _symmetry_equiv_pos_as_xyz
  1  'x, y, z'
loop_
 _atom_site_type_symbol
 _atom_site_label
 _atom_site_symmetry_multiplicity
 _atom_site_fract_x
 _atom_site_fract_y
 _atom_site_fract_z
 _atom_site_occupancy
  B  B0  1  0.11088717  0.09406159  0.31576271  1
  B  B1  1  0.58937215  0.47292184  0.04840587  1
  B  B2  1  0.22899984  0.89103848  0.11422595  1
  B  B3  1  0.54038431  0.88651249  0.10202497  1
  B  B4  1  0.77240555  0.76547114  0.35321872  1
  Al  Al5  1  0.22260536  0.20206906  0.06960971  1
  Al  Al6  1  0.78359703  0.08821719  0.80887666  1
  Al  Al7  1  0.89285778  0.20468779  0.55522291  1
  Al  Al8  1  0.45086792  0.08547313  0.31484132  1
  Al  Al9  1  0.56262944  0.19331375  0.05875956  1
  Al  Al10  1  0.11644555  0.08854269  0.81147338  1
  Al  Al11  1  0.21938094  0.20438027  0.55348222  1
  Al  Al12  1  0.78146826  0.08835326  0.31127005  1
  Al  Al13  1  0.89805164  0.19207048  0.06545157  1
  Al  Al14  1  0.43974371  0.09564735  0.81175139  1
  Al  Al15  1  0.55499665  0.20517486  0.56005404  1
  Al  Al16  1  0.10378989  0.43563910  0.30866583  1
  Al  Al17  1  0.22963070  0.55153793  0.05880769  1
  Al  Al18  1  0.78166316  0.42117234  0.81511531  1
  Al  Al19  1  0.88602541  0.54175222  0.56312127  1
  Al  Al20  1  0.45034524  0.42861104  0.30418342  1
  Al  Al21  1  0.11312243  0.42298303  0.81125410  1
  Al  Al22  1  0.22449524  0.53685108  0.55764978  1
  Al  Al23  1  0.77450632  0.43435002  0.30512560  1
  Al  Al24  1  0.86589653  0.55293420  0.05705380  1
  Al  Al25  1  0.44636975  0.42522641  0.81529596  1
  Al  Al26  1  0.55870134  0.53106346  0.55902233  1
  Al  Al27  1  0.11266404  0.76964461  0.31319630  1
  Al  Al28  1  0.78033821  0.75700049  0.82073618  1
  Al  Al29  1  0.88577393  0.86816246  0.55879785  1
  Al  Al30  1  0.44679560  0.77201680  0.37968273  1
  Al  Al31  1  0.11382683  0.75633958  0.80510094  1
  Al  Al32  1  0.21715891  0.87786557  0.58587693  1
  Al  Al33  1  0.88274857  0.87230982  0.06052916  1
  Al  Al34  1  0.43975264  0.76549594  0.90344668  1
  Al  Al35  1  0.55234821  0.86609551  0.62852989  1
  N  N36  1  0.20942972  0.19738856  0.36105346  1
  N  N37  1  0.11873382  0.08070699  0.14499779  1
  N  N38  1  0.89416858  0.19833839  0.87729068  1
  N  N39  1  0.78086988  0.09146399  0.61721296  1
  N  N40  1  0.55530095  0.20831152  0.37026509  1
  N  N41  1  0.45341826  0.07901471  0.12361706  1
  N  N42  1  0.22148936  0.20352795  0.88119613  1
  N  N43  1  0.10645257  0.10357477  0.62477198  1
  N  N44  1  0.91051583  0.19896277  0.36209830  1
  N  N45  1  0.78080273  0.08826573  0.12516737  1
  N  N46  1  0.55919099  0.19945795  0.87189482  1
  N  N47  1  0.43850470  0.10097752  0.61955111  1
  N  N48  1  0.22628682  0.54005563  0.36609658  1
  N  N49  1  0.10315769  0.44077853  0.12066365  1
  N  N50  1  0.89145577  0.53262071  0.87174930  1
  N  N51  1  0.77766188  0.42452264  0.62467803  1
  N  N52  1  0.55832158  0.53498816  0.37003573  1
  N  N53  1  0.46596404  0.42694673  0.11232530  1
  N  N54  1  0.22324189  0.53679234  0.87252395  1
  N  N55  1  0.11246944  0.42466929  0.61800484  1
  N  N56  1  0.87221461  0.56839287  0.36697319  1
  N  N57  1  0.75720223  0.42781717  0.11424701  1
  N  N58  1  0.56572237  0.52077957  0.90290885  1
  N  N59  1  0.44629619  0.42577739  0.62688100  1
  N  N60  1  0.20230906  0.90732780  0.37102371  1
  N  N61  1  0.13496173  0.78066404  0.12152112  1
  N  N62  1  0.89451885  0.86835596  0.87349600  1
  N  N63  1  0.78604443  0.75473781  0.62879944  1
  N  N64  1  0.58950773  0.86059328  0.35830928  1
  N  N65  1  0.41480932  0.81954865  0.08927704  1
  N  N66  1  0.23115860  0.86283375  0.83048991  1
  N  N67  1  0.10769145  0.75596059  0.61460833  1
  N  N68  1  0.87811867  0.85635188  0.36534491  1
  N  N69  1  0.72858766  0.78425487  0.08537094  1
  N  N70  1  0.54858644  0.86549307  0.82166131  1
  N  N71  1  0.44550007  0.75815845  0.56955816  1
