# generated using pymatgen
data_Al31B5N36
_symmetry_space_group_name_H-M   'P 1'
_cell_length_a   9.13818875
_cell_length_b   9.22067616
_cell_length_c   9.97773591
_cell_angle_alpha   89.86800819
_cell_angle_beta   90.23193541
_cell_angle_gamma   60.38152650
_symmetry_Int_Tables_number   1
_chemical_formula_structural   Al31B5N36
_chemical_formula_sum   'Al31 B5 N36'
_cell_volume   730.85882310
_cell_formula_units_Z   1
loop_
 _symmetry_equiv_pos_site_id
 _symmetry_equiv_pos_as_xyz
  1  'x, y, z'
loop_
 _atom_site_type_symbol
 _atom_site_label
 _atom_site_symmetry_multiplicity
 _atom_site_fract_x
 _atom_site_fract_y
 _atom_site_fract_z
 _atom_site_occupancy
  B  B0  1  0.11196492  0.08962706  0.30558027  1
  B  B1  1  0.58715576  0.47511167  0.04934910  1
  B  B2  1  0.21888242  0.88961005  0.07121693  1
  B  B3  1  0.54312513  0.88125316  0.10883910  1
  B  B4  1  0.77355815  0.76555524  0.34766737  1
  Al  Al5  1  0.22342688  0.19925970  0.07025324  1
  Al  Al6  1  0.78069960  0.09044273  0.80911811  1
  Al  Al7  1  0.89530160  0.20375404  0.55728322  1
  Al  Al8  1  0.45116946  0.08480898  0.31752814  1
  Al  Al9  1  0.56168324  0.19178969  0.05956302  1
  Al  Al10  1  0.11628205  0.09030544  0.81935896  1
  Al  Al11  1  0.21888865  0.20401105  0.55466184  1
  Al  Al12  1  0.78209469  0.08777551  0.31164818  1
  Al  Al13  1  0.89499875  0.19385237  0.06443464  1
  Al  Al14  1  0.44001250  0.09424961  0.80862502  1
  Al  Al15  1  0.55524859  0.20750941  0.55938829  1
  Al  Al16  1  0.10570982  0.43334315  0.30991529  1
  Al  Al17  1  0.22744884  0.54760350  0.05936767  1
  Al  Al18  1  0.78035571  0.42411957  0.81437516  1
  Al  Al19  1  0.88661251  0.54251893  0.55984015  1
  Al  Al20  1  0.44968910  0.42804232  0.30422165  1
  Al  Al21  1  0.11147733  0.42672657  0.81174856  1
  Al  Al22  1  0.22449773  0.54137389  0.56222820  1
  Al  Al23  1  0.77700144  0.43063137  0.30473387  1
  Al  Al24  1  0.86761043  0.55163607  0.06061792  1
  Al  Al25  1  0.44608042  0.42534195  0.81562927  1
  Al  Al26  1  0.55768052  0.53440387  0.55713458  1
  Al  Al27  1  0.11119435  0.76728527  0.30610028  1
  Al  Al28  1  0.77864449  0.75846000  0.81581195  1
  Al  Al29  1  0.88991957  0.86854637  0.56087279  1
  Al  Al30  1  0.44886236  0.76815189  0.36058019  1
  Al  Al31  1  0.11454644  0.76564473  0.81897590  1
  Al  Al32  1  0.21355221  0.88208015  0.55688435  1
  Al  Al33  1  0.88227407  0.87014377  0.06322569  1
  Al  Al34  1  0.45210845  0.76290995  0.91329858  1
  Al  Al35  1  0.55423167  0.86763198  0.61064569  1
  N  N36  1  0.20976289  0.19455005  0.35979373  1
  N  N37  1  0.11689513  0.07868328  0.13676077  1
  N  N38  1  0.89105161  0.20203523  0.87459970  1
  N  N39  1  0.78102110  0.09270147  0.61617233  1
  N  N40  1  0.55589436  0.20842944  0.36895565  1
  N  N41  1  0.45480917  0.07506604  0.12440687  1
  N  N42  1  0.22258287  0.20685979  0.87938589  1
  N  N43  1  0.11274673  0.09412666  0.62993054  1
  N  N44  1  0.91324739  0.19633602  0.36098253  1
  N  N45  1  0.78001578  0.08833473  0.12416855  1
  N  N46  1  0.55724900  0.20011651  0.87076255  1
  N  N47  1  0.43916753  0.10236755  0.61586755  1
  N  N48  1  0.22610962  0.54116825  0.36834605  1
  N  N49  1  0.10566008  0.43547999  0.12055658  1
  N  N50  1  0.88970817  0.53623978  0.87259032  1
  N  N51  1  0.77886960  0.42564831  0.62209925  1
  N  N52  1  0.56085159  0.53260187  0.36715414  1
  N  N53  1  0.46459866  0.42634956  0.11120216  1
  N  N54  1  0.22299589  0.54046850  0.87084385  1
  N  N55  1  0.11219556  0.42613968  0.61685905  1
  N  N56  1  0.87308720  0.56756707  0.36345811  1
  N  N57  1  0.75657193  0.42740273  0.11331839  1
  N  N58  1  0.56435528  0.52297261  0.90136692  1
  N  N59  1  0.44775776  0.42715155  0.62632068  1
  N  N60  1  0.20111605  0.90518101  0.36419762  1
  N  N61  1  0.12511454  0.77387445  0.11812797  1
  N  N62  1  0.88978921  0.87134466  0.87343372  1
  N  N63  1  0.78821708  0.75510230  0.62555965  1
  N  N64  1  0.59035039  0.86150385  0.36822584  1
  N  N65  1  0.42632899  0.80782991  0.10189406  1
  N  N66  1  0.21534393  0.87991697  0.90491221  1
  N  N67  1  0.11327212  0.76367547  0.62462221  1
  N  N68  1  0.88002018  0.85561252  0.36539561  1
  N  N69  1  0.73363639  0.78056460  0.09956476  1
  N  N70  1  0.54637628  0.86468871  0.81716340  1
  N  N71  1  0.44030752  0.76010137  0.56611223  1
