# generated using pymatgen
data_Al31B5N36
_symmetry_space_group_name_H-M   'P 1'
_cell_length_a   9.11941477
_cell_length_b   9.22777708
_cell_length_c   10.19757038
_cell_angle_alpha   90.29476248
_cell_angle_beta   89.71395764
_cell_angle_gamma   60.30104410
_symmetry_Int_Tables_number   1
_chemical_formula_structural   Al31B5N36
_chemical_formula_sum   'Al31 B5 N36'
_cell_volume   745.38175125
_cell_formula_units_Z   1
loop_
 _symmetry_equiv_pos_site_id
 _symmetry_equiv_pos_as_xyz
  1  'x, y, z'
loop_
 _atom_site_type_symbol
 _atom_site_label
 _atom_site_symmetry_multiplicity
 _atom_site_fract_x
 _atom_site_fract_y
 _atom_site_fract_z
 _atom_site_occupancy
  B  B0  1  0.11494956  0.09472319  0.30341132  1
  B  B1  1  0.58854708  0.48478308  0.15463835  1
  B  B2  1  0.23476438  0.88832971  0.14043229  1
  B  B3  1  0.53991322  0.88491671  0.09697414  1
  B  B4  1  0.77733955  0.76489400  0.35572886  1
  Al  Al5  1  0.22425732  0.20131414  0.06734261  1
  Al  Al6  1  0.78185451  0.08829911  0.80948135  1
  Al  Al7  1  0.90106832  0.19028607  0.55120239  1
  Al  Al8  1  0.45375515  0.08107239  0.31350585  1
  Al  Al9  1  0.56195922  0.19571931  0.05894371  1
  Al  Al10  1  0.10948705  0.09731614  0.81179880  1
  Al  Al11  1  0.22061072  0.20184846  0.55233303  1
  Al  Al12  1  0.78438178  0.08385901  0.30954971  1
  Al  Al13  1  0.89905633  0.18796163  0.07079995  1
  Al  Al14  1  0.43875372  0.09698201  0.80781369  1
  Al  Al15  1  0.55772119  0.20300771  0.55894885  1
  Al  Al16  1  0.10718999  0.43325777  0.30780554  1
  Al  Al17  1  0.23208627  0.55010870  0.06123381  1
  Al  Al18  1  0.76392201  0.42651285  0.89118658  1
  Al  Al19  1  0.89299344  0.54103770  0.56233300  1
  Al  Al20  1  0.44374301  0.42231427  0.31088740  1
  Al  Al21  1  0.10833440  0.42397177  0.81394385  1
  Al  Al22  1  0.22575112  0.53497110  0.55918959  1
  Al  Al23  1  0.78242697  0.42822778  0.36927372  1
  Al  Al24  1  0.86993109  0.55715133  0.06967443  1
  Al  Al25  1  0.44189629  0.42144089  0.81099443  1
  Al  Al26  1  0.56335487  0.53820570  0.63391423  1
  Al  Al27  1  0.11340779  0.76583624  0.30828799  1
  Al  Al28  1  0.77626470  0.75530408  0.82157429  1
  Al  Al29  1  0.88968719  0.86551492  0.56104520  1
  Al  Al30  1  0.45414500  0.76242268  0.37344720  1
  Al  Al31  1  0.10927946  0.75412892  0.80994131  1
  Al  Al32  1  0.23197878  0.86466635  0.62784556  1
  Al  Al33  1  0.88375800  0.87171295  0.05902525  1
  Al  Al34  1  0.43672343  0.76789506  0.89424077  1
  Al  Al35  1  0.55564124  0.86550679  0.61884362  1
  N  N36  1  0.21099108  0.19697932  0.36108321  1
  N  N37  1  0.11742629  0.08805857  0.14223910  1
  N  N38  1  0.89277731  0.19495082  0.88209381  1
  N  N39  1  0.78217173  0.08928923  0.61982439  1
  N  N40  1  0.55918603  0.20499247  0.37197688  1
  N  N41  1  0.45373480  0.07801383  0.12343275  1
  N  N42  1  0.22057685  0.20493738  0.88018404  1
  N  N43  1  0.11094771  0.09760409  0.62356104  1
  N  N44  1  0.92097038  0.18332217  0.35901544  1
  N  N45  1  0.77930280  0.08757442  0.12617922  1
  N  N46  1  0.55701313  0.20135667  0.87298289  1
  N  N47  1  0.43964461  0.09961965  0.61685048  1
  N  N48  1  0.22471631  0.54154071  0.37116255  1
  N  N49  1  0.10786547  0.43845013  0.12268274  1
  N  N50  1  0.88896647  0.53404241  0.87968255  1
  N  N51  1  0.77602438  0.42285604  0.55831526  1
  N  N52  1  0.56517644  0.53831407  0.29808085  1
  N  N53  1  0.46377658  0.42354660  0.12082639  1
  N  N54  1  0.22204515  0.53635335  0.87556361  1
  N  N55  1  0.11372382  0.42193263  0.62176136  1
  N  N56  1  0.87947953  0.57160933  0.36674395  1
  N  N57  1  0.75309294  0.43026318  0.08781874  1
  N  N58  1  0.55398533  0.54414746  0.82262173  1
  N  N59  1  0.44497361  0.42086244  0.62225234  1
  N  N60  1  0.22456016  0.89520510  0.32091164  1
  N  N61  1  0.12739869  0.77694179  0.11987726  1
  N  N62  1  0.88964538  0.86960056  0.87317272  1
  N  N63  1  0.78925728  0.75133406  0.63028641  1
  N  N64  1  0.59340457  0.85838125  0.36396210  1
  N  N65  1  0.41676249  0.81749494  0.07930499  1
  N  N66  1  0.22677008  0.86697170  0.81842004  1
  N  N67  1  0.10987198  0.75332822  0.61810996  1
  N  N68  1  0.88131134  0.85712262  0.36874469  1
  N  N69  1  0.72853365  0.78690738  0.08667818  1
  N  N70  1  0.54483393  0.86935897  0.81424437  1
  N  N71  1  0.44812966  0.74893462  0.55931413  1
