# generated using pymatgen
data_Al31B5N36
_symmetry_space_group_name_H-M   'P 1'
_cell_length_a   9.15392639
_cell_length_b   9.23165468
_cell_length_c   9.83246937
_cell_angle_alpha   89.95305793
_cell_angle_beta   90.20736893
_cell_angle_gamma   60.29729014
_symmetry_Int_Tables_number   1
_chemical_formula_structural   Al31B5N36
_chemical_formula_sum   'Al31 B5 N36'
_cell_volume   721.71980777
_cell_formula_units_Z   1
loop_
 _symmetry_equiv_pos_site_id
 _symmetry_equiv_pos_as_xyz
  1  'x, y, z'
loop_
 _atom_site_type_symbol
 _atom_site_label
 _atom_site_symmetry_multiplicity
 _atom_site_fract_x
 _atom_site_fract_y
 _atom_site_fract_z
 _atom_site_occupancy
  B  B0  1  0.11409479  0.08813649  0.30666173  1
  B  B1  1  0.58785733  0.47465762  0.05004298  1
  B  B2  1  0.21505437  0.88823838  0.07009224  1
  B  B3  1  0.54617054  0.88788466  0.06987589  1
  B  B4  1  0.76645452  0.76653389  0.30570945  1
  Al  Al5  1  0.22383975  0.19911087  0.06925046  1
  Al  Al6  1  0.78151343  0.09006344  0.81018491  1
  Al  Al7  1  0.89552969  0.20244391  0.55778452  1
  Al  Al8  1  0.44864651  0.08508752  0.31138675  1
  Al  Al9  1  0.56116819  0.19496857  0.05872943  1
  Al  Al10  1  0.11507703  0.09121721  0.81800747  1
  Al  Al11  1  0.22006770  0.20186271  0.55748219  1
  Al  Al12  1  0.78163730  0.08763678  0.31263126  1
  Al  Al13  1  0.89475823  0.19521088  0.06594986  1
  Al  Al14  1  0.44464510  0.08769698  0.81515290  1
  Al  Al15  1  0.55512744  0.20561684  0.56246236  1
  Al  Al16  1  0.10499437  0.43148906  0.31101947  1
  Al  Al17  1  0.22896686  0.54670307  0.06101284  1
  Al  Al18  1  0.78023348  0.42526642  0.81359545  1
  Al  Al19  1  0.88362019  0.54533041  0.55673332  1
  Al  Al20  1  0.44886020  0.42869152  0.30832606  1
  Al  Al21  1  0.11005175  0.42811818  0.81299223  1
  Al  Al22  1  0.22355390  0.54115037  0.56201336  1
  Al  Al23  1  0.77517372  0.42989855  0.30913597  1
  Al  Al24  1  0.87292128  0.54870890  0.06739503  1
  Al  Al25  1  0.44565889  0.42561251  0.81363442  1
  Al  Al26  1  0.55206199  0.54612318  0.56105842  1
  Al  Al27  1  0.10989649  0.76832331  0.31015486  1
  Al  Al28  1  0.77431991  0.76202772  0.81849506  1
  Al  Al29  1  0.88752568  0.86764705  0.55749749  1
  Al  Al30  1  0.44397096  0.76913300  0.29987609  1
  Al  Al31  1  0.11338591  0.76560679  0.81747978  1
  Al  Al32  1  0.22580631  0.87573558  0.56063373  1
  Al  Al33  1  0.88866233  0.86939014  0.06874550  1
  Al  Al34  1  0.44676415  0.75732765  0.90731855  1
  Al  Al35  1  0.55749286  0.86636464  0.56057418  1
  N  N36  1  0.21029505  0.19344135  0.35988738  1
  N  N37  1  0.11751346  0.07773262  0.13667464  1
  N  N38  1  0.89092491  0.20327587  0.87414219  1
  N  N39  1  0.78145736  0.09120029  0.61575113  1
  N  N40  1  0.55403317  0.20714221  0.36920693  1
  N  N41  1  0.45492154  0.07740529  0.11909661  1
  N  N42  1  0.22218865  0.20663458  0.87665806  1
  N  N43  1  0.11254167  0.09270905  0.62819526  1
  N  N44  1  0.91333995  0.19432279  0.36099612  1
  N  N45  1  0.77930794  0.08997408  0.12280064  1
  N  N46  1  0.55718883  0.20189221  0.86808115  1
  N  N47  1  0.44460908  0.09100413  0.62018030  1
  N  N48  1  0.22422977  0.54067198  0.36713900  1
  N  N49  1  0.10961682  0.43259771  0.11957408  1
  N  N50  1  0.88667392  0.54017642  0.87577454  1
  N  N51  1  0.77847781  0.42595583  0.61943454  1
  N  N52  1  0.55251226  0.54487145  0.36763859  1
  N  N53  1  0.46535966  0.42722429  0.11268425  1
  N  N54  1  0.22305942  0.54097677  0.87033667  1
  N  N55  1  0.11028782  0.42698271  0.61616669  1
  N  N56  1  0.87269748  0.56426555  0.35876494  1
  N  N57  1  0.75592181  0.42832771  0.11488611  1
  N  N58  1  0.56469663  0.52136755  0.90051493  1
  N  N59  1  0.44734418  0.42737545  0.62293802  1
  N  N60  1  0.20985025  0.90002743  0.36527561  1
  N  N61  1  0.12768669  0.77407613  0.11910371  1
  N  N62  1  0.88984637  0.87011850  0.87626889  1
  N  N63  1  0.77704996  0.76089427  0.62785211  1
  N  N64  1  0.58020322  0.85971922  0.36601755  1
  N  N65  1  0.42438537  0.80234518  0.10714002  1
  N  N66  1  0.21313633  0.88133581  0.90417727  1
  N  N67  1  0.11148246  0.76422786  0.62147460  1
  N  N68  1  0.87744008  0.85708654  0.36072660  1
  N  N69  1  0.74958199  0.77417264  0.13719666  1
  N  N70  1  0.56141766  0.87575349  0.90336369  1
  N  N71  1  0.44422469  0.76140377  0.62061890  1
