# generated using pymatgen
data_Al31B5N36
_symmetry_space_group_name_H-M   'P 1'
_cell_length_a   9.16275200
_cell_length_b   9.24955176
_cell_length_c   10.15508197
_cell_angle_alpha   90.89867197
_cell_angle_beta   89.72130090
_cell_angle_gamma   60.16177528
_symmetry_Int_Tables_number   1
_chemical_formula_structural   Al31B5N36
_chemical_formula_sum   'Al31 B5 N36'
_cell_volume   746.39134431
_cell_formula_units_Z   1
loop_
 _symmetry_equiv_pos_site_id
 _symmetry_equiv_pos_as_xyz
  1  'x, y, z'
loop_
 _atom_site_type_symbol
 _atom_site_label
 _atom_site_symmetry_multiplicity
 _atom_site_fract_x
 _atom_site_fract_y
 _atom_site_fract_z
 _atom_site_occupancy
  B  B0  1  0.11504448  0.09764155  0.30923175  1
  B  B1  1  0.58610535  0.48042067  0.15970819  1
  B  B2  1  0.23306084  0.89034780  0.15420692  1
  B  B3  1  0.53565800  0.88547165  0.10843915  1
  B  B4  1  0.77293289  0.75665278  0.40230240  1
  Al  Al5  1  0.22634983  0.19476313  0.08042926  1
  Al  Al6  1  0.77949376  0.09241172  0.81912878  1
  Al  Al7  1  0.89937158  0.19242525  0.56244860  1
  Al  Al8  1  0.45655985  0.07599361  0.31997889  1
  Al  Al9  1  0.56627849  0.18913938  0.07183140  1
  Al  Al10  1  0.10714473  0.10354975  0.82132922  1
  Al  Al11  1  0.22353766  0.19354286  0.55504823  1
  Al  Al12  1  0.78667541  0.08345845  0.31883460  1
  Al  Al13  1  0.89580761  0.19565390  0.07833922  1
  Al  Al14  1  0.43765440  0.10160731  0.81387542  1
  Al  Al15  1  0.56111569  0.19628982  0.56480514  1
  Al  Al16  1  0.10405127  0.43567379  0.37806330  1
  Al  Al17  1  0.23198067  0.54293959  0.13576603  1
  Al  Al18  1  0.76768038  0.43680919  0.89759094  1
  Al  Al19  1  0.89071683  0.53309425  0.63688757  1
  Al  Al20  1  0.44466706  0.42963431  0.38434843  1
  Al  Al21  1  0.10429338  0.43450049  0.90034515  1
  Al  Al22  1  0.22644951  0.52634135  0.63185441  1
  Al  Al23  1  0.78359672  0.42969470  0.38474605  1
  Al  Al24  1  0.85800096  0.56578448  0.15043110  1
  Al  Al25  1  0.44859971  0.43352447  0.89667974  1
  Al  Al26  1  0.55516777  0.53850898  0.64145294  1
  Al  Al27  1  0.10751466  0.77267057  0.31592615  1
  Al  Al28  1  0.76160872  0.76397331  0.88563469  1
  Al  Al29  1  0.89389414  0.86646312  0.56384466  1
  Al  Al30  1  0.45374430  0.76021584  0.37728843  1
  Al  Al31  1  0.10711162  0.75969337  0.82473811  1
  Al  Al32  1  0.22988046  0.86550383  0.63993638  1
  Al  Al33  1  0.89473396  0.87341769  0.06992622  1
  Al  Al34  1  0.43427529  0.77439581  0.90071410  1
  Al  Al35  1  0.55662047  0.86464198  0.62073866  1
  N  N36  1  0.21540497  0.18803652  0.36393974  1
  N  N37  1  0.11242172  0.09149719  0.14939100  1
  N  N38  1  0.88930250  0.20285156  0.88962251  1
  N  N39  1  0.78120466  0.08991619  0.63047005  1
  N  N40  1  0.56210730  0.19614067  0.37626918  1
  N  N41  1  0.45575216  0.07620556  0.13070729  1
  N  N42  1  0.22409881  0.20058374  0.89217454  1
  N  N43  1  0.11011083  0.09899882  0.63301494  1
  N  N44  1  0.92241237  0.18393844  0.37048686  1
  N  N45  1  0.78169810  0.09025334  0.13466785  1
  N  N46  1  0.55777894  0.19915486  0.88404624  1
  N  N47  1  0.43753955  0.10218491  0.62524135  1
  N  N48  1  0.22659421  0.53768711  0.32498458  1
  N  N49  1  0.09579373  0.44383344  0.09055847  1
  N  N50  1  0.88740607  0.53704982  0.82871428  1
  N  N51  1  0.77489343  0.42645229  0.57321003  1
  N  N52  1  0.56438169  0.52548950  0.30580201  1
  N  N53  1  0.46790200  0.43154754  0.09131631  1
  N  N54  1  0.22794665  0.52948681  0.84140645  1
  N  N55  1  0.10979099  0.42642267  0.56838016  1
  N  N56  1  0.87316051  0.56749029  0.33573840  1
  N  N57  1  0.75194441  0.43886278  0.09482854  1
  N  N58  1  0.55196548  0.54595232  0.83084395  1
  N  N59  1  0.44635722  0.42996541  0.57411694  1
  N  N60  1  0.22900026  0.89208379  0.31560900  1
  N  N61  1  0.12472096  0.77952362  0.12357679  1
  N  N62  1  0.88728419  0.87272083  0.88279669  1
  N  N63  1  0.78057164  0.74755960  0.56521688  1
  N  N64  1  0.58866471  0.85481754  0.36149930  1
  N  N65  1  0.41662802  0.81998477  0.08700006  1
  N  N66  1  0.22396281  0.87261569  0.83016490  1
  N  N67  1  0.10681166  0.75627723  0.62942661  1
  N  N68  1  0.88545712  0.86097541  0.37670243  1
  N  N69  1  0.73029317  0.78206467  0.07639907  1
  N  N70  1  0.55199351  0.86728388  0.81429185  1
  N  N71  1  0.44255685  0.75190077  0.56623567  1
