# generated using pymatgen
data_Al31B5N36
_symmetry_space_group_name_H-M   'P 1'
_cell_length_a   9.13850811
_cell_length_b   9.16898076
_cell_length_c   10.28130252
_cell_angle_alpha   91.44924093
_cell_angle_beta   90.42143997
_cell_angle_gamma   60.21329699
_symmetry_Int_Tables_number   1
_chemical_formula_structural   Al31B5N36
_chemical_formula_sum   'Al31 B5 N36'
_cell_volume   747.40809149
_cell_formula_units_Z   1
loop_
 _symmetry_equiv_pos_site_id
 _symmetry_equiv_pos_as_xyz
  1  'x, y, z'
loop_
 _atom_site_type_symbol
 _atom_site_label
 _atom_site_symmetry_multiplicity
 _atom_site_fract_x
 _atom_site_fract_y
 _atom_site_fract_z
 _atom_site_occupancy
  B  B0  1  0.11777458  0.08495665  0.31331256  1
  B  B1  1  0.58419978  0.48016022  0.15967295  1
  B  B2  1  0.22962443  0.88715779  0.12247870  1
  B  B3  1  0.53579346  0.88607206  0.09910757  1
  B  B4  1  0.77281745  0.76391929  0.35773381  1
  Al  Al5  1  0.22459669  0.19631246  0.07923263  1
  Al  Al6  1  0.78118438  0.09099895  0.81889421  1
  Al  Al7  1  0.89970080  0.19120764  0.55971513  1
  Al  Al8  1  0.45311581  0.07859195  0.31897505  1
  Al  Al9  1  0.56249946  0.19213580  0.07147768  1
  Al  Al10  1  0.10739904  0.10405285  0.81894994  1
  Al  Al11  1  0.22448531  0.19411430  0.55558363  1
  Al  Al12  1  0.78519770  0.08139084  0.31792426  1
  Al  Al13  1  0.89712124  0.18929978  0.07879414  1
  Al  Al14  1  0.43608596  0.10467945  0.81531957  1
  Al  Al15  1  0.55927818  0.19860505  0.56571807  1
  Al  Al16  1  0.10438979  0.43718805  0.38101130  1
  Al  Al17  1  0.22883552  0.55603599  0.14372982  1
  Al  Al18  1  0.76947868  0.43310503  0.90139315  1
  Al  Al19  1  0.89810714  0.52066649  0.64133121  1
  Al  Al20  1  0.44393001  0.43116194  0.38802636  1
  Al  Al21  1  0.10670292  0.43597726  0.89939586  1
  Al  Al22  1  0.22210787  0.53750025  0.63997758  1
  Al  Al23  1  0.78238102  0.43066361  0.38168191  1
  Al  Al24  1  0.85957269  0.56343747  0.14264475  1
  Al  Al25  1  0.44737192  0.43486547  0.89511902  1
  Al  Al26  1  0.55819181  0.53729984  0.64104165  1
  Al  Al27  1  0.11610830  0.76547085  0.38783329  1
  Al  Al28  1  0.77640536  0.76000396  0.82873260  1
  Al  Al29  1  0.88240936  0.86608652  0.56987217  1
  Al  Al30  1  0.44873131  0.76219415  0.38130474  1
  Al  Al31  1  0.12300451  0.76315114  0.89106069  1
  Al  Al32  1  0.22730000  0.86529752  0.63501217  1
  Al  Al33  1  0.87578488  0.87287519  0.06646335  1
  Al  Al34  1  0.43971785  0.77206217  0.89368643  1
  Al  Al35  1  0.55599437  0.86567463  0.62836125  1
  N  N36  1  0.21475510  0.18627752  0.36575684  1
  N  N37  1  0.11660258  0.08348644  0.14753147  1
  N  N38  1  0.89319028  0.19721405  0.89263059  1
  N  N39  1  0.78048925  0.09197973  0.63133747  1
  N  N40  1  0.56136988  0.19653166  0.37854504  1
  N  N41  1  0.45344014  0.07750877  0.13154570  1
  N  N42  1  0.22479532  0.20116437  0.89343162  1
  N  N43  1  0.10853964  0.10334667  0.63427254  1
  N  N44  1  0.92147106  0.18127667  0.36960272  1
  N  N45  1  0.77893651  0.08832847  0.13649358  1
  N  N46  1  0.55918401  0.19989612  0.88554495  1
  N  N47  1  0.43784677  0.10374583  0.62755927  1
  N  N48  1  0.22507005  0.54149144  0.32486209  1
  N  N49  1  0.09749568  0.45118166  0.08690602  1
  N  N50  1  0.89355618  0.52191295  0.83049472  1
  N  N51  1  0.77494606  0.42733326  0.56737632  1
  N  N52  1  0.56262503  0.52600862  0.30473740  1
  N  N53  1  0.46284351  0.43605870  0.09030446  1
  N  N54  1  0.22519452  0.53587047  0.83042653  1
  N  N55  1  0.11158212  0.42946240  0.56795700  1
  N  N56  1  0.87296536  0.56983422  0.33013648  1
  N  N57  1  0.75170760  0.43470522  0.09578929  1
  N  N58  1  0.55606951  0.54175074  0.82882177  1
  N  N59  1  0.44282163  0.43327763  0.57559467  1
  N  N60  1  0.21802052  0.89037439  0.33625233  1
  N  N61  1  0.13619256  0.78131363  0.08143356  1
  N  N62  1  0.88980451  0.87115594  0.88259223  1
  N  N63  1  0.78823914  0.75216147  0.63625651  1
  N  N64  1  0.58974544  0.85378547  0.36554489  1
  N  N65  1  0.41303560  0.82060837  0.07682739  1
  N  N66  1  0.22603208  0.86818169  0.82020516  1
  N  N67  1  0.11522462  0.75713422  0.57450777  1
  N  N68  1  0.87411718  0.85561562  0.37642528  1
  N  N69  1  0.72523557  0.78326014  0.08398248  1
  N  N70  1  0.54562949  0.87392237  0.82025998  1
  N  N71  1  0.44676908  0.75210658  0.56868876  1
