# generated using pymatgen
data_Al31B5N36
_symmetry_space_group_name_H-M   'P 1'
_cell_length_a   9.14319746
_cell_length_b   9.18413501
_cell_length_c   10.31696635
_cell_angle_alpha   91.39932511
_cell_angle_beta   90.60730313
_cell_angle_gamma   60.25665483
_symmetry_Int_Tables_number   1
_chemical_formula_structural   Al31B5N36
_chemical_formula_sum   'Al31 B5 N36'
_cell_volume   751.97982459
_cell_formula_units_Z   1
loop_
 _symmetry_equiv_pos_site_id
 _symmetry_equiv_pos_as_xyz
  1  'x, y, z'
loop_
 _atom_site_type_symbol
 _atom_site_label
 _atom_site_symmetry_multiplicity
 _atom_site_fract_x
 _atom_site_fract_y
 _atom_site_fract_z
 _atom_site_occupancy
  B  B0  1  0.11727973  0.08429676  0.35359986  1
  B  B1  1  0.58454526  0.48077218  0.15938239  1
  B  B2  1  0.22886123  0.89023887  0.09581736  1
  B  B3  1  0.53817915  0.88229150  0.09797311  1
  B  B4  1  0.77208031  0.76431369  0.35782609  1
  Al  Al5  1  0.22750096  0.19391337  0.07107141  1
  Al  Al6  1  0.77834186  0.09128125  0.81997286  1
  Al  Al7  1  0.89454946  0.19663101  0.57609826  1
  Al  Al8  1  0.45187691  0.07767018  0.31834518  1
  Al  Al9  1  0.56274161  0.19046252  0.07222143  1
  Al  Al10  1  0.10919184  0.10126272  0.82647344  1
  Al  Al11  1  0.22304080  0.19697939  0.56128476  1
  Al  Al12  1  0.78604738  0.08130419  0.31853661  1
  Al  Al13  1  0.89627518  0.18917494  0.07652121  1
  Al  Al14  1  0.43687686  0.10555481  0.81299808  1
  Al  Al15  1  0.55816102  0.19899705  0.56391685  1
  Al  Al16  1  0.10282131  0.43910079  0.38275902  1
  Al  Al17  1  0.22993546  0.55399835  0.14342395  1
  Al  Al18  1  0.76917496  0.43379634  0.90004158  1
  Al  Al19  1  0.89754872  0.52334084  0.64297239  1
  Al  Al20  1  0.44402195  0.43157947  0.38725194  1
  Al  Al21  1  0.10656015  0.43778012  0.89802950  1
  Al  Al22  1  0.22281480  0.53791791  0.64039492  1
  Al  Al23  1  0.78341130  0.43010591  0.38401252  1
  Al  Al24  1  0.86120494  0.56160752  0.14260263  1
  Al  Al25  1  0.44766978  0.43462155  0.89607981  1
  Al  Al26  1  0.55650115  0.53858789  0.64177678  1
  Al  Al27  1  0.11452666  0.76619925  0.39013251  1
  Al  Al28  1  0.77582919  0.76146726  0.82897292  1
  Al  Al29  1  0.88216840  0.86643554  0.57039199  1
  Al  Al30  1  0.44793766  0.76333374  0.38305868  1
  Al  Al31  1  0.12319551  0.76173675  0.88955022  1
  Al  Al32  1  0.22667223  0.86665035  0.63483780  1
  Al  Al33  1  0.87818395  0.87190988  0.06632533  1
  Al  Al34  1  0.44307659  0.76957589  0.89133084  1
  Al  Al35  1  0.55592452  0.86604006  0.62797504  1
  N  N36  1  0.21212766  0.18615015  0.37016156  1
  N  N37  1  0.12317724  0.07119847  0.10148012  1
  N  N38  1  0.88708059  0.20194107  0.88527358  1
  N  N39  1  0.77727255  0.09124830  0.63276195  1
  N  N40  1  0.56048218  0.19689925  0.37723433  1
  N  N41  1  0.45343645  0.07484286  0.13144037  1
  N  N42  1  0.22651869  0.20581552  0.88684462  1
  N  N43  1  0.10882264  0.10422222  0.63893291  1
  N  N44  1  0.92257380  0.18327327  0.37121950  1
  N  N45  1  0.77994671  0.08711787  0.13719108  1
  N  N46  1  0.55815008  0.20001819  0.88687535  1
  N  N47  1  0.43876846  0.10343880  0.62609409  1
  N  N48  1  0.22408295  0.54276436  0.32513431  1
  N  N49  1  0.09899014  0.44862102  0.08604670  1
  N  N50  1  0.89229065  0.52468986  0.83103151  1
  N  N51  1  0.77400263  0.42950371  0.56990265  1
  N  N52  1  0.56325398  0.52624111  0.30518320  1
  N  N53  1  0.46396452  0.43435185  0.09117686  1
  N  N54  1  0.22596212  0.53608844  0.82954185  1
  N  N55  1  0.11050567  0.43114835  0.56893287  1
  N  N56  1  0.87243246  0.57016326  0.33073149  1
  N  N57  1  0.75265082  0.43362443  0.09556936  1
  N  N58  1  0.55553400  0.54152637  0.82832153  1
  N  N59  1  0.44292802  0.43326452  0.57448772  1
  N  N60  1  0.21121892  0.90071944  0.35617214  1
  N  N61  1  0.13923244  0.77623728  0.07917526  1
  N  N62  1  0.88974801  0.87174985  0.88285131  1
  N  N63  1  0.78760585  0.75345885  0.63639570  1
  N  N64  1  0.58918946  0.85395621  0.36592100  1
  N  N65  1  0.42058588  0.81172398  0.07434845  1
  N  N66  1  0.22792054  0.86576928  0.82011313  1
  N  N67  1  0.11465774  0.75695725  0.57610279  1
  N  N68  1  0.87331695  0.85618933  0.37737721  1
  N  N69  1  0.72778777  0.78195315  0.08446596  1
  N  N70  1  0.54546056  0.87509396  0.81902289  1
  N  N71  1  0.44700698  0.75208766  0.56966544  1
