# generated using pymatgen
data_Al31B5N36
_symmetry_space_group_name_H-M   'P 1'
_cell_length_a   9.19723553
_cell_length_b   9.30627804
_cell_length_c   9.90046271
_cell_angle_alpha   90.50872789
_cell_angle_beta   90.03237868
_cell_angle_gamma   60.06484296
_symmetry_Int_Tables_number   1
_chemical_formula_structural   Al31B5N36
_chemical_formula_sum   'Al31 B5 N36'
_cell_volume   734.31333170
_cell_formula_units_Z   1
loop_
 _symmetry_equiv_pos_site_id
 _symmetry_equiv_pos_as_xyz
  1  'x, y, z'
loop_
 _atom_site_type_symbol
 _atom_site_label
 _atom_site_symmetry_multiplicity
 _atom_site_fract_x
 _atom_site_fract_y
 _atom_site_fract_z
 _atom_site_occupancy
  B  B0  1  0.11018306  0.09252622  0.40168034  1
  B  B1  1  0.58571123  0.47842062  0.16933970  1
  B  B2  1  0.23994086  0.90761724  0.16875789  1
  B  B3  1  0.55563084  0.87098032  0.16191710  1
  B  B4  1  0.77755240  0.75841416  0.39930526  1
  Al  Al5  1  0.23377081  0.19757585  0.09277370  1
  Al  Al6  1  0.77554764  0.09303915  0.83082713  1
  Al  Al7  1  0.89502494  0.20636421  0.64273533  1
  Al  Al8  1  0.44559516  0.08811292  0.33263033  1
  Al  Al9  1  0.56885290  0.18951225  0.08586451  1
  Al  Al10  1  0.11232868  0.08467905  0.90456513  1
  Al  Al11  1  0.22307481  0.20078367  0.57398072  1
  Al  Al12  1  0.78033465  0.08573573  0.34570586  1
  Al  Al13  1  0.90410050  0.19653309  0.16034297  1
  Al  Al14  1  0.43889898  0.09920043  0.82924703  1
  Al  Al15  1  0.55656898  0.20037921  0.58149225  1
  Al  Al16  1  0.10306167  0.43777703  0.39341632  1
  Al  Al17  1  0.22784887  0.54614710  0.15223812  1
  Al  Al18  1  0.77379559  0.42916094  0.90565880  1
  Al  Al19  1  0.88571507  0.54245943  0.64788909  1
  Al  Al20  1  0.44357948  0.43128396  0.39948722  1
  Al  Al21  1  0.10586353  0.43549606  0.90457649  1
  Al  Al22  1  0.22339701  0.53803459  0.65240214  1
  Al  Al23  1  0.78522104  0.42641026  0.40108469  1
  Al  Al24  1  0.86898512  0.55251590  0.15745807  1
  Al  Al25  1  0.44720280  0.43560969  0.90544103  1
  Al  Al26  1  0.55328617  0.54386958  0.65359902  1
  Al  Al27  1  0.10901761  0.76675425  0.39321074  1
  Al  Al28  1  0.76657361  0.76669380  0.90355940  1
  Al  Al29  1  0.89102334  0.86126201  0.63892174  1
  Al  Al30  1  0.45083128  0.75830737  0.37558690  1
  Al  Al31  1  0.11110315  0.76371001  0.90656476  1
  Al  Al32  1  0.22572573  0.86785563  0.64366820  1
  Al  Al33  1  0.88842137  0.85900689  0.15303350  1
  Al  Al34  1  0.43999708  0.77265953  0.92006477  1
  Al  Al35  1  0.55598909  0.86347703  0.63864530  1
  N  N36  1  0.21165780  0.19509763  0.37711363  1
  N  N37  1  0.12315147  0.07271173  0.09931824  1
  N  N38  1  0.89356350  0.20885939  0.84157397  1
  N  N39  1  0.77671066  0.09252849  0.63288090  1
  N  N40  1  0.55492113  0.20014983  0.39065568  1
  N  N41  1  0.45873694  0.07792690  0.14301885  1
  N  N42  1  0.22339775  0.20512117  0.89356127  1
  N  N43  1  0.11043096  0.08145941  0.56796778  1
  N  N44  1  0.91803593  0.19398384  0.35366032  1
  N  N45  1  0.78310375  0.08914672  0.14733695  1
  N  N46  1  0.55707303  0.20199624  0.89350447  1
  N  N47  1  0.43902935  0.09789649  0.63593843  1
  N  N48  1  0.22492179  0.54066772  0.34069741  1
  N  N49  1  0.10301364  0.43616567  0.10131207  1
  N  N50  1  0.88398683  0.54229211  0.84339084  1
  N  N51  1  0.77625880  0.42828373  0.59048972  1
  N  N52  1  0.56650948  0.52189541  0.31898707  1
  N  N53  1  0.46523595  0.43330554  0.10322746  1
  N  N54  1  0.22502939  0.53815045  0.84559087  1
  N  N55  1  0.10862275  0.43137178  0.58977086  1
  N  N56  1  0.87361487  0.56385422  0.34767727  1
  N  N57  1  0.75850733  0.42713963  0.10450826  1
  N  N58  1  0.55228915  0.54908186  0.84635095  1
  N  N59  1  0.44502102  0.43248268  0.59299003  1
  N  N60  1  0.21247427  0.90157533  0.32732442  1
  N  N61  1  0.11233098  0.76377902  0.09559982  1
  N  N62  1  0.89051766  0.86175115  0.83847386  1
  N  N63  1  0.77421126  0.75942354  0.56584648  1
  N  N64  1  0.58541274  0.85218679  0.33284431  1
  N  N65  1  0.42327637  0.81365008  0.11435061  1
  N  N66  1  0.22418629  0.87035524  0.83619252  1
  N  N67  1  0.11468919  0.75706398  0.58511110  1
  N  N68  1  0.87941616  0.85065100  0.34964872  1
  N  N69  1  0.74214242  0.77497130  0.09479852  1
  N  N70  1  0.55377907  0.86667778  0.83232480  1
  N  N71  1  0.44541787  0.75503023  0.57186467  1
