# generated using pymatgen
data_Al31B5N36
_symmetry_space_group_name_H-M   'P 1'
_cell_length_a   9.16094940
_cell_length_b   9.24125067
_cell_length_c   9.76849242
_cell_angle_alpha   90.22909939
_cell_angle_beta   90.01660784
_cell_angle_gamma   60.22560612
_symmetry_Int_Tables_number   1
_chemical_formula_structural   Al31B5N36
_chemical_formula_sum   'Al31 B5 N36'
_cell_volume   717.80740432
_cell_formula_units_Z   1
loop_
 _symmetry_equiv_pos_site_id
 _symmetry_equiv_pos_as_xyz
  1  'x, y, z'
loop_
 _atom_site_type_symbol
 _atom_site_label
 _atom_site_symmetry_multiplicity
 _atom_site_fract_x
 _atom_site_fract_y
 _atom_site_fract_z
 _atom_site_occupancy
  B  B0  1  0.11082710  0.10193076  0.38268160  1
  B  B1  1  0.58149062  0.49293948  0.14971370  1
  B  B2  1  0.22687660  0.90143272  0.14422250  1
  B  B3  1  0.55045281  0.88238576  0.14208949  1
  B  B4  1  0.77654613  0.76845149  0.38059830  1
  Al  Al5  1  0.22231697  0.20452757  0.13827624  1
  Al  Al6  1  0.77985952  0.09796609  0.88247059  1
  Al  Al7  1  0.89212882  0.21008266  0.62715110  1
  Al  Al8  1  0.44541930  0.09250356  0.37810025  1
  Al  Al9  1  0.56003744  0.20516292  0.13498894  1
  Al  Al10  1  0.11426433  0.09544048  0.88470682  1
  Al  Al11  1  0.22037160  0.21018126  0.62642980  1
  Al  Al12  1  0.78143751  0.09299677  0.38501160  1
  Al  Al13  1  0.89772981  0.20012615  0.13968932  1
  Al  Al14  1  0.44465303  0.09527399  0.88662705  1
  Al  Al15  1  0.55369218  0.21122160  0.63448376  1
  Al  Al16  1  0.10486032  0.43811655  0.38242905  1
  Al  Al17  1  0.22783009  0.55315785  0.13385659  1
  Al  Al18  1  0.77230963  0.43571107  0.88610082  1
  Al  Al19  1  0.88376132  0.55039880  0.62799041  1
  Al  Al20  1  0.44531333  0.43158884  0.38321077  1
  Al  Al21  1  0.10874260  0.43456227  0.88420388  1
  Al  Al22  1  0.22144302  0.54756635  0.63465004  1
  Al  Al23  1  0.78262441  0.43376783  0.38139113  1
  Al  Al24  1  0.86947577  0.55871685  0.13858571  1
  Al  Al25  1  0.44848331  0.43684247  0.88691342  1
  Al  Al26  1  0.55214048  0.55121934  0.63310648  1
  Al  Al27  1  0.10764123  0.77304730  0.37512669  1
  Al  Al28  1  0.76806061  0.77096827  0.88469940  1
  Al  Al29  1  0.88746885  0.87501324  0.62700638  1
  Al  Al30  1  0.44723339  0.76732831  0.35199978  1
  Al  Al31  1  0.11307530  0.77201603  0.88782494  1
  Al  Al32  1  0.22536580  0.87781479  0.62247342  1
  Al  Al33  1  0.88414632  0.87469288  0.13562031  1
  Al  Al34  1  0.43985689  0.77519496  0.90117322  1
  Al  Al35  1  0.55308370  0.87545745  0.62222595  1
  N  N36  1  0.20671685  0.20305322  0.33187344  1
  N  N37  1  0.12023421  0.08251781  0.07785133  1
  N  N38  1  0.89028880  0.21272711  0.82395419  1
  N  N39  1  0.77754904  0.09900164  0.57670444  1
  N  N40  1  0.55630431  0.20992703  0.32611029  1
  N  N41  1  0.45310171  0.08383500  0.08492898  1
  N  N42  1  0.22057816  0.21163046  0.82350854  1
  N  N43  1  0.11264650  0.09727333  0.55008563  1
  N  N44  1  0.91303732  0.19875680  0.33289522  1
  N  N45  1  0.78190156  0.09565936  0.07668009  1
  N  N46  1  0.55315639  0.21309204  0.82972619  1
  N  N47  1  0.44434021  0.09907007  0.57055395  1
  N  N48  1  0.22341341  0.54535426  0.32459756  1
  N  N49  1  0.10618981  0.43660821  0.08013817  1
  N  N50  1  0.88407623  0.54825544  0.82530323  1
  N  N51  1  0.77546717  0.43390816  0.57276939  1
  N  N52  1  0.56285431  0.53138910  0.30183517  1
  N  N53  1  0.46441543  0.43855736  0.08358832  1
  N  N54  1  0.22290654  0.54668614  0.83112730  1
  N  N55  1  0.10966128  0.43535849  0.57574189  1
  N  N56  1  0.87384836  0.57207940  0.33100346  1
  N  N57  1  0.75649995  0.43551675  0.08654316  1
  N  N58  1  0.55089966  0.55496629  0.82717860  1
  N  N59  1  0.44563449  0.43366699  0.57561366  1
  N  N60  1  0.20747035  0.90770695  0.31067903  1
  N  N61  1  0.12123405  0.78085952  0.08387892  1
  N  N62  1  0.88843136  0.87429656  0.82366667  1
  N  N63  1  0.77369593  0.76873208  0.54934693  1
  N  N64  1  0.57853551  0.86886555  0.31034472  1
  N  N65  1  0.42274390  0.81218669  0.09679965  1
  N  N66  1  0.22432529  0.87884687  0.81715100  1
  N  N67  1  0.11144449  0.76690878  0.56904686  1
  N  N68  1  0.87565904  0.86492659  0.32937077  1
  N  N69  1  0.74389697  0.78150381  0.07689877  1
  N  N70  1  0.55134064  0.87810965  0.81631717  1
  N  N71  1  0.44537131  0.76284829  0.55253453  1
