# generated using pymatgen
data_Al31B5N36
_symmetry_space_group_name_H-M   'P 1'
_cell_length_a   9.13503597
_cell_length_b   9.21478092
_cell_length_c   10.00453105
_cell_angle_alpha   89.83343495
_cell_angle_beta   90.15468347
_cell_angle_gamma   60.39405243
_symmetry_Int_Tables_number   1
_chemical_formula_structural   Al31B5N36
_chemical_formula_sum   'Al31 B5 N36'
_cell_volume   732.19490720
_cell_formula_units_Z   1
loop_
 _symmetry_equiv_pos_site_id
 _symmetry_equiv_pos_as_xyz
  1  'x, y, z'
loop_
 _atom_site_type_symbol
 _atom_site_label
 _atom_site_symmetry_multiplicity
 _atom_site_fract_x
 _atom_site_fract_y
 _atom_site_fract_z
 _atom_site_occupancy
  B  B0  1  0.11234182  0.08947134  0.30534027  1
  B  B1  1  0.58687512  0.47541430  0.04932681  1
  B  B2  1  0.21868679  0.89007339  0.07084113  1
  B  B3  1  0.54212824  0.88200395  0.10592892  1
  B  B4  1  0.77481085  0.76495698  0.35354545  1
  Al  Al5  1  0.22246088  0.20010976  0.06982692  1
  Al  Al6  1  0.78075843  0.09106619  0.80848040  1
  Al  Al7  1  0.89574787  0.20358072  0.55676094  1
  Al  Al8  1  0.45183584  0.08432084  0.31572157  1
  Al  Al9  1  0.56157885  0.19209581  0.05928258  1
  Al  Al10  1  0.11612717  0.09035102  0.81897575  1
  Al  Al11  1  0.21981509  0.20342078  0.55414994  1
  Al  Al12  1  0.78245281  0.08703635  0.31181355  1
  Al  Al13  1  0.89468443  0.19388646  0.06441731  1
  Al  Al14  1  0.43921538  0.09563829  0.80919042  1
  Al  Al15  1  0.55549913  0.20685549  0.55903476  1
  Al  Al16  1  0.10571377  0.43345496  0.30994135  1
  Al  Al17  1  0.22682997  0.54791676  0.05916357  1
  Al  Al18  1  0.78048416  0.42358924  0.81391993  1
  Al  Al19  1  0.88685465  0.54250105  0.56168441  1
  Al  Al20  1  0.45007290  0.42768026  0.30383463  1
  Al  Al21  1  0.11200664  0.42659015  0.81090929  1
  Al  Al22  1  0.22507077  0.54105668  0.56159441  1
  Al  Al23  1  0.77749937  0.43088644  0.30464822  1
  Al  Al24  1  0.86696360  0.55166737  0.05846638  1
  Al  Al25  1  0.44625142  0.42544007  0.81528455  1
  Al  Al26  1  0.55823195  0.53387636  0.55640448  1
  Al  Al27  1  0.11119879  0.76712669  0.30582089  1
  Al  Al28  1  0.77770346  0.75907225  0.81935453  1
  Al  Al29  1  0.89005377  0.86839810  0.56291886  1
  Al  Al30  1  0.45010310  0.76791331  0.36089934  1
  Al  Al31  1  0.11517032  0.76545578  0.81824876  1
  Al  Al32  1  0.21392913  0.88192878  0.55590500  1
  Al  Al33  1  0.88176563  0.87069748  0.06103569  1
  Al  Al34  1  0.45126748  0.76267127  0.91344966  1
  Al  Al35  1  0.55278986  0.86677706  0.61808671  1
  N  N36  1  0.21047571  0.19414326  0.35954042  1
  N  N37  1  0.11646457  0.07907460  0.13659551  1
  N  N38  1  0.89103263  0.20205182  0.87484650  1
  N  N39  1  0.78106490  0.09313911  0.61622815  1
  N  N40  1  0.55605269  0.20796115  0.36891477  1
  N  N41  1  0.45372054  0.07617780  0.12323595  1
  N  N42  1  0.22199753  0.20724628  0.87935774  1
  N  N43  1  0.11315642  0.09380569  0.62964438  1
  N  N44  1  0.91359540  0.19617031  0.36079755  1
  N  N45  1  0.77977029  0.08799666  0.12451476  1
  N  N46  1  0.55751533  0.20024077  0.87086355  1
  N  N47  1  0.43959335  0.10180124  0.61655672  1
  N  N48  1  0.22655098  0.54091202  0.36811132  1
  N  N49  1  0.10427030  0.43630563  0.12069659  1
  N  N50  1  0.89058169  0.53491614  0.87119616  1
  N  N51  1  0.77887753  0.42523654  0.62219172  1
  N  N52  1  0.56127069  0.53212601  0.36695206  1
  N  N53  1  0.46424126  0.42669615  0.11113264  1
  N  N54  1  0.22318992  0.54038161  0.87089276  1
  N  N55  1  0.11304100  0.42568252  0.61670917  1
  N  N56  1  0.87368323  0.56750045  0.36549598  1
  N  N57  1  0.75622119  0.42789298  0.11334429  1
  N  N58  1  0.56458997  0.52277526  0.90138517  1
  N  N59  1  0.44809474  0.42692052  0.62617733  1
  N  N60  1  0.20184741  0.90472858  0.36363684  1
  N  N61  1  0.12400136  0.77417557  0.11797755  1
  N  N62  1  0.89055888  0.87210516  0.87192989  1
  N  N63  1  0.78729947  0.75543663  0.62743388  1
  N  N64  1  0.59203503  0.86025710  0.36233324  1
  N  N65  1  0.42483990  0.80885074  0.10020869  1
  N  N66  1  0.21470088  0.88014314  0.90450957  1
  N  N67  1  0.11430802  0.76315190  0.62451170  1
  N  N68  1  0.88074193  0.85524051  0.36769544  1
  N  N69  1  0.73067021  0.78225175  0.08754007  1
  N  N70  1  0.54434926  0.86527598  0.81664721  1
  N  N71  1  0.44135836  0.76027989  0.56434176  1
