# generated using pymatgen
data_Al31B5N36
_symmetry_space_group_name_H-M   'P 1'
_cell_length_a   9.21406293
_cell_length_b   9.31116683
_cell_length_c   9.72376493
_cell_angle_alpha   90.10409591
_cell_angle_beta   89.74137839
_cell_angle_gamma   59.98038030
_symmetry_Int_Tables_number   1
_chemical_formula_structural   Al31B5N36
_chemical_formula_sum   'Al31 B5 N36'
_cell_volume   722.31267584
_cell_formula_units_Z   1
loop_
 _symmetry_equiv_pos_site_id
 _symmetry_equiv_pos_as_xyz
  1  'x, y, z'
loop_
 _atom_site_type_symbol
 _atom_site_label
 _atom_site_symmetry_multiplicity
 _atom_site_fract_x
 _atom_site_fract_y
 _atom_site_fract_z
 _atom_site_occupancy
  B  B0  1  0.11191382  0.09759969  0.40112454  1
  B  B1  1  0.58594997  0.47815533  0.16703102  1
  B  B2  1  0.24626636  0.91549773  0.17043132  1
  B  B3  1  0.55530378  0.87682041  0.15971825  1
  B  B4  1  0.77864009  0.76085701  0.39810637  1
  Al  Al5  1  0.22543069  0.20021752  0.15511584  1
  Al  Al6  1  0.78111545  0.08940851  0.89738240  1
  Al  Al7  1  0.89345406  0.20275803  0.64442381  1
  Al  Al8  1  0.44860910  0.08604934  0.39175905  1
  Al  Al9  1  0.56318860  0.19773254  0.15110216  1
  Al  Al10  1  0.11691834  0.08661461  0.90030324  1
  Al  Al11  1  0.22087796  0.20412192  0.63830905  1
  Al  Al12  1  0.78520591  0.08513276  0.39991460  1
  Al  Al13  1  0.90130288  0.18951704  0.15546834  1
  Al  Al14  1  0.44538060  0.09002243  0.89375443  1
  Al  Al15  1  0.55599885  0.20531973  0.64552702  1
  Al  Al16  1  0.10511108  0.43307399  0.39816487  1
  Al  Al17  1  0.22440783  0.54071053  0.14772903  1
  Al  Al18  1  0.77283259  0.42807003  0.90282052  1
  Al  Al19  1  0.88469252  0.54328138  0.64537017  1
  Al  Al20  1  0.44631637  0.42565143  0.39783464  1
  Al  Al21  1  0.10970200  0.42629008  0.89859922  1
  Al  Al22  1  0.22250333  0.54120521  0.64811955  1
  Al  Al23  1  0.78540940  0.42588023  0.39771657  1
  Al  Al24  1  0.87016672  0.55077873  0.15327078  1
  Al  Al25  1  0.44880049  0.42997517  0.90178307  1
  Al  Al26  1  0.55321931  0.54449903  0.65033977  1
  Al  Al27  1  0.10998699  0.76598455  0.38416458  1
  Al  Al28  1  0.76717623  0.76497094  0.90005474  1
  Al  Al29  1  0.88914917  0.86774069  0.64002768  1
  Al  Al30  1  0.45302214  0.75811549  0.36965859  1
  Al  Al31  1  0.10923922  0.76127762  0.90432259  1
  Al  Al32  1  0.22594384  0.86976179  0.63932425  1
  Al  Al33  1  0.88010222  0.86423790  0.15065400  1
  Al  Al34  1  0.43858403  0.77043990  0.91846678  1
  Al  Al35  1  0.55439169  0.86813282  0.63575185  1
  N  N36  1  0.20786267  0.19781809  0.35020454  1
  N  N37  1  0.12602392  0.07556144  0.09591740  1
  N  N38  1  0.89208464  0.20459515  0.84244152  1
  N  N39  1  0.78095019  0.09201893  0.59190300  1
  N  N40  1  0.55983888  0.20361395  0.34366586  1
  N  N41  1  0.45635799  0.07814291  0.10426412  1
  N  N42  1  0.22006891  0.20392246  0.83639685  1
  N  N43  1  0.11403516  0.08990051  0.56721558  1
  N  N44  1  0.91629488  0.19127810  0.34927421  1
  N  N45  1  0.78492079  0.08661639  0.09313953  1
  N  N46  1  0.55508682  0.20702035  0.84273933  1
  N  N47  1  0.44647700  0.09231589  0.58600480  1
  N  N48  1  0.22527009  0.53684188  0.33990687  1
  N  N49  1  0.10671265  0.42294810  0.09529400  1
  N  N50  1  0.88386544  0.54123477  0.84350868  1
  N  N51  1  0.77735504  0.42663183  0.59049856  1
  N  N52  1  0.56522956  0.52354635  0.31778001  1
  N  N53  1  0.46593449  0.43037702  0.10016769  1
  N  N54  1  0.22457198  0.53665066  0.84432607  1
  N  N55  1  0.10997888  0.42985772  0.59168830  1
  N  N56  1  0.87511263  0.56465781  0.34668227  1
  N  N57  1  0.75832385  0.42550605  0.10355921  1
  N  N58  1  0.55097161  0.54920710  0.84574365  1
  N  N59  1  0.44743379  0.42845176  0.59059514  1
  N  N60  1  0.21411925  0.90438899  0.32618719  1
  N  N61  1  0.10056622  0.75525970  0.09375201  1
  N  N62  1  0.88603013  0.86771602  0.83601538  1
  N  N63  1  0.77605685  0.76035883  0.56587936  1
  N  N64  1  0.58249231  0.86079257  0.32945504  1
  N  N65  1  0.42365971  0.81506054  0.11608910  1
  N  N66  1  0.22293728  0.86942601  0.83591316  1
  N  N67  1  0.11375114  0.76040978  0.58117512  1
  N  N68  1  0.87635033  0.85817174  0.34610454  1
  N  N69  1  0.74011265  0.77455319  0.09331209  1
  N  N70  1  0.55073056  0.87062181  0.83087718  1
  N  N71  1  0.44682312  0.75533190  0.56953319  1
