# generated using pymatgen
data_Al31B5N36
_symmetry_space_group_name_H-M   'P 1'
_cell_length_a   9.17481040
_cell_length_b   9.23884117
_cell_length_c   10.05197646
_cell_angle_alpha   90.89587244
_cell_angle_beta   90.15110495
_cell_angle_gamma   60.19602685
_symmetry_Int_Tables_number   1
_chemical_formula_structural   Al31B5N36
_chemical_formula_sum   'Al31 B5 N36'
_cell_volume   739.24853994
_cell_formula_units_Z   1
loop_
 _symmetry_equiv_pos_site_id
 _symmetry_equiv_pos_as_xyz
  1  'x, y, z'
loop_
 _atom_site_type_symbol
 _atom_site_label
 _atom_site_symmetry_multiplicity
 _atom_site_fract_x
 _atom_site_fract_y
 _atom_site_fract_z
 _atom_site_occupancy
  B  B0  1  0.11158689  0.08966704  0.39719765  1
  B  B1  1  0.58557420  0.47999567  0.16975728  1
  B  B2  1  0.22607006  0.89269558  0.15658334  1
  B  B3  1  0.53774357  0.88283129  0.12650353  1
  B  B4  1  0.77126135  0.75701226  0.40924051  1
  Al  Al5  1  0.22721304  0.20192078  0.09591148  1
  Al  Al6  1  0.77926464  0.08479691  0.83209479  1
  Al  Al7  1  0.89559682  0.20194925  0.64443370  1
  Al  Al8  1  0.45196955  0.07850742  0.33253044  1
  Al  Al9  1  0.56552717  0.19149788  0.08486537  1
  Al  Al10  1  0.11052755  0.08786561  0.90560901  1
  Al  Al11  1  0.22430745  0.19804643  0.56865681  1
  Al  Al12  1  0.78083660  0.08110903  0.33698006  1
  Al  Al13  1  0.90219061  0.20095321  0.16193347  1
  Al  Al14  1  0.43676979  0.10142931  0.82721162  1
  Al  Al15  1  0.55765474  0.19703100  0.58016094  1
  Al  Al16  1  0.10252244  0.43837829  0.39459098  1
  Al  Al17  1  0.23087688  0.55040926  0.15528904  1
  Al  Al18  1  0.77454911  0.42714148  0.90703797  1
  Al  Al19  1  0.88950079  0.53597952  0.65213268  1
  Al  Al20  1  0.44514713  0.42983196  0.40078427  1
  Al  Al21  1  0.10567405  0.43788261  0.90769422  1
  Al  Al22  1  0.22334364  0.53695033  0.65264526  1
  Al  Al23  1  0.78576353  0.42505654  0.40265837  1
  Al  Al24  1  0.86064867  0.56313435  0.16162005  1
  Al  Al25  1  0.44911766  0.43345522  0.90611669  1
  Al  Al26  1  0.55480680  0.54001726  0.65388401  1
  Al  Al27  1  0.11638150  0.76536931  0.39123928  1
  Al  Al28  1  0.76474240  0.76363323  0.90066065  1
  Al  Al29  1  0.88736491  0.86774996  0.57623886  1
  Al  Al30  1  0.45142076  0.76010160  0.38273523  1
  Al  Al31  1  0.12482223  0.76188163  0.90633927  1
  Al  Al32  1  0.22512040  0.86786456  0.64303553  1
  Al  Al33  1  0.88886312  0.87509387  0.09380159  1
  Al  Al34  1  0.44191493  0.77109889  0.91105479  1
  Al  Al35  1  0.55557352  0.86336934  0.63436298  1
  N  N36  1  0.21378770  0.19327130  0.37457431  1
  N  N37  1  0.11731308  0.07527975  0.09681430  1
  N  N38  1  0.89369362  0.20766574  0.83946196  1
  N  N39  1  0.77646106  0.08403198  0.64228294  1
  N  N40  1  0.55749273  0.19761322  0.39085661  1
  N  N41  1  0.45584568  0.07647912  0.14235678  1
  N  N42  1  0.22460603  0.20694373  0.89974515  1
  N  N43  1  0.10919900  0.07975476  0.56420378  1
  N  N44  1  0.91858430  0.19256822  0.35127906  1
  N  N45  1  0.77880527  0.09276035  0.14950056  1
  N  N46  1  0.55872698  0.19960926  0.89570694  1
  N  N47  1  0.43599134  0.09982011  0.63798152  1
  N  N48  1  0.22661255  0.53919714  0.33973269  1
  N  N49  1  0.09754139  0.44922436  0.10096021  1
  N  N50  1  0.88613149  0.53943185  0.84379649  1
  N  N51  1  0.77753379  0.42338494  0.58994535  1
  N  N52  1  0.56650936  0.52236822  0.31812240  1
  N  N53  1  0.46501059  0.43393167  0.10264458  1
  N  N54  1  0.22623276  0.53858503  0.84538236  1
  N  N55  1  0.10972782  0.42899306  0.58830661  1
  N  N56  1  0.87253763  0.56544554  0.34917342  1
  N  N57  1  0.75729488  0.42981678  0.10454260  1
  N  N58  1  0.55440730  0.54554425  0.84435735  1
  N  N59  1  0.44522735  0.42971211  0.59199120  1
  N  N60  1  0.21504934  0.89802609  0.32473433  1
  N  N61  1  0.13666318  0.77547802  0.10155398  1
  N  N62  1  0.89209397  0.87022584  0.89921527  1
  N  N63  1  0.77745728  0.74800251  0.57761807  1
  N  N64  1  0.58627872  0.85418927  0.36587122  1
  N  N65  1  0.42139095  0.81379238  0.10097854  1
  N  N66  1  0.22513157  0.87409483  0.83237232  1
  N  N67  1  0.11855025  0.75364356  0.58554300  1
  N  N68  1  0.87957579  0.85734750  0.38206504  1
  N  N69  1  0.73119607  0.78131373  0.09197500  1
  N  N70  1  0.55492709  0.86756152  0.82818952  1
  N  N71  1  0.44396185  0.75103587  0.57597633  1
