# generated using pymatgen
data_Al31B5N36
_symmetry_space_group_name_H-M   'P 1'
_cell_length_a   9.14060979
_cell_length_b   9.22412688
_cell_length_c   9.95658557
_cell_angle_alpha   89.89146036
_cell_angle_beta   90.27042879
_cell_angle_gamma   60.38043660
_symmetry_Int_Tables_number   1
_chemical_formula_structural   Al31B5N36
_chemical_formula_sum   'Al31 B5 N36'
_cell_volume   729.76608582
_cell_formula_units_Z   1
loop_
 _symmetry_equiv_pos_site_id
 _symmetry_equiv_pos_as_xyz
  1  'x, y, z'
loop_
 _atom_site_type_symbol
 _atom_site_label
 _atom_site_symmetry_multiplicity
 _atom_site_fract_x
 _atom_site_fract_y
 _atom_site_fract_z
 _atom_site_occupancy
  B  B0  1  0.11182863  0.08960620  0.30565083  1
  B  B1  1  0.58734148  0.47478260  0.04925031  1
  B  B2  1  0.21846097  0.88951662  0.07124317  1
  B  B3  1  0.54252799  0.88139309  0.11129441  1
  B  B4  1  0.77222036  0.76607640  0.33761805  1
  Al  Al5  1  0.22373153  0.19893865  0.07024953  1
  Al  Al6  1  0.78058633  0.09007314  0.80936054  1
  Al  Al7  1  0.89513633  0.20378797  0.55751852  1
  Al  Al8  1  0.45061868  0.08514775  0.31844520  1
  Al  Al9  1  0.56170427  0.19176169  0.05951251  1
  Al  Al10  1  0.11630205  0.09037654  0.81940195  1
  Al  Al11  1  0.21842100  0.20433923  0.55491515  1
  Al  Al12  1  0.78210695  0.08801930  0.31152222  1
  Al  Al13  1  0.89503195  0.19395515  0.06433427  1
  Al  Al14  1  0.44051651  0.09325214  0.80823684  1
  Al  Al15  1  0.55520738  0.20780153  0.55952620  1
  Al  Al16  1  0.10570836  0.43311878  0.30989134  1
  Al  Al17  1  0.22783516  0.54740379  0.05940207  1
  Al  Al18  1  0.78021956  0.42461704  0.81456781  1
  Al  Al19  1  0.88633036  0.54287566  0.55800618  1
  Al  Al20  1  0.44955194  0.42815873  0.30444183  1
  Al  Al21  1  0.11093807  0.42706870  0.81212510  1
  Al  Al22  1  0.22420639  0.54155875  0.56244620  1
  Al  Al23  1  0.77700396  0.43016044  0.30482221  1
  Al  Al24  1  0.86837447  0.55127839  0.06243646  1
  Al  Al25  1  0.44591798  0.42532451  0.81564087  1
  Al  Al26  1  0.55749128  0.53477799  0.55747745  1
  Al  Al27  1  0.11116334  0.76746040  0.30625284  1
  Al  Al28  1  0.77881512  0.75831948  0.81341337  1
  Al  Al29  1  0.88973725  0.86836047  0.55887566  1
  Al  Al30  1  0.44814303  0.76821681  0.35990269  1
  Al  Al31  1  0.11396477  0.76577910  0.81924903  1
  Al  Al32  1  0.21353096  0.88205361  0.55733433  1
  Al  Al33  1  0.88315139  0.86992819  0.06487420  1
  Al  Al34  1  0.45225253  0.76297272  0.91313156  1
  Al  Al35  1  0.55571348  0.86830547  0.60320694  1
  N  N36  1  0.20948205  0.19466777  0.35975551  1
  N  N37  1  0.11705304  0.07846282  0.13665665  1
  N  N38  1  0.89099384  0.20210529  0.87429941  1
  N  N39  1  0.78111772  0.09224763  0.61597101  1
  N  N40  1  0.55584088  0.20856727  0.36879178  1
  N  N41  1  0.45539867  0.07433789  0.12464828  1
  N  N42  1  0.22271131  0.20686011  0.87917849  1
  N  N43  1  0.11259341  0.09423906  0.62992711  1
  N  N44  1  0.91322098  0.19620823  0.36097936  1
  N  N45  1  0.77997980  0.08869257  0.12377404  1
  N  N46  1  0.55700215  0.20018331  0.87050272  1
  N  N47  1  0.43904776  0.10248222  0.61544011  1
  N  N48  1  0.22592348  0.54126063  0.36827937  1
  N  N49  1  0.10665568  0.43491492  0.12034735  1
  N  N50  1  0.88883442  0.53754305  0.87383378  1
  N  N51  1  0.77902106  0.42591637  0.62193879  1
  N  N52  1  0.56072750  0.53279338  0.36712778  1
  N  N53  1  0.46475056  0.42615543  0.11115317  1
  N  N54  1  0.22283795  0.54060217  0.87068598  1
  N  N55  1  0.11159666  0.42650150  0.61679723  1
  N  N56  1  0.87301916  0.56691190  0.36161047  1
  N  N57  1  0.75666952  0.42714359  0.11319354  1
  N  N58  1  0.56409905  0.52313195  0.90128448  1
  N  N59  1  0.44762763  0.42727887  0.62619548  1
  N  N60  1  0.20090674  0.90531247  0.36433929  1
  N  N61  1  0.12591424  0.77375380  0.11806673  1
  N  N62  1  0.88904416  0.87082157  0.87463948  1
  N  N63  1  0.78864244  0.75495983  0.62440551  1
  N  N64  1  0.58904945  0.86236506  0.37134107  1
  N  N65  1  0.42727496  0.80724867  0.10308604  1
  N  N66  1  0.21548935  0.87989378  0.90509585  1
  N  N67  1  0.11256651  0.76403499  0.62452184  1
  N  N68  1  0.87978683  0.85592582  0.36329324  1
  N  N69  1  0.73669589  0.77893768  0.11227292  1
  N  N70  1  0.54782933  0.86462480  0.81949821  1
  N  N71  1  0.43987148  0.76005013  0.56732475  1
