# generated using pymatgen
data_Al31B5N36
_symmetry_space_group_name_H-M   'P 1'
_cell_length_a   9.14330552
_cell_length_b   9.20193866
_cell_length_c   10.24317963
_cell_angle_alpha   91.34187613
_cell_angle_beta   90.81314944
_cell_angle_gamma   60.26594741
_symmetry_Int_Tables_number   1
_chemical_formula_structural   Al31B5N36
_chemical_formula_sum   'Al31 B5 N36'
_cell_volume   748.14293361
_cell_formula_units_Z   1
loop_
 _symmetry_equiv_pos_site_id
 _symmetry_equiv_pos_as_xyz
  1  'x, y, z'
loop_
 _atom_site_type_symbol
 _atom_site_label
 _atom_site_symmetry_multiplicity
 _atom_site_fract_x
 _atom_site_fract_y
 _atom_site_fract_z
 _atom_site_occupancy
  B  B0  1  0.11907450  0.09000573  0.36041981  1
  B  B1  1  0.58447843  0.48052043  0.16981623  1
  B  B2  1  0.22724886  0.88763087  0.13283431  1
  B  B3  1  0.53856948  0.88152392  0.11361282  1
  B  B4  1  0.77374636  0.76345782  0.36931864  1
  Al  Al5  1  0.22859831  0.19842831  0.08671177  1
  Al  Al6  1  0.77373081  0.08679632  0.83138521  1
  Al  Al7  1  0.89206070  0.20656407  0.65574058  1
  Al  Al8  1  0.45400504  0.07822422  0.33077979  1
  Al  Al9  1  0.56346067  0.19050322  0.08319441  1
  Al  Al10  1  0.10988662  0.08795534  0.89159690  1
  Al  Al11  1  0.22141996  0.19613807  0.57024828  1
  Al  Al12  1  0.78267460  0.07960333  0.33354574  1
  Al  Al13  1  0.90123149  0.19658846  0.15269261  1
  Al  Al14  1  0.43291592  0.10457204  0.82324741  1
  Al  Al15  1  0.55868510  0.19866672  0.57731160  1
  Al  Al16  1  0.10345750  0.44091807  0.39364207  1
  Al  Al17  1  0.23041911  0.55184083  0.15554152  1
  Al  Al18  1  0.77158631  0.42811405  0.91079988  1
  Al  Al19  1  0.89805619  0.52458851  0.65506256  1
  Al  Al20  1  0.44574043  0.43193719  0.40037678  1
  Al  Al21  1  0.10589622  0.43704629  0.90905450  1
  Al  Al22  1  0.22316440  0.53866720  0.65043826  1
  Al  Al23  1  0.78789997  0.42533127  0.40033456  1
  Al  Al24  1  0.86047492  0.56205908  0.15389797  1
  Al  Al25  1  0.44748038  0.43407005  0.90609794  1
  Al  Al26  1  0.55583556  0.54088132  0.65297293  1
  Al  Al27  1  0.11682822  0.76790584  0.39662092  1
  Al  Al28  1  0.77425932  0.76193667  0.84232096  1
  Al  Al29  1  0.88521199  0.86603560  0.58170778  1
  Al  Al30  1  0.45114537  0.76148465  0.38801993  1
  Al  Al31  1  0.12353980  0.75943405  0.90521360  1
  Al  Al32  1  0.22541641  0.87006337  0.65049067  1
  Al  Al33  1  0.87861273  0.87263310  0.08111227  1
  Al  Al34  1  0.44375252  0.76854139  0.90855494  1
  Al  Al35  1  0.55543041  0.86620931  0.63667088  1
  N  N36  1  0.21410954  0.18864314  0.37435543  1
  N  N37  1  0.11712275  0.07236678  0.08827429  1
  N  N38  1  0.88367368  0.21020149  0.84755861  1
  N  N39  1  0.77517384  0.08660659  0.64348072  1
  N  N40  1  0.56002595  0.19834626  0.38978773  1
  N  N41  1  0.45435667  0.07460174  0.14374086  1
  N  N42  1  0.22520820  0.20670809  0.89969900  1
  N  N43  1  0.11124965  0.09128807  0.61605542  1
  N  N44  1  0.92620844  0.19018906  0.34298769  1
  N  N45  1  0.77812987  0.08699235  0.14991198  1
  N  N46  1  0.55554050  0.19991107  0.89781881  1
  N  N47  1  0.43741770  0.10323881  0.63579159  1
  N  N48  1  0.22624107  0.54276189  0.33755678  1
  N  N49  1  0.09891284  0.44781894  0.09963246  1
  N  N50  1  0.89049700  0.52688921  0.84502990  1
  N  N51  1  0.77774318  0.42349644  0.58511569  1
  N  N52  1  0.56695164  0.52381561  0.31679633  1
  N  N53  1  0.46381661  0.43427613  0.10222404  1
  N  N54  1  0.22458814  0.53660977  0.84147646  1
  N  N55  1  0.11106045  0.43039114  0.58032443  1
  N  N56  1  0.87219722  0.57019043  0.34353947  1
  N  N57  1  0.75564575  0.42866016  0.10514522  1
  N  N58  1  0.55442086  0.54330223  0.84163568  1
  N  N59  1  0.44432778  0.43247635  0.58799162  1
  N  N60  1  0.21443011  0.90075843  0.33069685  1
  N  N61  1  0.13628558  0.77471001  0.09641762  1
  N  N62  1  0.88996987  0.87141202  0.89688074  1
  N  N63  1  0.78823894  0.75375909  0.64762453  1
  N  N64  1  0.59084750  0.85450879  0.37793419  1
  N  N65  1  0.42073233  0.81105794  0.09464501  1
  N  N66  1  0.22694428  0.86572745  0.83594049  1
  N  N67  1  0.11867766  0.75686936  0.58387090  1
  N  N68  1  0.87581650  0.85495399  0.38736832  1
  N  N69  1  0.72769102  0.78216187  0.09732738  1
  N  N70  1  0.54363878  0.87419249  0.83060178  1
  N  N71  1  0.44432263  0.75307583  0.57666032  1
