# generated using pymatgen
data_Al31B5N36
_symmetry_space_group_name_H-M   'P 1'
_cell_length_a   9.23380028
_cell_length_b   9.34979720
_cell_length_c   9.84277874
_cell_angle_alpha   90.33823558
_cell_angle_beta   89.91023815
_cell_angle_gamma   59.87551481
_symmetry_Int_Tables_number   1
_chemical_formula_structural   Al31B5N36
_chemical_formula_sum   'Al31 B5 N36'
_cell_volume   734.97294915
_cell_formula_units_Z   1
loop_
 _symmetry_equiv_pos_site_id
 _symmetry_equiv_pos_as_xyz
  1  'x, y, z'
loop_
 _atom_site_type_symbol
 _atom_site_label
 _atom_site_symmetry_multiplicity
 _atom_site_fract_x
 _atom_site_fract_y
 _atom_site_fract_z
 _atom_site_occupancy
  B  B0  1  0.11078121  0.09463968  0.40314966  1
  B  B1  1  0.58604301  0.47575879  0.16969136  1
  B  B2  1  0.24702283  0.91779449  0.17402618  1
  B  B3  1  0.55707270  0.87238682  0.16314424  1
  B  B4  1  0.77805570  0.75826049  0.40053360  1
  Al  Al5  1  0.23386006  0.19762482  0.09672741  1
  Al  Al6  1  0.77594624  0.09203444  0.83044740  1
  Al  Al7  1  0.89588180  0.20653763  0.64294453  1
  Al  Al8  1  0.44733602  0.08857103  0.33589881  1
  Al  Al9  1  0.56877065  0.19013150  0.08625689  1
  Al  Al10  1  0.11342394  0.08387768  0.90430497  1
  Al  Al11  1  0.22358915  0.20194315  0.57706060  1
  Al  Al12  1  0.78154357  0.08562809  0.34731853  1
  Al  Al13  1  0.90389924  0.19526664  0.15983914  1
  Al  Al14  1  0.43970672  0.09847715  0.82874290  1
  Al  Al15  1  0.55775956  0.20172505  0.58173351  1
  Al  Al16  1  0.10289133  0.43795332  0.39317395  1
  Al  Al17  1  0.22485743  0.54308898  0.15085046  1
  Al  Al18  1  0.77313688  0.42849581  0.90563233  1
  Al  Al19  1  0.88611837  0.54239799  0.64841495  1
  Al  Al20  1  0.44331037  0.43193884  0.39853852  1
  Al  Al21  1  0.10617935  0.43336684  0.90374939  1
  Al  Al22  1  0.22349450  0.53888280  0.65097498  1
  Al  Al23  1  0.78576140  0.42640138  0.40078659  1
  Al  Al24  1  0.86823540  0.55198758  0.15651517  1
  Al  Al25  1  0.44635284  0.43555643  0.90421331  1
  Al  Al26  1  0.55358345  0.54421838  0.65376567  1
  Al  Al27  1  0.10978135  0.76673742  0.38948524  1
  Al  Al28  1  0.76558118  0.76653607  0.90281431  1
  Al  Al29  1  0.89146794  0.86172359  0.63627266  1
  Al  Al30  1  0.45312452  0.75781087  0.37571126  1
  Al  Al31  1  0.10765162  0.76199470  0.90576036  1
  Al  Al32  1  0.22604369  0.86760754  0.64374001  1
  Al  Al33  1  0.88360306  0.85876898  0.15325290  1
  Al  Al34  1  0.43843911  0.77344989  0.92077979  1
  Al  Al35  1  0.55664820  0.86313572  0.63784388  1
  N  N36  1  0.21160939  0.19625288  0.37665472  1
  N  N37  1  0.12419956  0.07322724  0.10060011  1
  N  N38  1  0.89332033  0.20761048  0.84314621  1
  N  N39  1  0.77864827  0.09305737  0.63040428  1
  N  N40  1  0.55572684  0.20170259  0.38983755  1
  N  N41  1  0.45955214  0.07901187  0.14439536  1
  N  N42  1  0.22298309  0.20394889  0.88967998  1
  N  N43  1  0.11209599  0.08255002  0.56943905  1
  N  N44  1  0.91880128  0.19392090  0.35418674  1
  N  N45  1  0.78341884  0.08864114  0.14684651  1
  N  N46  1  0.55675825  0.20197983  0.89221878  1
  N  N47  1  0.44194802  0.09701272  0.63340524  1
  N  N48  1  0.22473518  0.54009614  0.34048700  1
  N  N49  1  0.10249285  0.43151108  0.10189043  1
  N  N50  1  0.88330532  0.54167361  0.84478630  1
  N  N51  1  0.77702335  0.42857774  0.59140013  1
  N  N52  1  0.56634625  0.52235431  0.31908935  1
  N  N53  1  0.46455455  0.43304933  0.10347245  1
  N  N54  1  0.22459003  0.53657569  0.84464824  1
  N  N55  1  0.10898485  0.43201825  0.59029078  1
  N  N56  1  0.87350072  0.56407485  0.34771640  1
  N  N57  1  0.75785664  0.42615875  0.10498679  1
  N  N58  1  0.55134852  0.54965350  0.84750405  1
  N  N59  1  0.44578432  0.43319672  0.59320467  1
  N  N60  1  0.21513146  0.90404075  0.32782805  1
  N  N61  1  0.10056205  0.75493678  0.09235270  1
  N  N62  1  0.88808231  0.86150167  0.83542621  1
  N  N63  1  0.77532374  0.75865360  0.56649926  1
  N  N64  1  0.58649330  0.85288440  0.33475669  1
  N  N65  1  0.42322460  0.81913615  0.11643571  1
  N  N66  1  0.22249151  0.86897886  0.83777531  1
  N  N67  1  0.11573444  0.75792784  0.58312758  1
  N  N68  1  0.87885115  0.85135332  0.35081214  1
  N  N69  1  0.73959302  0.77528516  0.09511286  1
  N  N70  1  0.55234629  0.86657801  0.83232669  1
  N  N71  1  0.44614776  0.75509349  0.57238277  1
