# generated using pymatgen
data_Al31B5N36
_symmetry_space_group_name_H-M   'P 1'
_cell_length_a   9.24208356
_cell_length_b   9.34200589
_cell_length_c   9.71521361
_cell_angle_alpha   90.12338663
_cell_angle_beta   89.67644890
_cell_angle_gamma   60.02821116
_symmetry_Int_Tables_number   1
_chemical_formula_structural   Al31B5N36
_chemical_formula_sum   'Al31 B5 N36'
_cell_volume   726.61158198
_cell_formula_units_Z   1
loop_
 _symmetry_equiv_pos_site_id
 _symmetry_equiv_pos_as_xyz
  1  'x, y, z'
loop_
 _atom_site_type_symbol
 _atom_site_label
 _atom_site_symmetry_multiplicity
 _atom_site_fract_x
 _atom_site_fract_y
 _atom_site_fract_z
 _atom_site_occupancy
  B  B0  1  0.11088416  0.09913004  0.40245850  1
  B  B1  1  0.58643053  0.47853447  0.16873973  1
  B  B2  1  0.24745698  0.91583874  0.17113607  1
  B  B3  1  0.55570128  0.87563125  0.16459241  1
  B  B4  1  0.77939486  0.75795064  0.39987112  1
  Al  Al5  1  0.22297102  0.20110226  0.15629150  1
  Al  Al6  1  0.78310367  0.08800233  0.89886762  1
  Al  Al7  1  0.89280708  0.20276794  0.64621874  1
  Al  Al8  1  0.44999978  0.08424491  0.35949220  1
  Al  Al9  1  0.56089489  0.19737417  0.12231832  1
  Al  Al10  1  0.11761998  0.08666002  0.90073693  1
  Al  Al11  1  0.21328935  0.20783901  0.63340616  1
  Al  Al12  1  0.79207196  0.08184598  0.39620385  1
  Al  Al13  1  0.90225278  0.19013813  0.15612130  1
  Al  Al14  1  0.44592797  0.09488252  0.83166800  1
  Al  Al15  1  0.55707867  0.20598899  0.59330274  1
  Al  Al16  1  0.10437415  0.43398000  0.39855585  1
  Al  Al17  1  0.22314387  0.54174887  0.14805272  1
  Al  Al18  1  0.77245134  0.42814183  0.90343868  1
  Al  Al19  1  0.88472432  0.54317366  0.64716744  1
  Al  Al20  1  0.44350343  0.43204512  0.39441432  1
  Al  Al21  1  0.10983753  0.42622249  0.89919189  1
  Al  Al22  1  0.22186292  0.54191000  0.64914878  1
  Al  Al23  1  0.78622478  0.42569544  0.39850957  1
  Al  Al24  1  0.86962853  0.55136770  0.15347742  1
  Al  Al25  1  0.44725660  0.43225498  0.90314702  1
  Al  Al26  1  0.55319511  0.54428001  0.65202530  1
  Al  Al27  1  0.10985716  0.76595928  0.38490763  1
  Al  Al28  1  0.76575136  0.76641069  0.90134693  1
  Al  Al29  1  0.88969133  0.86700318  0.64111368  1
  Al  Al30  1  0.45285716  0.75706277  0.37161599  1
  Al  Al31  1  0.10912997  0.76145399  0.90465746  1
  Al  Al32  1  0.22544714  0.86964096  0.64024192  1
  Al  Al33  1  0.88060163  0.86318624  0.15184048  1
  Al  Al34  1  0.43863325  0.77220880  0.91954766  1
  Al  Al35  1  0.55732620  0.86170679  0.63193320  1
  N  N36  1  0.20395763  0.20003378  0.35482482  1
  N  N37  1  0.12689416  0.07536980  0.09644505  1
  N  N38  1  0.89211649  0.20440355  0.84382843  1
  N  N39  1  0.78591580  0.08897081  0.59178920  1
  N  N40  1  0.56143498  0.20537884  0.36692811  1
  N  N41  1  0.45643077  0.07553210  0.14706921  1
  N  N42  1  0.21442578  0.20685275  0.83394547  1
  N  N43  1  0.11244905  0.08900796  0.56780853  1
  N  N44  1  0.91734915  0.19189108  0.34958847  1
  N  N45  1  0.78927710  0.08443705  0.09782669  1
  N  N46  1  0.55378192  0.20614540  0.87655371  1
  N  N47  1  0.44462147  0.09174886  0.60859549  1
  N  N48  1  0.22360537  0.53802710  0.33997751  1
  N  N49  1  0.10726713  0.42250374  0.09601438  1
  N  N50  1  0.88359075  0.54175584  0.84533312  1
  N  N51  1  0.77738910  0.42641596  0.59177028  1
  N  N52  1  0.56663524  0.52448459  0.31880392  1
  N  N53  1  0.46407814  0.43409567  0.10418966  1
  N  N54  1  0.22413002  0.53705050  0.84491890  1
  N  N55  1  0.10874495  0.43212649  0.59180437  1
  N  N56  1  0.87639633  0.56322169  0.34709967  1
  N  N57  1  0.75841231  0.42525915  0.10435344  1
  N  N58  1  0.55071854  0.54970292  0.84713614  1
  N  N59  1  0.44454407  0.43367781  0.59022281  1
  N  N60  1  0.21484682  0.90445746  0.32666921  1
  N  N61  1  0.09988452  0.75479741  0.09384301  1
  N  N62  1  0.88603606  0.86755639  0.83692223  1
  N  N63  1  0.77822423  0.75861135  0.56699011  1
  N  N64  1  0.58862070  0.85126889  0.33674818  1
  N  N65  1  0.42407457  0.81560071  0.11707167  1
  N  N66  1  0.22305581  0.86968889  0.83689797  1
  N  N67  1  0.11371763  0.76034709  0.58202944  1
  N  N68  1  0.87750525  0.85634483  0.34673226  1
  N  N69  1  0.73906848  0.77579048  0.09481942  1
  N  N70  1  0.55251150  0.86677526  0.82914460  1
  N  N71  1  0.44561047  0.75399203  0.57040061  1
