# generated using pymatgen
data_Al31B5N36
_symmetry_space_group_name_H-M   'P 1'
_cell_length_a   9.17703599
_cell_length_b   9.23982846
_cell_length_c   10.03496757
_cell_angle_alpha   90.82785984
_cell_angle_beta   90.16096003
_cell_angle_gamma   60.19191258
_symmetry_Int_Tables_number   1
_chemical_formula_structural   Al31B5N36
_chemical_formula_sum   'Al31 B5 N36'
_cell_volume   738.24192880
_cell_formula_units_Z   1
loop_
 _symmetry_equiv_pos_site_id
 _symmetry_equiv_pos_as_xyz
  1  'x, y, z'
loop_
 _atom_site_type_symbol
 _atom_site_label
 _atom_site_symmetry_multiplicity
 _atom_site_fract_x
 _atom_site_fract_y
 _atom_site_fract_z
 _atom_site_occupancy
  B  B0  1  0.11117655  0.08970957  0.39769261  1
  B  B1  1  0.58537224  0.48080159  0.16929398  1
  B  B2  1  0.22701341  0.89208094  0.15746004  1
  B  B3  1  0.54127151  0.87988780  0.13565759  1
  B  B4  1  0.77067632  0.75643195  0.40675887  1
  Al  Al5  1  0.22838685  0.20111958  0.09529183  1
  Al  Al6  1  0.77963261  0.08454967  0.83274229  1
  Al  Al7  1  0.89508967  0.20212258  0.64465432  1
  Al  Al8  1  0.45038730  0.08062048  0.33263359  1
  Al  Al9  1  0.56552626  0.19139219  0.08482926  1
  Al  Al10  1  0.11072666  0.08778679  0.90540991  1
  Al  Al11  1  0.22335524  0.19855903  0.56953198  1
  Al  Al12  1  0.78066262  0.08151413  0.33657645  1
  Al  Al13  1  0.90270561  0.20081872  0.16137326  1
  Al  Al14  1  0.43698800  0.10152166  0.82758444  1
  Al  Al15  1  0.55753390  0.19724751  0.58090967  1
  Al  Al16  1  0.10254417  0.43812557  0.39455252  1
  Al  Al17  1  0.23147107  0.54973779  0.15496977  1
  Al  Al18  1  0.77458849  0.42772759  0.90659897  1
  Al  Al19  1  0.88803773  0.53741400  0.65085555  1
  Al  Al20  1  0.44523719  0.42956524  0.40079069  1
  Al  Al21  1  0.10552010  0.43813898  0.90699069  1
  Al  Al22  1  0.22288042  0.53733979  0.65277652  1
  Al  Al23  1  0.78555427  0.42461192  0.40230861  1
  Al  Al24  1  0.86234795  0.56169578  0.16131923  1
  Al  Al25  1  0.44932864  0.43373531  0.90588917  1
  Al  Al26  1  0.55428618  0.54068779  0.65371863  1
  Al  Al27  1  0.11615521  0.76513293  0.39061599  1
  Al  Al28  1  0.76488149  0.76397780  0.90250393  1
  Al  Al29  1  0.88625988  0.86805283  0.57498054  1
  Al  Al30  1  0.45077136  0.75979615  0.38103332  1
  Al  Al31  1  0.12506359  0.76205246  0.90681476  1
  Al  Al32  1  0.22475858  0.86786602  0.64293383  1
  Al  Al33  1  0.88967819  0.87448287  0.09533031  1
  Al  Al34  1  0.44229296  0.77161143  0.91329325  1
  Al  Al35  1  0.55471613  0.86331871  0.63663385  1
  N  N36  1  0.21317880  0.19357699  0.37526805  1
  N  N37  1  0.11820492  0.07483316  0.09681936  1
  N  N38  1  0.89356387  0.20793004  0.83968855  1
  N  N39  1  0.77650863  0.08359427  0.64246178  1
  N  N40  1  0.55778959  0.19731722  0.39150596  1
  N  N41  1  0.45598367  0.07718585  0.14306989  1
  N  N42  1  0.22438230  0.20717242  0.89875523  1
  N  N43  1  0.10859179  0.08005500  0.56471182  1
  N  N44  1  0.91849707  0.19244134  0.35124747  1
  N  N45  1  0.77906708  0.09302722  0.14898611  1
  N  N46  1  0.55871262  0.19993311  0.89525066  1
  N  N47  1  0.43588383  0.09939673  0.63759485  1
  N  N48  1  0.22670470  0.53878692  0.33976556  1
  N  N49  1  0.09840815  0.44834324  0.10060733  1
  N  N50  1  0.88567856  0.54063857  0.84295639  1
  N  N51  1  0.77692990  0.42361808  0.58984564  1
  N  N52  1  0.56648201  0.52200721  0.31817961  1
  N  N53  1  0.46532226  0.43387951  0.10240550  1
  N  N54  1  0.22628450  0.53893513  0.84551918  1
  N  N55  1  0.10892496  0.42971636  0.58860023  1
  N  N56  1  0.87282491  0.56458393  0.34893838  1
  N  N57  1  0.75763333  0.42992249  0.10428716  1
  N  N58  1  0.55420536  0.54646110  0.84443438  1
  N  N59  1  0.44483190  0.43003451  0.59233765  1
  N  N60  1  0.21430653  0.89829043  0.32533012  1
  N  N61  1  0.13728949  0.77514128  0.10219099  1
  N  N62  1  0.89248513  0.87011812  0.89989996  1
  N  N63  1  0.77404691  0.74961329  0.57374702  1
  N  N64  1  0.58616407  0.85281369  0.35623117  1
  N  N65  1  0.42260153  0.81244602  0.10360788  1
  N  N66  1  0.22589515  0.87387450  0.83264090  1
  N  N67  1  0.11753782  0.75403137  0.58542137  1
  N  N68  1  0.87939065  0.85709405  0.38041165  1
  N  N69  1  0.73342320  0.78019163  0.09342454  1
  N  N70  1  0.55542128  0.86760195  0.82907705  1
  N  N71  1  0.44376339  0.75200960  0.57487386  1
