# generated using pymatgen
data_Al31B5N36
_symmetry_space_group_name_H-M   'P 1'
_cell_length_a   9.11645352
_cell_length_b   9.19388621
_cell_length_c   10.19638612
_cell_angle_alpha   89.69055227
_cell_angle_beta   89.98400289
_cell_angle_gamma   60.31382230
_symmetry_Int_Tables_number   1
_chemical_formula_structural   Al31B5N36
_chemical_formula_sum   'Al31 B5 N36'
_cell_volume   742.43538019
_cell_formula_units_Z   1
loop_
 _symmetry_equiv_pos_site_id
 _symmetry_equiv_pos_as_xyz
  1  'x, y, z'
loop_
 _atom_site_type_symbol
 _atom_site_label
 _atom_site_symmetry_multiplicity
 _atom_site_fract_x
 _atom_site_fract_y
 _atom_site_fract_z
 _atom_site_occupancy
  B  B0  1  0.11196548  0.09395598  0.36027988  1
  B  B1  1  0.58705699  0.47544164  0.05581018  1
  B  B2  1  0.22523105  0.89499913  0.10943624  1
  B  B3  1  0.53958846  0.88359766  0.10726206  1
  B  B4  1  0.77292599  0.76559688  0.36118199  1
  Al  Al5  1  0.22294541  0.20060310  0.06825516  1
  Al  Al6  1  0.78032975  0.08898286  0.81368267  1
  Al  Al7  1  0.89413314  0.20354435  0.56888775  1
  Al  Al8  1  0.45067281  0.08392246  0.32085182  1
  Al  Al9  1  0.56124054  0.19225875  0.06590527  1
  Al  Al10  1  0.11333959  0.09272909  0.82766701  1
  Al  Al11  1  0.22090751  0.20389763  0.56655041  1
  Al  Al12  1  0.78285509  0.08761033  0.31761937  1
  Al  Al13  1  0.89324325  0.19313644  0.06440094  1
  Al  Al14  1  0.44148302  0.09533123  0.81522551  1
  Al  Al15  1  0.55565398  0.20606675  0.56467190  1
  Al  Al16  1  0.10352559  0.43509001  0.31524374  1
  Al  Al17  1  0.22862787  0.54936887  0.06601495  1
  Al  Al18  1  0.77830600  0.42463192  0.81973167  1
  Al  Al19  1  0.88724622  0.54189834  0.56863047  1
  Al  Al20  1  0.45002162  0.42930090  0.30981114  1
  Al  Al21  1  0.11270911  0.42487707  0.81539545  1
  Al  Al22  1  0.22508611  0.53857802  0.56352828  1
  Al  Al23  1  0.77505130  0.43488036  0.31162295  1
  Al  Al24  1  0.86593540  0.55173197  0.06292218  1
  Al  Al25  1  0.44640506  0.42456668  0.82229903  1
  Al  Al26  1  0.55914686  0.53130861  0.56421619  1
  Al  Al27  1  0.11267199  0.77143108  0.31592208  1
  Al  Al28  1  0.78053479  0.75691468  0.82585552  1
  Al  Al29  1  0.88974462  0.86795799  0.56508889  1
  Al  Al30  1  0.44258822  0.77521595  0.38851223  1
  Al  Al31  1  0.11055462  0.75401733  0.81581359  1
  Al  Al32  1  0.22935869  0.86938388  0.63465213  1
  Al  Al33  1  0.88259394  0.87203421  0.06740258  1
  Al  Al34  1  0.44267876  0.76441632  0.90965719  1
  Al  Al35  1  0.55627704  0.86586590  0.63169153  1
  N  N36  1  0.20794766  0.19542777  0.37441554  1
  N  N37  1  0.11904531  0.07496480  0.10174329  1
  N  N38  1  0.88620544  0.20289312  0.87816765  1
  N  N39  1  0.78025764  0.09116798  0.62406291  1
  N  N40  1  0.55537035  0.20845925  0.37622510  1
  N  N41  1  0.45123995  0.07791159  0.13138323  1
  N  N42  1  0.22460463  0.20701932  0.88194692  1
  N  N43  1  0.10855730  0.10219362  0.63740839  1
  N  N44  1  0.91440269  0.19712410  0.37506954  1
  N  N45  1  0.77960805  0.08887839  0.13281858  1
  N  N46  1  0.55842319  0.19905282  0.87975992  1
  N  N47  1  0.44167356  0.10062286  0.62546802  1
  N  N48  1  0.22599098  0.54099478  0.37287760  1
  N  N49  1  0.10367330  0.43712666  0.12814826  1
  N  N50  1  0.89152989  0.53271730  0.87830172  1
  N  N51  1  0.77746124  0.42667571  0.63093150  1
  N  N52  1  0.55821306  0.53572599  0.37699657  1
  N  N53  1  0.46499927  0.42695157  0.11907534  1
  N  N54  1  0.22352274  0.53604305  0.88076622  1
  N  N55  1  0.11306730  0.42617989  0.62435432  1
  N  N56  1  0.87300124  0.56812911  0.37428314  1
  N  N57  1  0.75637670  0.42753743  0.12120504  1
  N  N58  1  0.56469721  0.52116965  0.91002101  1
  N  N59  1  0.44704222  0.42640067  0.63412694  1
  N  N60  1  0.20291355  0.91078168  0.36537529  1
  N  N61  1  0.13183634  0.77781573  0.12565066  1
  N  N62  1  0.89237943  0.87025935  0.88114464  1
  N  N63  1  0.78934416  0.75451052  0.63511657  1
  N  N64  1  0.58991356  0.86005793  0.36736001  1
  N  N65  1  0.41771250  0.81423632  0.09252378  1
  N  N66  1  0.23468977  0.85983280  0.82833301  1
  N  N67  1  0.10929539  0.75533982  0.62563568  1
  N  N68  1  0.87935904  0.85650929  0.37308216  1
  N  N69  1  0.72831855  0.78362033  0.09160092  1
  N  N70  1  0.54882085  0.86446120  0.82422008  1
  N  N71  1  0.44486386  0.75988548  0.57525063  1
