# generated using pymatgen
data_Al31B5N36
_symmetry_space_group_name_H-M   'P 1'
_cell_length_a   9.18951795
_cell_length_b   9.27966632
_cell_length_c   9.90064309
_cell_angle_alpha   90.67496336
_cell_angle_beta   90.18463595
_cell_angle_gamma   60.18037108
_symmetry_Int_Tables_number   1
_chemical_formula_structural   Al31B5N36
_chemical_formula_sum   'Al31 B5 N36'
_cell_volume   732.44238547
_cell_formula_units_Z   1
loop_
 _symmetry_equiv_pos_site_id
 _symmetry_equiv_pos_as_xyz
  1  'x, y, z'
loop_
 _atom_site_type_symbol
 _atom_site_label
 _atom_site_symmetry_multiplicity
 _atom_site_fract_x
 _atom_site_fract_y
 _atom_site_fract_z
 _atom_site_occupancy
  B  B0  1  0.11013494  0.09089340  0.40068867  1
  B  B1  1  0.58509667  0.48139050  0.16859489  1
  B  B2  1  0.22916138  0.89323998  0.16226421  1
  B  B3  1  0.55384396  0.86908369  0.16228198  1
  B  B4  1  0.77460754  0.75674324  0.39770902  1
  Al  Al5  1  0.23251852  0.19701580  0.09396978  1
  Al  Al6  1  0.77820232  0.08879253  0.83171601  1
  Al  Al7  1  0.89438261  0.20635930  0.64343558  1
  Al  Al8  1  0.44506147  0.08797430  0.33226832  1
  Al  Al9  1  0.56828673  0.18886921  0.08454312  1
  Al  Al10  1  0.11142795  0.08592392  0.90422045  1
  Al  Al11  1  0.22183326  0.20106408  0.57393982  1
  Al  Al12  1  0.77897758  0.08748994  0.34353356  1
  Al  Al13  1  0.90427246  0.19754902  0.15956529  1
  Al  Al14  1  0.43827975  0.09969791  0.83002263  1
  Al  Al15  1  0.55479134  0.20089791  0.58295259  1
  Al  Al16  1  0.10280615  0.43773605  0.39378438  1
  Al  Al17  1  0.23299711  0.54604507  0.15319232  1
  Al  Al18  1  0.77410803  0.42890451  0.90536499  1
  Al  Al19  1  0.88505152  0.54242947  0.64903521  1
  Al  Al20  1  0.44428944  0.43070701  0.40061610  1
  Al  Al21  1  0.10557757  0.43692748  0.90498534  1
  Al  Al22  1  0.22194840  0.53937218  0.65409669  1
  Al  Al23  1  0.78483832  0.42609218  0.40117367  1
  Al  Al24  1  0.86906879  0.55277009  0.15760157  1
  Al  Al25  1  0.44869891  0.43497117  0.90496967  1
  Al  Al26  1  0.55295096  0.54413231  0.65358818  1
  Al  Al27  1  0.11226990  0.76556287  0.39131298  1
  Al  Al28  1  0.76724496  0.76712421  0.90546308  1
  Al  Al29  1  0.88836409  0.86451612  0.61469637  1
  Al  Al30  1  0.44846032  0.75914220  0.37480442  1
  Al  Al31  1  0.11562392  0.76574385  0.90879479  1
  Al  Al32  1  0.22530790  0.86841968  0.64352375  1
  Al  Al33  1  0.89110415  0.86152125  0.14825657  1
  Al  Al34  1  0.44211566  0.77170934  0.92012946  1
  Al  Al35  1  0.55425363  0.86377651  0.63985658  1
  N  N36  1  0.21138451  0.19487784  0.37691712  1
  N  N37  1  0.12171566  0.07200229  0.09767747  1
  N  N38  1  0.89314753  0.20903002  0.84036971  1
  N  N39  1  0.77556472  0.09145353  0.63418068  1
  N  N40  1  0.55511464  0.19942348  0.39206035  1
  N  N41  1  0.45787123  0.07752315  0.14285557  1
  N  N42  1  0.22292020  0.20662460  0.89452392  1
  N  N43  1  0.10901131  0.08165446  0.56775254  1
  N  N44  1  0.91782851  0.19407485  0.35309416  1
  N  N45  1  0.78184226  0.09058407  0.14779870  1
  N  N46  1  0.55797124  0.20178148  0.89238609  1
  N  N47  1  0.43730602  0.09816858  0.63663922  1
  N  N48  1  0.22613676  0.53906100  0.34072608  1
  N  N49  1  0.10295712  0.44124488  0.10113143  1
  N  N50  1  0.88395613  0.54274883  0.84358795  1
  N  N51  1  0.77554701  0.42796073  0.59035556  1
  N  N52  1  0.56641244  0.52177418  0.31932983  1
  N  N53  1  0.46665935  0.43239765  0.10257042  1
  N  N54  1  0.22511688  0.54025482  0.84793372  1
  N  N55  1  0.10756216  0.43220780  0.59032719  1
  N  N56  1  0.87346376  0.56348237  0.34743808  1
  N  N57  1  0.75901711  0.42755361  0.10413809  1
  N  N58  1  0.55314313  0.54874845  0.84564612  1
  N  N59  1  0.44348278  0.43288120  0.59419637  1
  N  N60  1  0.21037699  0.90014125  0.32814154  1
  N  N61  1  0.12952427  0.77305201  0.10399168  1
  N  N62  1  0.89313069  0.86352927  0.85664351  1
  N  N63  1  0.77050472  0.75773965  0.56429017  1
  N  N64  1  0.58442416  0.85164913  0.33234544  1
  N  N65  1  0.42510407  0.80696894  0.11344897  1
  N  N66  1  0.22643128  0.87120632  0.83537613  1
  N  N67  1  0.11548775  0.75628757  0.58390282  1
  N  N68  1  0.87973371  0.85184177  0.35352382  1
  N  N69  1  0.74325533  0.77443749  0.09671383  1
  N  N70  1  0.55508590  0.86693259  0.83288261  1
  N  N71  1  0.44428305  0.75516105  0.57172581  1
