# generated using pymatgen
data_Al31B5N36
_symmetry_space_group_name_H-M   'P 1'
_cell_length_a   9.14246739
_cell_length_b   9.22279209
_cell_length_c   10.23142186
_cell_angle_alpha   91.01900311
_cell_angle_beta   89.94524772
_cell_angle_gamma   60.15889252
_symmetry_Int_Tables_number   1
_chemical_formula_structural   Al31B5N36
_chemical_formula_sum   'Al31 B5 N36'
_cell_volume   748.15080017
_cell_formula_units_Z   1
loop_
 _symmetry_equiv_pos_site_id
 _symmetry_equiv_pos_as_xyz
  1  'x, y, z'
loop_
 _atom_site_type_symbol
 _atom_site_label
 _atom_site_symmetry_multiplicity
 _atom_site_fract_x
 _atom_site_fract_y
 _atom_site_fract_z
 _atom_site_occupancy
  B  B0  1  0.11507565  0.09873781  0.30940183  1
  B  B1  1  0.58417346  0.48158518  0.15921199  1
  B  B2  1  0.23315396  0.88992093  0.15560026  1
  B  B3  1  0.53850776  0.88348073  0.10163913  1
  B  B4  1  0.77619917  0.76458420  0.35822637  1
  Al  Al5  1  0.22658625  0.19423757  0.07889808  1
  Al  Al6  1  0.77927670  0.09203744  0.81731586  1
  Al  Al7  1  0.89956827  0.19273270  0.56077302  1
  Al  Al8  1  0.45435892  0.08021524  0.31799183  1
  Al  Al9  1  0.56623643  0.18888735  0.06993774  1
  Al  Al10  1  0.10565027  0.10324071  0.82080841  1
  Al  Al11  1  0.22436810  0.19344999  0.55594655  1
  Al  Al12  1  0.78400816  0.08560055  0.31811945  1
  Al  Al13  1  0.89635976  0.19181192  0.07822458  1
  Al  Al14  1  0.43424057  0.10412391  0.81616998  1
  Al  Al15  1  0.56212012  0.19556104  0.56555452  1
  Al  Al16  1  0.10418102  0.43912069  0.38265062  1
  Al  Al17  1  0.23268700  0.54254580  0.14061319  1
  Al  Al18  1  0.76586823  0.43450611  0.90089877  1
  Al  Al19  1  0.89415377  0.52727656  0.64456648  1
  Al  Al20  1  0.44424839  0.43208740  0.38876502  1
  Al  Al21  1  0.10531017  0.43334848  0.90018627  1
  Al  Al22  1  0.22886647  0.52312640  0.63827690  1
  Al  Al23  1  0.78311734  0.43271340  0.38286265  1
  Al  Al24  1  0.86066699  0.56340715  0.14086263  1
  Al  Al25  1  0.44590458  0.43462971  0.89477914  1
  Al  Al26  1  0.55685059  0.53930723  0.64151098  1
  Al  Al27  1  0.10748349  0.77335072  0.31762534  1
  Al  Al28  1  0.76703212  0.76257572  0.85025309  1
  Al  Al29  1  0.89043067  0.86055125  0.56878882  1
  Al  Al30  1  0.45595368  0.76043072  0.37782520  1
  Al  Al31  1  0.10493350  0.76073515  0.81812500  1
  Al  Al32  1  0.23141698  0.86568118  0.63847713  1
  Al  Al33  1  0.89135467  0.86979747  0.06549392  1
  Al  Al34  1  0.43110423  0.77443774  0.90401763  1
  Al  Al35  1  0.55631287  0.86501873  0.63296738  1
  N  N36  1  0.21495972  0.18976848  0.36542982  1
  N  N37  1  0.11268708  0.09218715  0.15089134  1
  N  N38  1  0.88893672  0.20008911  0.89123346  1
  N  N39  1  0.78301722  0.08965967  0.62870383  1
  N  N40  1  0.56101755  0.19779468  0.37775750  1
  N  N41  1  0.45610496  0.07550337  0.13035901  1
  N  N42  1  0.22216543  0.20031096  0.89309703  1
  N  N43  1  0.10976038  0.10026236  0.63335089  1
  N  N44  1  0.92227326  0.18387949  0.36994176  1
  N  N45  1  0.78131347  0.08740592  0.13550419  1
  N  N46  1  0.55743318  0.19985792  0.88383126  1
  N  N47  1  0.43792059  0.10278867  0.62735379  1
  N  N48  1  0.22717489  0.53829033  0.32681800  1
  N  N49  1  0.09971435  0.44425767  0.08795752  1
  N  N50  1  0.89041973  0.52514488  0.83419937  1
  N  N51  1  0.77564537  0.42859867  0.56965374  1
  N  N52  1  0.56338985  0.52654422  0.30540450  1
  N  N53  1  0.46548841  0.43331305  0.08976529  1
  N  N54  1  0.22729001  0.52638960  0.83053614  1
  N  N55  1  0.10952692  0.42722906  0.56918377  1
  N  N56  1  0.87392755  0.57218498  0.32970300  1
  N  N57  1  0.75149892  0.43632993  0.09573559  1
  N  N58  1  0.55127233  0.54582903  0.83038456  1
  N  N59  1  0.44742579  0.43005588  0.57579001  1
  N  N60  1  0.22954022  0.89287763  0.31698165  1
  N  N61  1  0.12232943  0.77980187  0.12701246  1
  N  N62  1  0.88893439  0.87300618  0.88191381  1
  N  N63  1  0.78549786  0.75491681  0.63468054  1
  N  N64  1  0.59387582  0.85481757  0.35973864  1
  N  N65  1  0.41634834  0.81815421  0.08871111  1
  N  N66  1  0.22298728  0.87133107  0.82819025  1
  N  N67  1  0.11058481  0.75512035  0.62323368  1
  N  N68  1  0.87996216  0.85658942  0.37668926  1
  N  N69  1  0.73042631  0.78128660  0.07386415  1
  N  N70  1  0.53876843  0.87420665  0.82372639  1
  N  N71  1  0.44593413  0.75407924  0.56526090  1
