# generated using pymatgen
data_Al31B5N36
_symmetry_space_group_name_H-M   'P 1'
_cell_length_a   9.13408401
_cell_length_b   9.24696302
_cell_length_c   10.19446628
_cell_angle_alpha   90.31506959
_cell_angle_beta   89.74890526
_cell_angle_gamma   60.16646180
_symmetry_Int_Tables_number   1
_chemical_formula_structural   Al31B5N36
_chemical_formula_sum   'Al31 B5 N36'
_cell_volume   746.90281382
_cell_formula_units_Z   1
loop_
 _symmetry_equiv_pos_site_id
 _symmetry_equiv_pos_as_xyz
  1  'x, y, z'
loop_
 _atom_site_type_symbol
 _atom_site_label
 _atom_site_symmetry_multiplicity
 _atom_site_fract_x
 _atom_site_fract_y
 _atom_site_fract_z
 _atom_site_occupancy
  B  B0  1  0.11398333  0.09879814  0.30175079  1
  B  B1  1  0.58849168  0.48400145  0.15423009  1
  B  B2  1  0.24157608  0.89642248  0.14988130  1
  B  B3  1  0.54191697  0.88511814  0.09824697  1
  B  B4  1  0.77858062  0.76460612  0.35638728  1
  Al  Al5  1  0.22522670  0.20219768  0.06623107  1
  Al  Al6  1  0.78113369  0.08878181  0.80944973  1
  Al  Al7  1  0.90173935  0.18987447  0.55217338  1
  Al  Al8  1  0.45487212  0.08095375  0.31393908  1
  Al  Al9  1  0.56222340  0.19614139  0.05903490  1
  Al  Al10  1  0.10896365  0.09782687  0.81268758  1
  Al  Al11  1  0.22071817  0.20130656  0.55286749  1
  Al  Al12  1  0.78547937  0.08308248  0.30938795  1
  Al  Al13  1  0.89856242  0.18809483  0.06959680  1
  Al  Al14  1  0.43895041  0.09697161  0.80722477  1
  Al  Al15  1  0.55801909  0.20338562  0.55893366  1
  Al  Al16  1  0.10785889  0.43238541  0.30772438  1
  Al  Al17  1  0.22905191  0.54835242  0.06101150  1
  Al  Al18  1  0.76276849  0.42783784  0.89067843  1
  Al  Al19  1  0.89291603  0.54107430  0.56243984  1
  Al  Al20  1  0.44404009  0.42187391  0.31079255  1
  Al  Al21  1  0.10780605  0.42412160  0.81349610  1
  Al  Al22  1  0.22558123  0.53516933  0.55972168  1
  Al  Al23  1  0.78388472  0.42710991  0.36935163  1
  Al  Al24  1  0.87014940  0.55675105  0.06970787  1
  Al  Al25  1  0.44150750  0.42218989  0.81114600  1
  Al  Al26  1  0.56233542  0.53932899  0.63342990  1
  Al  Al27  1  0.11222059  0.76286714  0.30409296  1
  Al  Al28  1  0.77476914  0.75598122  0.82127145  1
  Al  Al29  1  0.89014802  0.86541634  0.56217639  1
  Al  Al30  1  0.45710725  0.76020470  0.37111826  1
  Al  Al31  1  0.10800480  0.75433510  0.81240467  1
  Al  Al32  1  0.23292900  0.86329260  0.63240779  1
  Al  Al33  1  0.88343197  0.87035635  0.05909861  1
  Al  Al34  1  0.43567027  0.76962167  0.89709183  1
  Al  Al35  1  0.55503877  0.86582471  0.61695575  1
  N  N36  1  0.21131284  0.19596252  0.36148426  1
  N  N37  1  0.11661715  0.09248683  0.14139020  1
  N  N38  1  0.89160908  0.19612682  0.88121378  1
  N  N39  1  0.78236688  0.08962221  0.61980643  1
  N  N40  1  0.56012360  0.20461928  0.37192177  1
  N  N41  1  0.45456719  0.07862224  0.12391289  1
  N  N42  1  0.22065338  0.20497501  0.87941257  1
  N  N43  1  0.11224069  0.09602996  0.62407497  1
  N  N44  1  0.92318049  0.18172361  0.35946854  1
  N  N45  1  0.77976455  0.08767605  0.12593652  1
  N  N46  1  0.55633643  0.20187185  0.87283903  1
  N  N47  1  0.44014956  0.09991456  0.61618762  1
  N  N48  1  0.22509818  0.54048726  0.37160947  1
  N  N49  1  0.10804416  0.43525245  0.12266750  1
  N  N50  1  0.88830596  0.53447172  0.87937538  1
  N  N51  1  0.77604900  0.42292369  0.55845620  1
  N  N52  1  0.56684568  0.53612169  0.29804401  1
  N  N53  1  0.46284565  0.42426477  0.12064624  1
  N  N54  1  0.22155174  0.53542559  0.87507301  1
  N  N55  1  0.11371852  0.42166882  0.62147565  1
  N  N56  1  0.88015496  0.57109458  0.36677673  1
  N  N57  1  0.75229587  0.43070452  0.08704709  1
  N  N58  1  0.55215024  0.54617505  0.82277768  1
  N  N59  1  0.44525380  0.42118047  0.62220940  1
  N  N60  1  0.23016714  0.89208276  0.30756109  1
  N  N61  1  0.11659837  0.77083176  0.11922066  1
  N  N62  1  0.88726417  0.87061247  0.87251767  1
  N  N63  1  0.78870441  0.75151861  0.62995106  1
  N  N64  1  0.59446190  0.85799966  0.36481927  1
  N  N65  1  0.41848079  0.81954887  0.08223946  1
  N  N66  1  0.22528681  0.86741586  0.82173445  1
  N  N67  1  0.11035447  0.75329579  0.61963177  1
  N  N68  1  0.88193538  0.85701349  0.37011346  1
  N  N69  1  0.72904681  0.78662881  0.08713266  1
  N  N70  1  0.54307461  0.86939768  0.81336736  1
  N  N71  1  0.44571505  0.75029349  0.55731835  1
