# generated using pymatgen
data_Al31B5N36
_symmetry_space_group_name_H-M   'P 1'
_cell_length_a   9.16326086
_cell_length_b   9.23859295
_cell_length_c   10.08739097
_cell_angle_alpha   91.00645412
_cell_angle_beta   90.33808684
_cell_angle_gamma   60.23919387
_symmetry_Int_Tables_number   1
_chemical_formula_structural   Al31B5N36
_chemical_formula_sum   'Al31 B5 N36'
_cell_volume   741.20408423
_cell_formula_units_Z   1
loop_
 _symmetry_equiv_pos_site_id
 _symmetry_equiv_pos_as_xyz
  1  'x, y, z'
loop_
 _atom_site_type_symbol
 _atom_site_label
 _atom_site_symmetry_multiplicity
 _atom_site_fract_x
 _atom_site_fract_y
 _atom_site_fract_z
 _atom_site_occupancy
  B  B0  1  0.11177142  0.08982373  0.39759261  1
  B  B1  1  0.58528564  0.47935717  0.17001368  1
  B  B2  1  0.22547147  0.89205707  0.15610319  1
  B  B3  1  0.53864547  0.88216852  0.11537830  1
  B  B4  1  0.77288461  0.76337507  0.36957568  1
  Al  Al5  1  0.22762376  0.20041713  0.09564909  1
  Al  Al6  1  0.77875801  0.08555316  0.82856997  1
  Al  Al7  1  0.89604804  0.20244681  0.64296087  1
  Al  Al8  1  0.45165411  0.07955357  0.33113528  1
  Al  Al9  1  0.56640810  0.19051545  0.08414663  1
  Al  Al10  1  0.11000778  0.08728307  0.90507228  1
  Al  Al11  1  0.22557067  0.19825492  0.56796981  1
  Al  Al12  1  0.77988983  0.08184840  0.33858378  1
  Al  Al13  1  0.90242611  0.19839313  0.16251098  1
  Al  Al14  1  0.43416470  0.10364100  0.82870853  1
  Al  Al15  1  0.55735053  0.19773710  0.57997667  1
  Al  Al16  1  0.10242961  0.43978434  0.39351846  1
  Al  Al17  1  0.23079257  0.55084040  0.15566303  1
  Al  Al18  1  0.77412905  0.42415069  0.90884230  1
  Al  Al19  1  0.89448217  0.52975344  0.66018921  1
  Al  Al20  1  0.44500610  0.43074555  0.40127174  1
  Al  Al21  1  0.10701107  0.43650676  0.91087927  1
  Al  Al22  1  0.22229920  0.53850142  0.65196785  1
  Al  Al23  1  0.78508139  0.42797746  0.40200730  1
  Al  Al24  1  0.86093980  0.56171964  0.15233497  1
  Al  Al25  1  0.44835162  0.43373650  0.90591500  1
  Al  Al26  1  0.55581722  0.54067775  0.65404458  1
  Al  Al27  1  0.11640903  0.76507116  0.39229967  1
  Al  Al28  1  0.76946488  0.76339387  0.86743441  1
  Al  Al29  1  0.88506064  0.86285883  0.58155319  1
  Al  Al30  1  0.45258981  0.75971690  0.38370609  1
  Al  Al31  1  0.12394672  0.76219088  0.90617982  1
  Al  Al32  1  0.22560880  0.86843387  0.64297603  1
  Al  Al33  1  0.88352370  0.87465938  0.08643848  1
  Al  Al34  1  0.44017403  0.77001997  0.91301830  1
  Al  Al35  1  0.55660385  0.86355766  0.64245633  1
  N  N36  1  0.21424471  0.19327696  0.37418798  1
  N  N37  1  0.11701572  0.07431785  0.09655922  1
  N  N38  1  0.89350283  0.20687637  0.83770648  1
  N  N39  1  0.77746616  0.08513567  0.63831557  1
  N  N40  1  0.55633488  0.19864499  0.39074474  1
  N  N41  1  0.45711779  0.07403654  0.14166631  1
  N  N42  1  0.22360576  0.20707395  0.90131806  1
  N  N43  1  0.11016227  0.08025091  0.56362436  1
  N  N44  1  0.91832733  0.19350867  0.35159306  1
  N  N45  1  0.77918777  0.08936844  0.15191471  1
  N  N46  1  0.55918897  0.20017253  0.89556512  1
  N  N47  1  0.43650613  0.10048934  0.63902779  1
  N  N48  1  0.22654256  0.54017623  0.33960498  1
  N  N49  1  0.10026369  0.44699249  0.10282326  1
  N  N50  1  0.89001803  0.52908312  0.85133212  1
  N  N51  1  0.77865287  0.42505459  0.58863936  1
  N  N52  1  0.56625638  0.52335545  0.31817885  1
  N  N53  1  0.46472245  0.43333665  0.10295137  1
  N  N54  1  0.22490852  0.53866950  0.84471364  1
  N  N55  1  0.10951976  0.42946268  0.58605270  1
  N  N56  1  0.87090612  0.57091249  0.34408321  1
  N  N57  1  0.75705496  0.42682935  0.10521489  1
  N  N58  1  0.55435163  0.54502660  0.84424885  1
  N  N59  1  0.44502137  0.43099688  0.59161597  1
  N  N60  1  0.21466823  0.89809294  0.32517744  1
  N  N61  1  0.13519801  0.77507777  0.10124847  1
  N  N62  1  0.89183369  0.87348826  0.89801864  1
  N  N63  1  0.78569063  0.75451259  0.64696182  1
  N  N64  1  0.59029014  0.85429816  0.37161015  1
  N  N65  1  0.42118936  0.81218074  0.10201350  1
  N  N66  1  0.22389340  0.87337984  0.83191924  1
  N  N67  1  0.11837599  0.75515717  0.58311049  1
  N  N68  1  0.87554213  0.85394312  0.38432261  1
  N  N69  1  0.73020473  0.78103959  0.08830733  1
  N  N70  1  0.54231152  0.87457869  0.83627687  1
  N  N71  1  0.44604022  0.75233259  0.57611097  1
