# generated using pymatgen
data_Al31B5N36
_symmetry_space_group_name_H-M   'P 1'
_cell_length_a   9.11393773
_cell_length_b   9.21366796
_cell_length_c   10.25871452
_cell_angle_alpha   90.26889843
_cell_angle_beta   89.84826560
_cell_angle_gamma   60.41765379
_symmetry_Int_Tables_number   1
_chemical_formula_structural   Al31B5N36
_chemical_formula_sum   'Al31 B5 N36'
_cell_volume   749.13957484
_cell_formula_units_Z   1
loop_
 _symmetry_equiv_pos_site_id
 _symmetry_equiv_pos_as_xyz
  1  'x, y, z'
loop_
 _atom_site_type_symbol
 _atom_site_label
 _atom_site_symmetry_multiplicity
 _atom_site_fract_x
 _atom_site_fract_y
 _atom_site_fract_z
 _atom_site_occupancy
  B  B0  1  0.11744745  0.08701391  0.35221463  1
  B  B1  1  0.58930163  0.48431610  0.15698152  1
  B  B2  1  0.22888480  0.89185434  0.09890842  1
  B  B3  1  0.54050944  0.88249773  0.09570231  1
  B  B4  1  0.77672621  0.76492759  0.35615678  1
  Al  Al5  1  0.22511836  0.19842065  0.06183091  1
  Al  Al6  1  0.78025292  0.08871214  0.80914299  1
  Al  Al7  1  0.89727549  0.19423445  0.55970009  1
  Al  Al8  1  0.45283035  0.07892410  0.31403445  1
  Al  Al9  1  0.56161807  0.19475607  0.06057287  1
  Al  Al10  1  0.11106245  0.09631523  0.81849728  1
  Al  Al11  1  0.22016578  0.20441953  0.56044965  1
  Al  Al12  1  0.78494354  0.08342239  0.31048072  1
  Al  Al13  1  0.89669648  0.18764903  0.06447648  1
  Al  Al14  1  0.44024842  0.09799145  0.80769083  1
  Al  Al15  1  0.55668278  0.20365185  0.55852191  1
  Al  Al16  1  0.10530458  0.43260851  0.30854846  1
  Al  Al17  1  0.23399032  0.54806101  0.06262913  1
  Al  Al18  1  0.76644746  0.42738949  0.88455314  1
  Al  Al19  1  0.89191213  0.54302880  0.56256988  1
  Al  Al20  1  0.44217463  0.42242598  0.31152697  1
  Al  Al21  1  0.10969892  0.42644166  0.81340516  1
  Al  Al22  1  0.22449848  0.53744558  0.55916900  1
  Al  Al23  1  0.78150514  0.42914372  0.37044155  1
  Al  Al24  1  0.86996105  0.55488690  0.06993058  1
  Al  Al25  1  0.44246316  0.42145290  0.81164811  1
  Al  Al26  1  0.56146432  0.53928665  0.63383773  1
  Al  Al27  1  0.11470742  0.77060923  0.31031819  1
  Al  Al28  1  0.77863279  0.75626496  0.82183650  1
  Al  Al29  1  0.89008706  0.86613178  0.56087849  1
  Al  Al30  1  0.45074181  0.76456634  0.37884327  1
  Al  Al31  1  0.11094162  0.75493999  0.81005042  1
  Al  Al32  1  0.22921748  0.86882168  0.62408130  1
  Al  Al33  1  0.88366644  0.87176881  0.06001710  1
  Al  Al34  1  0.44138092  0.76512314  0.89022722  1
  Al  Al35  1  0.55634536  0.86571594  0.62174286  1
  N  N36  1  0.20895045  0.19376092  0.36858255  1
  N  N37  1  0.12311539  0.07145836  0.09737043  1
  N  N38  1  0.88780499  0.19911433  0.87630545  1
  N  N39  1  0.78000450  0.08940763  0.62069679  1
  N  N40  1  0.55834506  0.20441119  0.37220779  1
  N  N41  1  0.45263322  0.07586966  0.12454915  1
  N  N42  1  0.22327861  0.20863248  0.87626424  1
  N  N43  1  0.10801443  0.10229884  0.62991366  1
  N  N44  1  0.92218465  0.18296917  0.36587344  1
  N  N45  1  0.77937741  0.08735557  0.12772102  1
  N  N46  1  0.55745170  0.20179221  0.87506156  1
  N  N47  1  0.44066916  0.09958515  0.61824895  1
  N  N48  1  0.22308806  0.54224474  0.37129542  1
  N  N49  1  0.10896734  0.43509082  0.12390953  1
  N  N50  1  0.89081740  0.53511269  0.88033677  1
  N  N51  1  0.77403811  0.42548227  0.55948140  1
  N  N52  1  0.56301503  0.53959432  0.30038738  1
  N  N53  1  0.46472050  0.42206212  0.12304912  1
  N  N54  1  0.22353577  0.53776350  0.87755456  1
  N  N55  1  0.11224069  0.42556412  0.62275273  1
  N  N56  1  0.87912874  0.57149885  0.36807810  1
  N  N57  1  0.75552124  0.42788281  0.09200319  1
  N  N58  1  0.55520925  0.54385488  0.82088154  1
  N  N59  1  0.44366665  0.42106578  0.62289182  1
  N  N60  1  0.21147778  0.90427815  0.36000383  1
  N  N61  1  0.13333267  0.77697197  0.12011728  1
  N  N62  1  0.89166562  0.87044391  0.87509061  1
  N  N63  1  0.78964699  0.75252460  0.63125766  1
  N  N64  1  0.59291994  0.85737511  0.36420939  1
  N  N65  1  0.42071626  0.81045167  0.07500129  1
  N  N66  1  0.22995573  0.86597865  0.81771039  1
  N  N67  1  0.10901452  0.75430144  0.62036600  1
  N  N68  1  0.88113617  0.85694170  0.36879718  1
  N  N69  1  0.72918516  0.78542895  0.08700244  1
  N  N70  1  0.54758398  0.87026575  0.81508179  1
  N  N71  1  0.44960395  0.74962405  0.56327095  1
