# generated using pymatgen
data_Al31B5N36
_symmetry_space_group_name_H-M   'P 1'
_cell_length_a   9.16094408
_cell_length_b   9.24123992
_cell_length_c   9.76848452
_cell_angle_alpha   90.22912124
_cell_angle_beta   90.01678131
_cell_angle_gamma   60.22570466
_symmetry_Int_Tables_number   1
_chemical_formula_structural   Al31B5N36
_chemical_formula_sum   'Al31 B5 N36'
_cell_volume   717.80628235
_cell_formula_units_Z   1
loop_
 _symmetry_equiv_pos_site_id
 _symmetry_equiv_pos_as_xyz
  1  'x, y, z'
loop_
 _atom_site_type_symbol
 _atom_site_label
 _atom_site_symmetry_multiplicity
 _atom_site_fract_x
 _atom_site_fract_y
 _atom_site_fract_z
 _atom_site_occupancy
  B  B0  1  0.11242994  0.09438552  0.41212027  1
  B  B1  1  0.58309303  0.48539603  0.17915196  1
  B  B2  1  0.22847230  0.89388307  0.17366056  1
  B  B3  1  0.55205614  0.87484228  0.17152919  1
  B  B4  1  0.77814955  0.76090698  0.41003698  1
  Al  Al5  1  0.22392113  0.19698168  0.16771238  1
  Al  Al6  1  0.78146240  0.09042208  0.91191506  1
  Al  Al7  1  0.89373181  0.20253778  0.65658886  1
  Al  Al8  1  0.44702038  0.08495930  0.40753931  1
  Al  Al9  1  0.56163950  0.19761940  0.16443332  1
  Al  Al10  1  0.11586701  0.08789575  0.91414810  1
  Al  Al11  1  0.22197468  0.20263607  0.65587036  1
  Al  Al12  1  0.78304003  0.08545196  0.41445448  1
  Al  Al13  1  0.89933188  0.19258419  0.16912892  1
  Al  Al14  1  0.44625744  0.08772782  0.91606304  1
  Al  Al15  1  0.55529559  0.20367567  0.66392674  1
  Al  Al16  1  0.10646367  0.43057138  0.41186964  1
  Al  Al17  1  0.22943592  0.54561547  0.16330218  1
  Al  Al18  1  0.77391385  0.42816623  0.91553577  1
  Al  Al19  1  0.88536466  0.54285409  0.65742580  1
  Al  Al20  1  0.44691803  0.42404459  0.41265754  1
  Al  Al21  1  0.11034618  0.42701837  0.91364621  1
  Al  Al22  1  0.22304634  0.54002055  0.66409255  1
  Al  Al23  1  0.78422710  0.42622375  0.41082800  1
  Al  Al24  1  0.87108022  0.55117224  0.16802220  1
  Al  Al25  1  0.45008605  0.42929763  0.91635126  1
  Al  Al26  1  0.55374367  0.54367641  0.66254908  1
  Al  Al27  1  0.10924413  0.76550269  0.40457496  1
  Al  Al28  1  0.76966411  0.76342329  0.91414030  1
  Al  Al29  1  0.88907007  0.86746936  0.65644805  1
  Al  Al30  1  0.44883546  0.75978358  0.38143045  1
  Al  Al31  1  0.11467945  0.76447178  0.91726122  1
  Al  Al32  1  0.22697052  0.87027023  0.65191184  1
  Al  Al33  1  0.88575166  0.86714913  0.16506191  1
  Al  Al34  1  0.44146083  0.76765017  0.93061477  1
  Al  Al35  1  0.55468641  0.86791147  0.65166120  1
  N  N36  1  0.20831982  0.19550643  0.36131087  1
  N  N37  1  0.12183606  0.07497089  0.10729157  1
  N  N38  1  0.89189214  0.20518018  0.85339286  1
  N  N39  1  0.77915163  0.09145506  0.60614642  1
  N  N40  1  0.55790625  0.20238188  0.35555433  1
  N  N41  1  0.45470674  0.07628690  0.11436735  1
  N  N42  1  0.22218092  0.20408504  0.85294942  1
  N  N43  1  0.11424969  0.08972723  0.57952478  1
  N  N44  1  0.91463971  0.19121071  0.36233531  1
  N  N45  1  0.78350386  0.08811416  0.10612390  1
  N  N46  1  0.55476068  0.20554523  0.85916764  1
  N  N47  1  0.44594280  0.09152380  0.59999372  1
  N  N48  1  0.22501786  0.53780909  0.35404294  1
  N  N49  1  0.10779482  0.42906414  0.10957979  1
  N  N50  1  0.88568079  0.54070967  0.85474085  1
  N  N51  1  0.77706944  0.42636225  0.60220758  1
  N  N52  1  0.56445796  0.52384180  0.33127420  1
  N  N53  1  0.46601814  0.43101159  0.11302756  1
  N  N54  1  0.22450953  0.53914040  0.86056813  1
  N  N55  1  0.11126532  0.42781137  0.60518226  1
  N  N56  1  0.87545232  0.56453301  0.36044128  1
  N  N57  1  0.75810320  0.42797193  0.11598048  1
  N  N58  1  0.55250264  0.54742108  0.85662006  1
  N  N59  1  0.44723840  0.42612057  0.60505963  1
  N  N60  1  0.20907034  0.90016006  0.34011982  1
  N  N61  1  0.12284244  0.77331653  0.11331873  1
  N  N62  1  0.89003409  0.86675153  0.85310850  1
  N  N63  1  0.77529933  0.76118617  0.57878548  1
  N  N64  1  0.58013953  0.86132014  0.33978398  1
  N  N65  1  0.42434795  0.80463683  0.12624193  1
  N  N66  1  0.22593040  0.87130126  0.84659045  1
  N  N67  1  0.11304674  0.75936255  0.59849310  1
  N  N68  1  0.87726379  0.85737974  0.35881221  1
  N  N69  1  0.74550174  0.77395826  0.10633923  1
  N  N70  1  0.55294511  0.87056158  0.84575474  1
  N  N71  1  0.44697416  0.75530078  0.58196995  1
