# generated using pymatgen
data_Al31B5N36
_symmetry_space_group_name_H-M   'P 1'
_cell_length_a   9.14530563
_cell_length_b   9.22514913
_cell_length_c   10.21102818
_cell_angle_alpha   90.97798330
_cell_angle_beta   89.76849350
_cell_angle_gamma   60.11342032
_symmetry_Int_Tables_number   1
_chemical_formula_structural   Al31B5N36
_chemical_formula_sum   'Al31 B5 N36'
_cell_volume   746.72070763
_cell_formula_units_Z   1
loop_
 _symmetry_equiv_pos_site_id
 _symmetry_equiv_pos_as_xyz
  1  'x, y, z'
loop_
 _atom_site_type_symbol
 _atom_site_label
 _atom_site_symmetry_multiplicity
 _atom_site_fract_x
 _atom_site_fract_y
 _atom_site_fract_z
 _atom_site_occupancy
  B  B0  1  0.11476637  0.09930903  0.30963039  1
  B  B1  1  0.58442808  0.48203979  0.15907930  1
  B  B2  1  0.23314829  0.89061352  0.15481184  1
  B  B3  1  0.53629523  0.88553515  0.11029973  1
  B  B4  1  0.77295091  0.75822356  0.39896938  1
  Al  Al5  1  0.22598226  0.19587199  0.07852003  1
  Al  Al6  1  0.77967032  0.09154840  0.81886137  1
  Al  Al7  1  0.89926535  0.19189792  0.56138701  1
  Al  Al8  1  0.45486350  0.07862081  0.31928298  1
  Al  Al9  1  0.56582840  0.18992264  0.07096347  1
  Al  Al10  1  0.10641324  0.10273326  0.82032073  1
  Al  Al11  1  0.22406741  0.19227008  0.55601954  1
  Al  Al12  1  0.78501321  0.08482053  0.31835018  1
  Al  Al13  1  0.89563791  0.19582532  0.07852122  1
  Al  Al14  1  0.43746497  0.10131203  0.81422225  1
  Al  Al15  1  0.56211480  0.19487090  0.56530411  1
  Al  Al16  1  0.10398145  0.43787551  0.38403176  1
  Al  Al17  1  0.23273923  0.54218375  0.14019164  1
  Al  Al18  1  0.76688341  0.43654459  0.89822291  1
  Al  Al19  1  0.88977431  0.53342939  0.63694482  1
  Al  Al20  1  0.44342868  0.43181748  0.38861615  1
  Al  Al21  1  0.10431864  0.43421711  0.89748468  1
  Al  Al22  1  0.22916303  0.52142203  0.64039502  1
  Al  Al23  1  0.78348626  0.43022859  0.38383190  1
  Al  Al24  1  0.86029818  0.56512526  0.14975446  1
  Al  Al25  1  0.44715727  0.43375686  0.89541424  1
  Al  Al26  1  0.55573312  0.53836563  0.64153311  1
  Al  Al27  1  0.10720715  0.77435532  0.31687937  1
  Al  Al28  1  0.76171647  0.76317655  0.88691923  1
  Al  Al29  1  0.89495348  0.86470177  0.56290788  1
  Al  Al30  1  0.45445424  0.76122009  0.37681195  1
  Al  Al31  1  0.10598859  0.75965159  0.82128726  1
  Al  Al32  1  0.23037866  0.86399473  0.63881469  1
  Al  Al33  1  0.89608037  0.87276144  0.07003568  1
  Al  Al34  1  0.43354894  0.77439334  0.90179334  1
  Al  Al35  1  0.55744754  0.86362688  0.62421974  1
  N  N36  1  0.21460780  0.18980864  0.36589835  1
  N  N37  1  0.11220927  0.09353702  0.15024546  1
  N  N38  1  0.88924554  0.20189680  0.89050814  1
  N  N39  1  0.78239690  0.08845315  0.63095433  1
  N  N40  1  0.56114195  0.19747096  0.37792002  1
  N  N41  1  0.45471940  0.07809614  0.13092623  1
  N  N42  1  0.22355316  0.19965785  0.89141226  1
  N  N43  1  0.10973920  0.09816499  0.63302049  1
  N  N44  1  0.92206048  0.18393905  0.37036455  1
  N  N45  1  0.78111229  0.09058055  0.13498538  1
  N  N46  1  0.55778582  0.19864987  0.88426215  1
  N  N47  1  0.43811661  0.10135869  0.62665145  1
  N  N48  1  0.22625415  0.53828743  0.32651343  1
  N  N49  1  0.09708646  0.44656071  0.08597775  1
  N  N50  1  0.88633011  0.53652251  0.82796881  1
  N  N51  1  0.77477878  0.42655367  0.57163749  1
  N  N52  1  0.56334575  0.52549485  0.30525796  1
  N  N53  1  0.46597415  0.43359301  0.08942215  1
  N  N54  1  0.22909436  0.52549844  0.83184292  1
  N  N55  1  0.11041703  0.42569269  0.57163777  1
  N  N56  1  0.87497991  0.56704965  0.33471049  1
  N  N57  1  0.75122788  0.43979882  0.09461310  1
  N  N58  1  0.55144480  0.54578894  0.83042978  1
  N  N59  1  0.44673875  0.42912856  0.57639736  1
  N  N60  1  0.22922048  0.89340842  0.31561996  1
  N  N61  1  0.12578052  0.77944174  0.12511975  1
  N  N62  1  0.88821712  0.87148396  0.88361963  1
  N  N63  1  0.77935573  0.74799421  0.56418020  1
  N  N64  1  0.58953738  0.85503455  0.35576675  1
  N  N65  1  0.41651905  0.82028775  0.08710369  1
  N  N66  1  0.22437653  0.87105073  0.82881268  1
  N  N67  1  0.10811312  0.75369899  0.62814121  1
  N  N68  1  0.88447124  0.86158357  0.37645808  1
  N  N69  1  0.73103860  0.78206090  0.07631250  1
  N  N70  1  0.55197729  0.86662414  0.81552364  1
  N  N71  1  0.44370552  0.75222530  0.56520431  1
