# generated using pymatgen
data_Al31B5N36
_symmetry_space_group_name_H-M   'P 1'
_cell_length_a   9.14185177
_cell_length_b   9.18533638
_cell_length_c   10.35942896
_cell_angle_alpha   91.44131719
_cell_angle_beta   90.84003605
_cell_angle_gamma   60.22241441
_symmetry_Int_Tables_number   1
_chemical_formula_structural   Al31B5N36
_chemical_formula_sum   'Al31 B5 N36'
_cell_volume   754.78956422
_cell_formula_units_Z   1
loop_
 _symmetry_equiv_pos_site_id
 _symmetry_equiv_pos_as_xyz
  1  'x, y, z'
loop_
 _atom_site_type_symbol
 _atom_site_label
 _atom_site_symmetry_multiplicity
 _atom_site_fract_x
 _atom_site_fract_y
 _atom_site_fract_z
 _atom_site_occupancy
  B  B0  1  0.11856917  0.08563618  0.35690811  1
  B  B1  1  0.58540647  0.47895716  0.16512808  1
  B  B2  1  0.22777208  0.89014130  0.09642267  1
  B  B3  1  0.53749055  0.88318166  0.10317743  1
  B  B4  1  0.77197449  0.76287175  0.36360932  1
  Al  Al5  1  0.22745223  0.19466742  0.07386556  1
  Al  Al6  1  0.77420456  0.08774204  0.82537795  1
  Al  Al7  1  0.88456247  0.21080387  0.64831420  1
  Al  Al8  1  0.45074913  0.07768250  0.32334309  1
  Al  Al9  1  0.56335344  0.19066821  0.07824762  1
  Al  Al10  1  0.11501512  0.09711957  0.83531821  1
  Al  Al11  1  0.22218185  0.19630594  0.56605092  1
  Al  Al12  1  0.78159168  0.07791901  0.32738605  1
  Al  Al13  1  0.90351304  0.19358129  0.14894368  1
  Al  Al14  1  0.43656998  0.10683437  0.81760610  1
  Al  Al15  1  0.55783635  0.19844723  0.56902879  1
  Al  Al16  1  0.10286290  0.43983849  0.38889978  1
  Al  Al17  1  0.23014702  0.55409531  0.14949687  1
  Al  Al18  1  0.77299706  0.42720750  0.90645381  1
  Al  Al19  1  0.89848012  0.52379082  0.64930542  1
  Al  Al20  1  0.44433629  0.43182489  0.39344601  1
  Al  Al21  1  0.10616174  0.43911043  0.90366970  1
  Al  Al22  1  0.22377193  0.53721527  0.64600365  1
  Al  Al23  1  0.78671886  0.42524150  0.39341752  1
  Al  Al24  1  0.86075718  0.56199381  0.14829970  1
  Al  Al25  1  0.44804882  0.43537647  0.90224728  1
  Al  Al26  1  0.55686570  0.53893240  0.64802626  1
  Al  Al27  1  0.11478181  0.76634571  0.39646563  1
  Al  Al28  1  0.77591052  0.76105656  0.83495338  1
  Al  Al29  1  0.88282653  0.86559826  0.57602854  1
  Al  Al30  1  0.44842103  0.76297816  0.38903801  1
  Al  Al31  1  0.12337330  0.76137571  0.89511293  1
  Al  Al32  1  0.22710232  0.86635959  0.64007031  1
  Al  Al33  1  0.87857604  0.87334221  0.07193353  1
  Al  Al34  1  0.44500725  0.76835194  0.89647151  1
  Al  Al35  1  0.55567424  0.86685231  0.63457848  1
  N  N36  1  0.21247332  0.18672861  0.37530546  1
  N  N37  1  0.11936030  0.07198697  0.09151626  1
  N  N38  1  0.88113255  0.21242241  0.83927018  1
  N  N39  1  0.77378972  0.08671921  0.63727419  1
  N  N40  1  0.55802367  0.19735691  0.38356219  1
  N  N41  1  0.45221186  0.07571332  0.13711068  1
  N  N42  1  0.22739549  0.20751159  0.89166059  1
  N  N43  1  0.11440965  0.09960580  0.64124879  1
  N  N44  1  0.92391607  0.18902356  0.33987700  1
  N  N45  1  0.77817785  0.08543030  0.14543864  1
  N  N46  1  0.55764704  0.20054849  0.89438304  1
  N  N47  1  0.43805902  0.10417160  0.63175861  1
  N  N48  1  0.22419354  0.54332652  0.33068170  1
  N  N49  1  0.09890687  0.44883427  0.09156640  1
  N  N50  1  0.89170907  0.52565965  0.83790875  1
  N  N51  1  0.77749512  0.42425834  0.57710284  1
  N  N52  1  0.56570167  0.52396036  0.31078274  1
  N  N53  1  0.46391394  0.43488474  0.09707945  1
  N  N54  1  0.22619131  0.53612695  0.83494453  1
  N  N55  1  0.11068580  0.43107539  0.57423546  1
  N  N56  1  0.87194974  0.56915627  0.33681919  1
  N  N57  1  0.75650526  0.42725313  0.10042816  1
  N  N58  1  0.55655740  0.54147527  0.83497516  1
  N  N59  1  0.44381008  0.43312212  0.58011631  1
  N  N60  1  0.21009360  0.90223326  0.36002789  1
  N  N61  1  0.13963682  0.77579784  0.08418007  1
  N  N62  1  0.88972566  0.87188383  0.88989955  1
  N  N63  1  0.78784284  0.75307465  0.64273766  1
  N  N64  1  0.58899155  0.85375550  0.37060976  1
  N  N65  1  0.41963961  0.81306797  0.07841810  1
  N  N66  1  0.22945601  0.86327039  0.82536579  1
  N  N67  1  0.11587621  0.75582506  0.58124345  1
  N  N68  1  0.87386203  0.85423663  0.38422479  1
  N  N69  1  0.72728300  0.78229546  0.09028475  1
  N  N70  1  0.54525981  0.87606911  0.82448335  1
  N  N71  1  0.44812469  0.75146853  0.57485655  1
