# generated using pymatgen
data_Al31B5N36
_symmetry_space_group_name_H-M   'P 1'
_cell_length_a   9.12016006
_cell_length_b   9.16806284
_cell_length_c   10.21641845
_cell_angle_alpha   89.85967697
_cell_angle_beta   90.02280401
_cell_angle_gamma   60.22077488
_symmetry_Int_Tables_number   1
_chemical_formula_structural   Al31B5N36
_chemical_formula_sum   'Al31 B5 N36'
_cell_volume   741.42830784
_cell_formula_units_Z   1
loop_
 _symmetry_equiv_pos_site_id
 _symmetry_equiv_pos_as_xyz
  1  'x, y, z'
loop_
 _atom_site_type_symbol
 _atom_site_label
 _atom_site_symmetry_multiplicity
 _atom_site_fract_x
 _atom_site_fract_y
 _atom_site_fract_z
 _atom_site_occupancy
  B  B0  1  0.11325397  0.09132118  0.35664613  1
  B  B1  1  0.58038467  0.49076521  0.05366391  1
  B  B2  1  0.22766052  0.88515841  0.10401441  1
  B  B3  1  0.54662414  0.87473601  0.10239936  1
  B  B4  1  0.77443160  0.76339305  0.35723913  1
  Al  Al5  1  0.22696089  0.19335326  0.06253605  1
  Al  Al6  1  0.77972022  0.09132793  0.80948927  1
  Al  Al7  1  0.89395865  0.20391220  0.56395239  1
  Al  Al8  1  0.45238528  0.08034168  0.31416525  1
  Al  Al9  1  0.56126637  0.19464996  0.06199050  1
  Al  Al10  1  0.11239094  0.09416696  0.82263324  1
  Al  Al11  1  0.22193191  0.20268645  0.56173834  1
  Al  Al12  1  0.78297661  0.08725723  0.31282546  1
  Al  Al13  1  0.89411288  0.19401943  0.06034454  1
  Al  Al14  1  0.44190248  0.09791455  0.81081356  1
  Al  Al15  1  0.55531764  0.20615036  0.55918233  1
  Al  Al16  1  0.10563346  0.43129612  0.31105801  1
  Al  Al17  1  0.22900259  0.54593711  0.06168278  1
  Al  Al18  1  0.77746717  0.42651571  0.81581991  1
  Al  Al19  1  0.88799257  0.54134782  0.56468288  1
  Al  Al20  1  0.44970167  0.42947657  0.30546502  1
  Al  Al21  1  0.11346188  0.42465980  0.81045809  1
  Al  Al22  1  0.22509184  0.53802997  0.55928633  1
  Al  Al23  1  0.77524382  0.43543660  0.30721514  1
  Al  Al24  1  0.87116700  0.54766971  0.05857786  1
  Al  Al25  1  0.44652470  0.42697640  0.81824479  1
  Al  Al26  1  0.55962113  0.53077439  0.56116883  1
  Al  Al27  1  0.11235712  0.76928135  0.31238464  1
  Al  Al28  1  0.78170345  0.75740977  0.82215458  1
  Al  Al29  1  0.88919685  0.86840310  0.56093129  1
  Al  Al30  1  0.44347211  0.77349852  0.38598234  1
  Al  Al31  1  0.11008492  0.75468576  0.81124120  1
  Al  Al32  1  0.22875350  0.86947079  0.63011323  1
  Al  Al33  1  0.88369001  0.87236621  0.06279973  1
  Al  Al34  1  0.44227006  0.76609797  0.90155198  1
  Al  Al35  1  0.55670315  0.86608919  0.62914558  1
  N  N36  1  0.21010588  0.19185799  0.36978166  1
  N  N37  1  0.12367440  0.06615292  0.09277021  1
  N  N38  1  0.88599786  0.20473465  0.87437430  1
  N  N39  1  0.77950642  0.09246393  0.61968646  1
  N  N40  1  0.55486115  0.20711126  0.37051049  1
  N  N41  1  0.45529384  0.07100956  0.12452522  1
  N  N42  1  0.22520573  0.20668682  0.87707863  1
  N  N43  1  0.10807904  0.10276171  0.63243996  1
  N  N44  1  0.91551206  0.19588149  0.37023611  1
  N  N45  1  0.77995653  0.09002232  0.12859471  1
  N  N46  1  0.55822734  0.20156747  0.87617359  1
  N  N47  1  0.44201285  0.10104306  0.62145728  1
  N  N48  1  0.22611411  0.53914705  0.36931339  1
  N  N49  1  0.10788491  0.43034135  0.12414151  1
  N  N50  1  0.89296170  0.53267650  0.87398940  1
  N  N51  1  0.77770090  0.42713779  0.62723221  1
  N  N52  1  0.55937270  0.53363075  0.37463071  1
  N  N53  1  0.46351588  0.43122788  0.11538592  1
  N  N54  1  0.22329743  0.53648597  0.87655479  1
  N  N55  1  0.11361823  0.42554044  0.62005612  1
  N  N56  1  0.87526427  0.56598242  0.37086987  1
  N  N57  1  0.75587750  0.43092572  0.11746706  1
  N  N58  1  0.56361257  0.52515726  0.90424971  1
  N  N59  1  0.44663495  0.42678330  0.63006940  1
  N  N60  1  0.20404816  0.90774975  0.36101233  1
  N  N61  1  0.13147686  0.77414406  0.12201112  1
  N  N62  1  0.89226576  0.87212693  0.87698107  1
  N  N63  1  0.78956428  0.75471962  0.63151924  1
  N  N64  1  0.59131328  0.85685959  0.36214545  1
  N  N65  1  0.42547203  0.79928483  0.08826692  1
  N  N66  1  0.23394871  0.86087895  0.82268922  1
  N  N67  1  0.10863853  0.75557452  0.62135226  1
  N  N68  1  0.87928419  0.85596228  0.36920090  1
  N  N69  1  0.73439876  0.77932750  0.08811236  1
  N  N70  1  0.54989409  0.86661614  0.82098111  1
  N  N71  1  0.44510217  0.76038218  0.57224659  1
