# generated using pymatgen
data_Al31B5N36
_symmetry_space_group_name_H-M   'P 1'
_cell_length_a   9.13670397
_cell_length_b   9.16713353
_cell_length_c   10.30526460
_cell_angle_alpha   91.48137367
_cell_angle_beta   90.43987876
_cell_angle_gamma   60.22159948
_symmetry_Int_Tables_number   1
_chemical_formula_structural   Al31B5N36
_chemical_formula_sum   'Al31 B5 N36'
_cell_volume   748.90284222
_cell_formula_units_Z   1
loop_
 _symmetry_equiv_pos_site_id
 _symmetry_equiv_pos_as_xyz
  1  'x, y, z'
loop_
 _atom_site_type_symbol
 _atom_site_label
 _atom_site_symmetry_multiplicity
 _atom_site_fract_x
 _atom_site_fract_y
 _atom_site_fract_z
 _atom_site_occupancy
  B  B0  1  0.11892851  0.08233370  0.32392290  1
  B  B1  1  0.58459090  0.47976805  0.15981053  1
  B  B2  1  0.22808088  0.89079127  0.10937740  1
  B  B3  1  0.53592496  0.88626200  0.09817670  1
  B  B4  1  0.77268658  0.76392418  0.35783245  1
  Al  Al5  1  0.22475110  0.19598949  0.07782693  1
  Al  Al6  1  0.78074091  0.09130967  0.81857398  1
  Al  Al7  1  0.89931034  0.19148593  0.56070878  1
  Al  Al8  1  0.45297268  0.07814868  0.31871661  1
  Al  Al9  1  0.56253088  0.19204832  0.07151053  1
  Al  Al10  1  0.10726712  0.10417452  0.81924111  1
  Al  Al11  1  0.22450551  0.19429890  0.55657862  1
  Al  Al12  1  0.78569223  0.08092814  0.31783852  1
  Al  Al13  1  0.89738831  0.18866021  0.07751108  1
  Al  Al14  1  0.43616361  0.10504447  0.81500481  1
  Al  Al15  1  0.55928093  0.19840989  0.56524320  1
  Al  Al16  1  0.10414383  0.43739365  0.38140708  1
  Al  Al17  1  0.22918568  0.55634661  0.14383863  1
  Al  Al18  1  0.76937830  0.43332816  0.90127401  1
  Al  Al19  1  0.89813802  0.52056067  0.64148750  1
  Al  Al20  1  0.44397814  0.43109712  0.38796822  1
  Al  Al21  1  0.10664576  0.43629474  0.89927135  1
  Al  Al22  1  0.22231186  0.53714225  0.64030284  1
  Al  Al23  1  0.78231936  0.43097038  0.38201804  1
  Al  Al24  1  0.85974018  0.56322725  0.14273368  1
  Al  Al25  1  0.44742793  0.43481347  0.89542887  1
  Al  Al26  1  0.55834752  0.53683613  0.64121289  1
  Al  Al27  1  0.11591263  0.76546673  0.38980610  1
  Al  Al28  1  0.77662641  0.76004903  0.82825850  1
  Al  Al29  1  0.88221227  0.86594622  0.57016866  1
  Al  Al30  1  0.44791319  0.76294998  0.38311048  1
  Al  Al31  1  0.12290964  0.76291730  0.88967108  1
  Al  Al32  1  0.22683101  0.86596928  0.63329427  1
  Al  Al33  1  0.87566582  0.87313424  0.06593896  1
  Al  Al34  1  0.44033249  0.77139391  0.89182238  1
  Al  Al35  1  0.55607621  0.86552110  0.62890334  1
  N  N36  1  0.21434109  0.18593047  0.36656352  1
  N  N37  1  0.11856964  0.07976121  0.13943096  1
  N  N38  1  0.89214735  0.19793581  0.89161152  1
  N  N39  1  0.78013925  0.09194387  0.63138253  1
  N  N40  1  0.56140356  0.19628525  0.37834307  1
  N  N41  1  0.45326716  0.07738533  0.13145981  1
  N  N42  1  0.22501506  0.20187240  0.89246091  1
  N  N43  1  0.10799785  0.10427179  0.63512462  1
  N  N44  1  0.92187255  0.18129248  0.37042125  1
  N  N45  1  0.77905016  0.08826984  0.13664352  1
  N  N46  1  0.55920385  0.19985712  0.88590195  1
  N  N47  1  0.43815802  0.10359295  0.62762300  1
  N  N48  1  0.22488248  0.54178994  0.32482734  1
  N  N49  1  0.09756777  0.45145770  0.08658644  1
  N  N50  1  0.89347215  0.52215285  0.83038416  1
  N  N51  1  0.77491408  0.42738989  0.56732892  1
  N  N52  1  0.56271334  0.52593399  0.30468794  1
  N  N53  1  0.46301788  0.43598542  0.09041018  1
  N  N54  1  0.22549609  0.53559628  0.83032554  1
  N  N55  1  0.11151266  0.42949496  0.56791366  1
  N  N56  1  0.87301224  0.56977372  0.33002699  1
  N  N57  1  0.75196691  0.43443515  0.09566980  1
  N  N58  1  0.55616890  0.54131228  0.82858924  1
  N  N59  1  0.44283122  0.43307248  0.57526080  1
  N  N60  1  0.21512873  0.89466786  0.35003822  1
  N  N61  1  0.13738626  0.78143489  0.08011696  1
  N  N62  1  0.88963033  0.87141706  0.88259025  1
  N  N63  1  0.78816364  0.75205086  0.63642147  1
  N  N64  1  0.58960061  0.85361734  0.36547350  1
  N  N65  1  0.41347440  0.81998279  0.07455195  1
  N  N66  1  0.22606760  0.86817632  0.81947542  1
  N  N67  1  0.11468962  0.75620238  0.57599417  1
  N  N68  1  0.87401686  0.85555677  0.37691572  1
  N  N69  1  0.72526387  0.78324260  0.08415697  1
  N  N70  1  0.54590144  0.87427305  0.82025035  1
  N  N71  1  0.44794529  0.75116769  0.56992925  1
