# generated using pymatgen
data_Al31B5N36
_symmetry_space_group_name_H-M   'P 1'
_cell_length_a   9.19449876
_cell_length_b   9.26916567
_cell_length_c   9.92475419
_cell_angle_alpha   90.70056985
_cell_angle_beta   90.24344044
_cell_angle_gamma   60.16279466
_symmetry_Int_Tables_number   1
_chemical_formula_structural   Al31B5N36
_chemical_formula_sum   'Al31 B5 N36'
_cell_volume   733.66153562
_cell_formula_units_Z   1
loop_
 _symmetry_equiv_pos_site_id
 _symmetry_equiv_pos_as_xyz
  1  'x, y, z'
loop_
 _atom_site_type_symbol
 _atom_site_label
 _atom_site_symmetry_multiplicity
 _atom_site_fract_x
 _atom_site_fract_y
 _atom_site_fract_z
 _atom_site_occupancy
  B  B0  1  0.11012928  0.09075233  0.40063494  1
  B  B1  1  0.58494063  0.48217958  0.16848090  1
  B  B2  1  0.22925254  0.89094884  0.16182989  1
  B  B3  1  0.55439128  0.86786879  0.16286039  1
  B  B4  1  0.77191485  0.75551946  0.39851385  1
  Al  Al5  1  0.23241620  0.19704445  0.09397320  1
  Al  Al6  1  0.78048470  0.08423298  0.83322885  1
  Al  Al7  1  0.89399427  0.20462526  0.64438500  1
  Al  Al8  1  0.44503436  0.08825991  0.33238799  1
  Al  Al9  1  0.56678646  0.19018332  0.08429156  1
  Al  Al10  1  0.11102639  0.08643624  0.90441960  1
  Al  Al11  1  0.22152989  0.20093026  0.57384125  1
  Al  Al12  1  0.77892456  0.08571830  0.33883670  1
  Al  Al13  1  0.90451321  0.19844958  0.15996374  1
  Al  Al14  1  0.43788146  0.10055410  0.82989463  1
  Al  Al15  1  0.55575367  0.19997116  0.58406889  1
  Al  Al16  1  0.10269089  0.43771931  0.39440507  1
  Al  Al17  1  0.23379707  0.54579934  0.15385694  1
  Al  Al18  1  0.77424906  0.42849656  0.90556274  1
  Al  Al19  1  0.88495452  0.54193656  0.64925114  1
  Al  Al20  1  0.44504346  0.42997554  0.40125499  1
  Al  Al21  1  0.10548482  0.43737742  0.90523849  1
  Al  Al22  1  0.22112153  0.54010897  0.65368067  1
  Al  Al23  1  0.78494160  0.42537150  0.40153888  1
  Al  Al24  1  0.86896198  0.55391143  0.15857354  1
  Al  Al25  1  0.44923359  0.43466656  0.90467888  1
  Al  Al26  1  0.55299500  0.54394330  0.65365253  1
  Al  Al27  1  0.11547778  0.76449943  0.38786818  1
  Al  Al28  1  0.76524305  0.76558400  0.90711138  1
  Al  Al29  1  0.88446042  0.86912774  0.57515488  1
  Al  Al30  1  0.44846526  0.75922255  0.37567469  1
  Al  Al31  1  0.12150703  0.76371620  0.90991869  1
  Al  Al32  1  0.22442625  0.86825366  0.64322281  1
  Al  Al33  1  0.89089593  0.86880076  0.11189505  1
  Al  Al34  1  0.44254802  0.77191123  0.92050722  1
  Al  Al35  1  0.55335733  0.86389517  0.64066899  1
  N  N36  1  0.21134951  0.19493257  0.37725943  1
  N  N37  1  0.12136491  0.07208392  0.09743937  1
  N  N38  1  0.89288598  0.20847511  0.84035105  1
  N  N39  1  0.77707588  0.08537355  0.63893940  1
  N  N40  1  0.55657297  0.19839219  0.39317827  1
  N  N41  1  0.45737499  0.07844922  0.14351083  1
  N  N42  1  0.22289098  0.20688421  0.89490780  1
  N  N43  1  0.10830006  0.08175854  0.56765834  1
  N  N44  1  0.91796514  0.19343059  0.35283624  1
  N  N45  1  0.78014502  0.09269328  0.14883612  1
  N  N46  1  0.55840080  0.20155847  0.89235219  1
  N  N47  1  0.43670015  0.09844556  0.63699081  1
  N  N48  1  0.22686206  0.53779178  0.34066225  1
  N  N49  1  0.10257384  0.44255545  0.10081650  1
  N  N50  1  0.88407067  0.54313418  0.84322238  1
  N  N51  1  0.77558804  0.42649816  0.59047273  1
  N  N52  1  0.56642558  0.52165936  0.31937023  1
  N  N53  1  0.46673411  0.43270829  0.10227844  1
  N  N54  1  0.22506208  0.54050580  0.84748057  1
  N  N55  1  0.10721384  0.43226437  0.59038948  1
  N  N56  1  0.87339794  0.56365452  0.34777596  1
  N  N57  1  0.75910359  0.42797656  0.10422526  1
  N  N58  1  0.55330443  0.54892175  0.84558425  1
  N  N59  1  0.44354223  0.43242963  0.59455900  1
  N  N60  1  0.21121968  0.90026650  0.32830379  1
  N  N61  1  0.13630351  0.77279736  0.10651164  1
  N  N62  1  0.89155743  0.86984980  0.89702021  1
  N  N63  1  0.76760039  0.75495255  0.56585083  1
  N  N64  1  0.58419385  0.85162423  0.33286293  1
  N  N65  1  0.42571620  0.80658549  0.11337742  1
  N  N66  1  0.22694166  0.87167996  0.83489547  1
  N  N67  1  0.11519363  0.75618116  0.58413440  1
  N  N68  1  0.87853877  0.85571964  0.37077268  1
  N  N69  1  0.74073754  0.77411033  0.09842053  1
  N  N70  1  0.55511687  0.86750118  0.83292625  1
  N  N71  1  0.44357989  0.75521221  0.57207454  1
