# generated using pymatgen
data_Al31B5N36
_symmetry_space_group_name_H-M   'P 1'
_cell_length_a   9.17836164
_cell_length_b   9.29089919
_cell_length_c   10.17957298
_cell_angle_alpha   90.59199330
_cell_angle_beta   89.48628469
_cell_angle_gamma   59.87086679
_symmetry_Int_Tables_number   1
_chemical_formula_structural   Al31B5N36
_chemical_formula_sum   'Al31 B5 N36'
_cell_volume   750.64601075
_cell_formula_units_Z   1
loop_
 _symmetry_equiv_pos_site_id
 _symmetry_equiv_pos_as_xyz
  1  'x, y, z'
loop_
 _atom_site_type_symbol
 _atom_site_label
 _atom_site_symmetry_multiplicity
 _atom_site_fract_x
 _atom_site_fract_y
 _atom_site_fract_z
 _atom_site_occupancy
  B  B0  1  0.11173955  0.10427695  0.31092932  1
  B  B1  1  0.59057453  0.48063700  0.16322580  1
  B  B2  1  0.25515389  0.91692132  0.16218877  1
  B  B3  1  0.53933430  0.89209633  0.10388830  1
  B  B4  1  0.77550428  0.75849868  0.40121319  1
  Al  Al5  1  0.22767776  0.20368535  0.07034406  1
  Al  Al6  1  0.78124709  0.09042112  0.81658518  1
  Al  Al7  1  0.90115248  0.19066753  0.56025278  1
  Al  Al8  1  0.45758088  0.07928901  0.32090804  1
  Al  Al9  1  0.56408680  0.19895681  0.06563074  1
  Al  Al10  1  0.10747505  0.09942363  0.81928558  1
  Al  Al11  1  0.22150675  0.19967058  0.55891847  1
  Al  Al12  1  0.78784686  0.08350198  0.31719999  1
  Al  Al13  1  0.89938210  0.19155159  0.07637832  1
  Al  Al14  1  0.44246885  0.09460673  0.80953786  1
  Al  Al15  1  0.55845226  0.20299221  0.56558486  1
  Al  Al16  1  0.11189051  0.42861415  0.31699249  1
  Al  Al17  1  0.22418303  0.54091416  0.06835885  1
  Al  Al18  1  0.76459620  0.43528043  0.89859186  1
  Al  Al19  1  0.88456858  0.53585310  0.63608264  1
  Al  Al20  1  0.44400610  0.42193111  0.31907003  1
  Al  Al21  1  0.11648268  0.41976962  0.81893194  1
  Al  Al22  1  0.22347117  0.53480736  0.56652487  1
  Al  Al23  1  0.78686826  0.43196430  0.38431366  1
  Al  Al24  1  0.85766243  0.56689665  0.14685426  1
  Al  Al25  1  0.44217114  0.42204290  0.81929021  1
  Al  Al26  1  0.55799423  0.54035132  0.64078512  1
  Al  Al27  1  0.10799820  0.76265620  0.30506344  1
  Al  Al28  1  0.76120336  0.76155859  0.88203428  1
  Al  Al29  1  0.89449926  0.86733537  0.56349260  1
  Al  Al30  1  0.45617161  0.76021524  0.37723718  1
  Al  Al31  1  0.10623175  0.75349349  0.82274524  1
  Al  Al32  1  0.22964217  0.86242604  0.64036301  1
  Al  Al33  1  0.88443457  0.87246982  0.06765124  1
  Al  Al34  1  0.43313021  0.77194521  0.89955025  1
  Al  Al35  1  0.55683660  0.86399774  0.61457516  1
  N  N36  1  0.21290027  0.19412757  0.36862849  1
  N  N37  1  0.11838634  0.09744594  0.14773137  1
  N  N38  1  0.88993440  0.20072801  0.88882253  1
  N  N39  1  0.78234964  0.09028026  0.62798253  1
  N  N40  1  0.56037157  0.20457777  0.37850497  1
  N  N41  1  0.45770732  0.08136884  0.12881498  1
  N  N42  1  0.22356947  0.20193954  0.88417813  1
  N  N43  1  0.11208600  0.09537374  0.63075211  1
  N  N44  1  0.92326623  0.18542875  0.36758760  1
  N  N45  1  0.78114235  0.09074273  0.13228699  1
  N  N46  1  0.55593936  0.20125919  0.87914465  1
  N  N47  1  0.44168952  0.09819946  0.62078494  1
  N  N48  1  0.22396800  0.54118528  0.37881608  1
  N  N49  1  0.10919167  0.42711845  0.12826477  1
  N  N50  1  0.88013364  0.53731023  0.82900910  1
  N  N51  1  0.77630259  0.42513184  0.57008814  1
  N  N52  1  0.56924745  0.53240796  0.30727307  1
  N  N53  1  0.46344670  0.42535900  0.12789738  1
  N  N54  1  0.22163377  0.53349556  0.88249037  1
  N  N55  1  0.11930187  0.41761950  0.62701429  1
  N  N56  1  0.87374252  0.57061270  0.33442776  1
  N  N57  1  0.75268386  0.43711904  0.09358867  1
  N  N58  1  0.55036201  0.54691237  0.83231661  1
  N  N59  1  0.44418453  0.42137003  0.62968136  1
  N  N60  1  0.23236594  0.89290670  0.30824611  1
  N  N61  1  0.09883408  0.75373288  0.12580974  1
  N  N62  1  0.88367111  0.87257266  0.87880947  1
  N  N63  1  0.78338268  0.74614367  0.56279292  1
  N  N64  1  0.58816263  0.85868655  0.36351964  1
  N  N65  1  0.41784538  0.83106707  0.08514430  1
  N  N66  1  0.22183659  0.86918981  0.83012870  1
  N  N67  1  0.10802653  0.75159504  0.63141876  1
  N  N68  1  0.88600358  0.86391164  0.37775255  1
  N  N69  1  0.72776992  0.78361110  0.07312564  1
  N  N70  1  0.55102241  0.86359599  0.81070336  1
  N  N71  1  0.44182054  0.75005979  0.56383166  1
