# generated using pymatgen
data_Al31B5N36
_symmetry_space_group_name_H-M   'P 1'
_cell_length_a   9.16591479
_cell_length_b   9.25925562
_cell_length_c   10.15510681
_cell_angle_alpha   90.78955705
_cell_angle_beta   89.66321326
_cell_angle_gamma   60.19845414
_symmetry_Int_Tables_number   1
_chemical_formula_structural   Al31B5N36
_chemical_formula_sum   'Al31 B5 N36'
_cell_volume   747.72873699
_cell_formula_units_Z   1
loop_
 _symmetry_equiv_pos_site_id
 _symmetry_equiv_pos_as_xyz
  1  'x, y, z'
loop_
 _atom_site_type_symbol
 _atom_site_label
 _atom_site_symmetry_multiplicity
 _atom_site_fract_x
 _atom_site_fract_y
 _atom_site_fract_z
 _atom_site_occupancy
  B  B0  1  0.11526427  0.09713480  0.30979821  1
  B  B1  1  0.58861762  0.48065992  0.16420201  1
  B  B2  1  0.23438021  0.89288391  0.15613778  1
  B  B3  1  0.53579499  0.88685347  0.10871352  1
  B  B4  1  0.77359934  0.75715948  0.40255942  1
  Al  Al5  1  0.22686040  0.19607077  0.08268566  1
  Al  Al6  1  0.78176034  0.08986301  0.81917252  1
  Al  Al7  1  0.89967343  0.19210676  0.56313857  1
  Al  Al8  1  0.45752438  0.07599460  0.32045027  1
  Al  Al9  1  0.56304354  0.19665229  0.07019019  1
  Al  Al10  1  0.10705543  0.10190856  0.82214791  1
  Al  Al11  1  0.22397116  0.19301706  0.55692133  1
  Al  Al12  1  0.78812502  0.08278298  0.31937031  1
  Al  Al13  1  0.89579214  0.19538873  0.07917414  1
  Al  Al14  1  0.43786903  0.09785556  0.81364080  1
  Al  Al15  1  0.55888280  0.19921610  0.56817754  1
  Al  Al16  1  0.10200540  0.43157660  0.37586257  1
  Al  Al17  1  0.23377632  0.55247721  0.07996583  1
  Al  Al18  1  0.76554841  0.43629125  0.89979318  1
  Al  Al19  1  0.89277093  0.53220372  0.63858636  1
  Al  Al20  1  0.44963965  0.42215232  0.34579259  1
  Al  Al21  1  0.10130645  0.43203732  0.90225323  1
  Al  Al22  1  0.22276600  0.54052106  0.56545072  1
  Al  Al23  1  0.78527586  0.43064096  0.38724694  1
  Al  Al24  1  0.85910315  0.56531238  0.15105568  1
  Al  Al25  1  0.44584348  0.42398299  0.83970738  1
  Al  Al26  1  0.55765558  0.54023679  0.64089050  1
  Al  Al27  1  0.10989484  0.76754951  0.31334313  1
  Al  Al28  1  0.76111738  0.76348143  0.88662520  1
  Al  Al29  1  0.89260144  0.86760230  0.56421487  1
  Al  Al30  1  0.45359285  0.76186743  0.37823154  1
  Al  Al31  1  0.10748874  0.75475462  0.82219657  1
  Al  Al32  1  0.22969315  0.86477632  0.64135411  1
  Al  Al33  1  0.89163794  0.87480004  0.07092472  1
  Al  Al34  1  0.43319680  0.77276281  0.90202840  1
  Al  Al35  1  0.55730856  0.86328884  0.62040538  1
  N  N36  1  0.21686394  0.18671993  0.36415199  1
  N  N37  1  0.11262265  0.09188302  0.14988532  1
  N  N38  1  0.88904179  0.20240780  0.89034769  1
  N  N39  1  0.78187871  0.08909599  0.63065672  1
  N  N40  1  0.56243215  0.19791607  0.38023424  1
  N  N41  1  0.45709498  0.07741831  0.13070400  1
  N  N42  1  0.22423324  0.19991871  0.89264402  1
  N  N43  1  0.11036425  0.09747763  0.63361532  1
  N  N44  1  0.92262311  0.18462460  0.37094320  1
  N  N45  1  0.77994468  0.09131228  0.13472461  1
  N  N46  1  0.55725562  0.19930554  0.88182723  1
  N  N47  1  0.43881854  0.09876393  0.62510735  1
  N  N48  1  0.22366208  0.54720363  0.37214677  1
  N  N49  1  0.09672154  0.44216033  0.09665341  1
  N  N50  1  0.88672364  0.53666470  0.83054512  1
  N  N51  1  0.77624241  0.42590848  0.57419497  1
  N  N52  1  0.56900552  0.53127185  0.30992456  1
  N  N53  1  0.46685257  0.42591558  0.12117371  1
  N  N54  1  0.22415792  0.54103254  0.88864687  1
  N  N55  1  0.10849922  0.42312873  0.57022765  1
  N  N56  1  0.87319890  0.56866739  0.33585491  1
  N  N57  1  0.75197259  0.43837068  0.09574526  1
  N  N58  1  0.55283238  0.54749159  0.83167299  1
  N  N59  1  0.44573691  0.42373383  0.61201010  1
  N  N60  1  0.22899703  0.89206576  0.31571021  1
  N  N61  1  0.12251180  0.77905296  0.12675222  1
  N  N62  1  0.88747734  0.87161887  0.88314276  1
  N  N63  1  0.78150704  0.74654503  0.56573665  1
  N  N64  1  0.58908732  0.85608048  0.36254753  1
  N  N65  1  0.41599661  0.82186375  0.08780294  1
  N  N66  1  0.22282778  0.87090890  0.83068280  1
  N  N67  1  0.10607349  0.75419229  0.63219052  1
  N  N68  1  0.88612384  0.86111085  0.37675300  1
  N  N69  1  0.73005894  0.78216512  0.07727780  1
  N  N70  1  0.55191090  0.86513447  0.81489963  1
  N  N71  1  0.44149978  0.75165605  0.56611828  1
