# generated using pymatgen
data_Al31B5N36
_symmetry_space_group_name_H-M   'P 1'
_cell_length_a   9.21040285
_cell_length_b   9.32308447
_cell_length_c   9.90096383
_cell_angle_alpha   90.42783427
_cell_angle_beta   89.95144624
_cell_angle_gamma   59.95701401
_symmetry_Int_Tables_number   1
_chemical_formula_structural   Al31B5N36
_chemical_formula_sum   'Al31 B5 N36'
_cell_volume   735.93569619
_cell_formula_units_Z   1
loop_
 _symmetry_equiv_pos_site_id
 _symmetry_equiv_pos_as_xyz
  1  'x, y, z'
loop_
 _atom_site_type_symbol
 _atom_site_label
 _atom_site_symmetry_multiplicity
 _atom_site_fract_x
 _atom_site_fract_y
 _atom_site_fract_z
 _atom_site_occupancy
  B  B0  1  0.11048288  0.09360882  0.40267987  1
  B  B1  1  0.58601451  0.47706590  0.16964968  1
  B  B2  1  0.24539059  0.91465212  0.17219396  1
  B  B3  1  0.55698127  0.87127264  0.16214259  1
  B  B4  1  0.77765836  0.75861701  0.39962229  1
  Al  Al5  1  0.23507353  0.19716409  0.09120520  1
  Al  Al6  1  0.77545022  0.09278373  0.83016916  1
  Al  Al7  1  0.89518575  0.20655264  0.64288531  1
  Al  Al8  1  0.44569131  0.08871969  0.33287893  1
  Al  Al9  1  0.56935252  0.19002325  0.08594255  1
  Al  Al10  1  0.11251990  0.08385078  0.90461275  1
  Al  Al11  1  0.22346510  0.20096887  0.57469584  1
  Al  Al12  1  0.78050089  0.08572739  0.34605732  1
  Al  Al13  1  0.90451213  0.19600130  0.16086493  1
  Al  Al14  1  0.43944073  0.09907697  0.82910132  1
  Al  Al15  1  0.55669934  0.20085107  0.58126934  1
  Al  Al16  1  0.10299813  0.43781227  0.39356436  1
  Al  Al17  1  0.22593068  0.54449010  0.15172413  1
  Al  Al18  1  0.77360313  0.42887121  0.90587957  1
  Al  Al19  1  0.88575664  0.54261071  0.64803928  1
  Al  Al20  1  0.44339459  0.43152190  0.39905145  1
  Al  Al21  1  0.10581335  0.43497823  0.90423245  1
  Al  Al22  1  0.22347829  0.53810837  0.65153594  1
  Al  Al23  1  0.78547866  0.42642810  0.40120264  1
  Al  Al24  1  0.86916714  0.55191739  0.15724516  1
  Al  Al25  1  0.44665789  0.43584760  0.90527709  1
  Al  Al26  1  0.55334863  0.54388833  0.65386103  1
  Al  Al27  1  0.10931973  0.76677127  0.39160708  1
  Al  Al28  1  0.76627209  0.76660678  0.90335899  1
  Al  Al29  1  0.89092025  0.86161100  0.63781998  1
  Al  Al30  1  0.45238101  0.75798014  0.37658734  1
  Al  Al31  1  0.10902240  0.76237984  0.90594009  1
  Al  Al32  1  0.22558241  0.86765598  0.64393373  1
  Al  Al33  1  0.88600669  0.85867479  0.15316457  1
  Al  Al34  1  0.43910865  0.77322962  0.92026508  1
  Al  Al35  1  0.55614402  0.86360480  0.63882548  1
  N  N36  1  0.21187753  0.19539818  0.37803703  1
  N  N37  1  0.12411556  0.07296643  0.10009256  1
  N  N38  1  0.89349893  0.20833392  0.84204301  1
  N  N39  1  0.77699524  0.09316111  0.63210038  1
  N  N40  1  0.55484652  0.20053599  0.39049602  1
  N  N41  1  0.45935667  0.07876098  0.14323564  1
  N  N42  1  0.22350350  0.20419595  0.89262296  1
  N  N43  1  0.11094617  0.08170997  0.56863182  1
  N  N44  1  0.91846411  0.19387947  0.35409874  1
  N  N45  1  0.78345822  0.08909888  0.14770500  1
  N  N46  1  0.55706517  0.20207215  0.89349537  1
  N  N47  1  0.43978736  0.09800715  0.63588895  1
  N  N48  1  0.22473957  0.54043075  0.34039725  1
  N  N49  1  0.10310058  0.43311024  0.10125010  1
  N  N50  1  0.88369852  0.54198349  0.84368065  1
  N  N51  1  0.77650794  0.42854231  0.59075434  1
  N  N52  1  0.56651757  0.52199227  0.31894437  1
  N  N53  1  0.46482320  0.43361612  0.10336467  1
  N  N54  1  0.22515760  0.53690832  0.84432474  1
  N  N55  1  0.10864978  0.43159595  0.58978273  1
  N  N56  1  0.87359411  0.56392308  0.34758080  1
  N  N57  1  0.75836137  0.42665994  0.10478002  1
  N  N58  1  0.55191652  0.54929428  0.84684541  1
  N  N59  1  0.44536606  0.43288837  0.59254609  1
  N  N60  1  0.21457711  0.90289844  0.32722087  1
  N  N61  1  0.10469321  0.75767630  0.09248071  1
  N  N62  1  0.88908509  0.86168678  0.83631063  1
  N  N63  1  0.77434442  0.75943522  0.56579965  1
  N  N64  1  0.58584214  0.85261750  0.33323331  1
  N  N65  1  0.42339526  0.81719738  0.11490725  1
  N  N66  1  0.22322182  0.86941489  0.83685706  1
  N  N67  1  0.11500725  0.75742086  0.58392599  1
  N  N68  1  0.87914557  0.85098739  0.34994960  1
  N  N69  1  0.74101091  0.77491333  0.09482934  1
  N  N70  1  0.55320432  0.86662318  0.83243214  1
  N  N71  1  0.44573155  0.75521449  0.57242336  1
