# generated using pymatgen
data_Al31B5N36
_symmetry_space_group_name_H-M   'P 1'
_cell_length_a   9.11487400
_cell_length_b   9.22208411
_cell_length_c   10.20533903
_cell_angle_alpha   90.28288251
_cell_angle_beta   89.70523719
_cell_angle_gamma   60.32733724
_symmetry_Int_Tables_number   1
_chemical_formula_structural   Al31B5N36
_chemical_formula_sum   'Al31 B5 N36'
_cell_volume   745.31358022
_cell_formula_units_Z   1
loop_
 _symmetry_equiv_pos_site_id
 _symmetry_equiv_pos_as_xyz
  1  'x, y, z'
loop_
 _atom_site_type_symbol
 _atom_site_label
 _atom_site_symmetry_multiplicity
 _atom_site_fract_x
 _atom_site_fract_y
 _atom_site_fract_z
 _atom_site_occupancy
  B  B0  1  0.11651792  0.08994911  0.30739288  1
  B  B1  1  0.58914598  0.48387262  0.15518823  1
  B  B2  1  0.23303518  0.88798614  0.12359061  1
  B  B3  1  0.53956088  0.88602597  0.09585330  1
  B  B4  1  0.77694592  0.76497122  0.35564046  1
  Al  Al5  1  0.22415615  0.20118741  0.06766174  1
  Al  Al6  1  0.78210331  0.08817550  0.80940602  1
  Al  Al7  1  0.90101201  0.19035929  0.55084263  1
  Al  Al8  1  0.45340857  0.08097899  0.31368775  1
  Al  Al9  1  0.56199416  0.19577489  0.05878447  1
  Al  Al10  1  0.10972769  0.09706486  0.81123078  1
  Al  Al11  1  0.22051568  0.20196740  0.55221859  1
  Al  Al12  1  0.78423185  0.08396944  0.30977833  1
  Al  Al13  1  0.89953711  0.18741004  0.07130688  1
  Al  Al14  1  0.43861685  0.09717379  0.80779014  1
  Al  Al15  1  0.55768279  0.20285912  0.55889492  1
  Al  Al16  1  0.10701734  0.43351858  0.30802301  1
  Al  Al17  1  0.23308573  0.54995017  0.06115972  1
  Al  Al18  1  0.76441640  0.42591389  0.89133148  1
  Al  Al19  1  0.89296585  0.54104258  0.56225146  1
  Al  Al20  1  0.44355927  0.42254450  0.31103593  1
  Al  Al21  1  0.10843154  0.42396614  0.81387682  1
  Al  Al22  1  0.22570811  0.53508518  0.55894691  1
  Al  Al23  1  0.78189204  0.42874618  0.36942114  1
  Al  Al24  1  0.86983915  0.55708452  0.06958695  1
  Al  Al25  1  0.44183482  0.42123432  0.81082583  1
  Al  Al26  1  0.56396741  0.53751575  0.63419035  1
  Al  Al27  1  0.11502506  0.76858445  0.31039538  1
  Al  Al28  1  0.77696562  0.75503525  0.82120784  1
  Al  Al29  1  0.88983727  0.86539037  0.56052339  1
  Al  Al30  1  0.45156240  0.76402093  0.37550390  1
  Al  Al31  1  0.10982000  0.75420371  0.80875641  1
  Al  Al32  1  0.23058096  0.86602330  0.62244449  1
  Al  Al33  1  0.88282622  0.87239965  0.05880813  1
  Al  Al34  1  0.43746828  0.76676585  0.89123148  1
  Al  Al35  1  0.55587664  0.86526054  0.61946476  1
  N  N36  1  0.21105844  0.19724299  0.36088865  1
  N  N37  1  0.12022856  0.08286332  0.14200594  1
  N  N38  1  0.89320780  0.19446868  0.88262114  1
  N  N39  1  0.78219142  0.08913067  0.61985384  1
  N  N40  1  0.55891032  0.20507156  0.37194506  1
  N  N41  1  0.45366322  0.07783342  0.12314818  1
  N  N42  1  0.22055928  0.20497444  0.88058342  1
  N  N43  1  0.10992595  0.09930824  0.62426888  1
  N  N44  1  0.91970456  0.18452130  0.35851341  1
  N  N45  1  0.77918949  0.08742778  0.12633608  1
  N  N46  1  0.55719296  0.20123932  0.87306705  1
  N  N47  1  0.43958044  0.09947290  0.61707296  1
  N  N48  1  0.22448360  0.54226397  0.37072949  1
  N  N49  1  0.10769946  0.43906184  0.12277867  1
  N  N50  1  0.88906738  0.53402510  0.87989450  1
  N  N51  1  0.77614943  0.42270606  0.55826729  1
  N  N52  1  0.56459110  0.53912713  0.29783235  1
  N  N53  1  0.46411180  0.42318817  0.12092031  1
  N  N54  1  0.22208524  0.53666312  0.87584755  1
  N  N55  1  0.11375634  0.42209111  0.62181417  1
  N  N56  1  0.87929188  0.57173993  0.36674230  1
  N  N57  1  0.75351440  0.42981815  0.08800912  1
  N  N58  1  0.55474739  0.54308076  0.82264887  1
  N  N59  1  0.44489171  0.42066744  0.62232074  1
  N  N60  1  0.21805685  0.89925537  0.34208596  1
  N  N61  1  0.13153970  0.77895602  0.11927549  1
  N  N62  1  0.89031004  0.86924768  0.87355894  1
  N  N63  1  0.78946704  0.75135661  0.63036512  1
  N  N64  1  0.59287941  0.85830342  0.36353521  1
  N  N65  1  0.41534658  0.81776216  0.07648430  1
  N  N66  1  0.22708628  0.86700136  0.81703142  1
  N  N67  1  0.10950798  0.75293900  0.61832328  1
  N  N68  1  0.88117041  0.85694702  0.36805016  1
  N  N69  1  0.72781939  0.78693404  0.08660116  1
  N  N70  1  0.54561850  0.86957593  0.81475202  1
  N  N71  1  0.45050557  0.74742103  0.56112839  1
