# generated using pymatgen
data_Al31B5N36
_symmetry_space_group_name_H-M   'P 1'
_cell_length_a   9.14187164
_cell_length_b   9.18537282
_cell_length_c   10.35925526
_cell_angle_alpha   91.44070965
_cell_angle_beta   90.83976319
_cell_angle_gamma   60.22252808
_symmetry_Int_Tables_number   1
_chemical_formula_structural   Al31B5N36
_chemical_formula_sum   'Al31 B5 N36'
_cell_volume   754.78260009
_cell_formula_units_Z   1
loop_
 _symmetry_equiv_pos_site_id
 _symmetry_equiv_pos_as_xyz
  1  'x, y, z'
loop_
 _atom_site_type_symbol
 _atom_site_label
 _atom_site_symmetry_multiplicity
 _atom_site_fract_x
 _atom_site_fract_y
 _atom_site_fract_z
 _atom_site_occupancy
  B  B0  1  0.11864276  0.08555095  0.36144020  1
  B  B1  1  0.58547518  0.47887112  0.16966391  1
  B  B2  1  0.22784083  0.89004747  0.10096235  1
  B  B3  1  0.53755862  0.88309076  0.10772160  1
  B  B4  1  0.77205030  0.76278570  0.36815286  1
  Al  Al5  1  0.22752410  0.19457859  0.07841313  1
  Al  Al6  1  0.77427418  0.08764990  0.82992310  1
  Al  Al7  1  0.88464103  0.21071234  0.65286191  1
  Al  Al8  1  0.45082535  0.07759495  0.32789004  1
  Al  Al9  1  0.56342041  0.19057676  0.08278222  1
  Al  Al10  1  0.11508533  0.09702323  0.83988813  1
  Al  Al11  1  0.22225253  0.19621668  0.57059439  1
  Al  Al12  1  0.78166826  0.07783134  0.33191608  1
  Al  Al13  1  0.90358181  0.19349214  0.15346375  1
  Al  Al14  1  0.43663998  0.10673753  0.82214283  1
  Al  Al15  1  0.55791324  0.19835936  0.57356752  1
  Al  Al16  1  0.10293626  0.43975274  0.39344149  1
  Al  Al17  1  0.23021779  0.55400424  0.15403817  1
  Al  Al18  1  0.77306545  0.42711992  0.91098933  1
  Al  Al19  1  0.89855247  0.52370164  0.65383837  1
  Al  Al20  1  0.44441108  0.43173682  0.39798094  1
  Al  Al21  1  0.10623220  0.43901715  0.90821009  1
  Al  Al22  1  0.22384623  0.53712646  0.65054455  1
  Al  Al23  1  0.78679367  0.42514995  0.39794890  1
  Al  Al24  1  0.86082671  0.56190472  0.15284051  1
  Al  Al25  1  0.44811904  0.43528303  0.90678419  1
  Al  Al26  1  0.55693966  0.53884170  0.65256361  1
  Al  Al27  1  0.11485781  0.76626162  0.40100584  1
  Al  Al28  1  0.77597938  0.76096456  0.83948710  1
  Al  Al29  1  0.88290348  0.86551264  0.58057238  1
  Al  Al30  1  0.44849320  0.76289096  0.39357693  1
  Al  Al31  1  0.12344265  0.76127980  0.89965684  1
  Al  Al32  1  0.22717698  0.86627178  0.64462415  1
  Al  Al33  1  0.87864262  0.87324900  0.07647418  1
  Al  Al34  1  0.44508242  0.76825680  0.90101500  1
  Al  Al35  1  0.55574953  0.86676299  0.63909954  1
  N  N36  1  0.21254497  0.18664367  0.37984287  1
  N  N37  1  0.11942881  0.07189393  0.09603301  1
  N  N38  1  0.88120162  0.21232959  0.84382072  1
  N  N39  1  0.77386473  0.08663106  0.64181703  1
  N  N40  1  0.55810248  0.19727000  0.38809753  1
  N  N41  1  0.45228292  0.07562044  0.14165452  1
  N  N42  1  0.22747040  0.20742135  0.89620430  1
  N  N43  1  0.11448649  0.09951525  0.64580153  1
  N  N44  1  0.92399177  0.18893616  0.34440170  1
  N  N45  1  0.77824742  0.08534149  0.14996636  1
  N  N46  1  0.55771315  0.20045657  0.89891713  1
  N  N47  1  0.43813426  0.10408124  0.63629181  1
  N  N48  1  0.22426643  0.54324134  0.33522462  1
  N  N49  1  0.09897622  0.44874368  0.09611093  1
  N  N50  1  0.89178003  0.52556863  0.84244540  1
  N  N51  1  0.77757106  0.42416394  0.58163901  1
  N  N52  1  0.56577292  0.52387681  0.31531922  1
  N  N53  1  0.46398448  0.43479271  0.10161811  1
  N  N54  1  0.22626117  0.53603558  0.83948661  1
  N  N55  1  0.11076170  0.43098512  0.57877739  1
  N  N56  1  0.87202240  0.56907147  0.34136113  1
  N  N57  1  0.75657352  0.42716787  0.10496367  1
  N  N58  1  0.55662701  0.54138382  0.83951352  1
  N  N59  1  0.44388355  0.43303223  0.58465458  1
  N  N60  1  0.21016838  0.90214889  0.36455693  1
  N  N61  1  0.13970409  0.77570686  0.08872475  1
  N  N62  1  0.88979578  0.87178783  0.89443784  1
  N  N63  1  0.78791738  0.75298469  0.64727142  1
  N  N64  1  0.58906675  0.85366989  0.37516362  1
  N  N65  1  0.41970977  0.81297496  0.08296485  1
  N  N66  1  0.22952824  0.86317572  0.82991759  1
  N  N67  1  0.11595209  0.75573929  0.58578681  1
  N  N68  1  0.87393803  0.85415119  0.38876287  1
  N  N69  1  0.72734934  0.78220668  0.09482982  1
  N  N70  1  0.54533005  0.87597397  0.82901604  1
  N  N71  1  0.44819331  0.75137900  0.57939604  1
