# generated using pymatgen
data_Al31B5N36
_symmetry_space_group_name_H-M   'P 1'
_cell_length_a   9.10583661
_cell_length_b   9.20485077
_cell_length_c   10.29005799
_cell_angle_alpha   90.30366843
_cell_angle_beta   89.71350868
_cell_angle_gamma   60.41903567
_symmetry_Int_Tables_number   1
_chemical_formula_structural   Al31B5N36
_chemical_formula_sum   'Al31 B5 N36'
_cell_volume   750.03349725
_cell_formula_units_Z   1
loop_
 _symmetry_equiv_pos_site_id
 _symmetry_equiv_pos_as_xyz
  1  'x, y, z'
loop_
 _atom_site_type_symbol
 _atom_site_label
 _atom_site_symmetry_multiplicity
 _atom_site_fract_x
 _atom_site_fract_y
 _atom_site_fract_z
 _atom_site_occupancy
  B  B0  1  0.11919207  0.08609606  0.34760221  1
  B  B1  1  0.58923732  0.48462849  0.15028627  1
  B  B2  1  0.22882184  0.89166166  0.09489376  1
  B  B3  1  0.54043822  0.88240195  0.09118420  1
  B  B4  1  0.77817356  0.76410475  0.35243525  1
  Al  Al5  1  0.22497929  0.19824659  0.05715626  1
  Al  Al6  1  0.77989821  0.08880305  0.80455665  1
  Al  Al7  1  0.89839824  0.19303355  0.55527331  1
  Al  Al8  1  0.45407987  0.07830393  0.30937569  1
  Al  Al9  1  0.56135425  0.19463994  0.05577999  1
  Al  Al10  1  0.10977974  0.09726381  0.81281985  1
  Al  Al11  1  0.22135288  0.20372196  0.55568585  1
  Al  Al12  1  0.78624843  0.08282379  0.30596842  1
  Al  Al13  1  0.89743295  0.18605141  0.05898955  1
  Al  Al14  1  0.43979223  0.09810054  0.80286197  1
  Al  Al15  1  0.55758225  0.20322820  0.55393804  1
  Al  Al16  1  0.10664824  0.43198496  0.30436609  1
  Al  Al17  1  0.23345227  0.54821338  0.05767589  1
  Al  Al18  1  0.76271044  0.42847455  0.88589469  1
  Al  Al19  1  0.89324194  0.54208225  0.55876114  1
  Al  Al20  1  0.44409129  0.42167440  0.30594947  1
  Al  Al21  1  0.10837172  0.42639959  0.80905763  1
  Al  Al22  1  0.22611429  0.53654224  0.55468576  1
  Al  Al23  1  0.78229070  0.42844948  0.36840304  1
  Al  Al24  1  0.87071013  0.55537830  0.06488276  1
  Al  Al25  1  0.44146882  0.42149249  0.80725850  1
  Al  Al26  1  0.56297582  0.53837482  0.63124661  1
  Al  Al27  1  0.11603172  0.76980878  0.30578142  1
  Al  Al28  1  0.77830450  0.75560913  0.81709688  1
  Al  Al29  1  0.89100081  0.86539268  0.55646027  1
  Al  Al30  1  0.45270829  0.76300088  0.37435719  1
  Al  Al31  1  0.11019042  0.75491644  0.80523989  1
  Al  Al32  1  0.23045516  0.86764838  0.62002147  1
  Al  Al33  1  0.88332579  0.87195017  0.05529224  1
  Al  Al34  1  0.43987744  0.76604646  0.88553691  1
  Al  Al35  1  0.55689649  0.86504588  0.61741981  1
  N  N36  1  0.21045325  0.19314692  0.36437904  1
  N  N37  1  0.12306482  0.07150023  0.09407891  1
  N  N38  1  0.88711511  0.19922890  0.87199249  1
  N  N39  1  0.78064640  0.08877007  0.61646244  1
  N  N40  1  0.55949078  0.20412332  0.36787922  1
  N  N41  1  0.45233878  0.07591101  0.12020585  1
  N  N42  1  0.22258115  0.20850867  0.87191516  1
  N  N43  1  0.10906872  0.10144945  0.62493081  1
  N  N44  1  0.92359360  0.18217793  0.36161055  1
  N  N45  1  0.77894164  0.08763528  0.12357735  1
  N  N46  1  0.55680450  0.20184234  0.87078105  1
  N  N47  1  0.44150762  0.09900973  0.61385550  1
  N  N48  1  0.22511381  0.54144345  0.36699809  1
  N  N49  1  0.10883163  0.43508675  0.11994975  1
  N  N50  1  0.88954066  0.53502674  0.87626239  1
  N  N51  1  0.77492342  0.42456550  0.55534391  1
  N  N52  1  0.56653287  0.53769231  0.29382988  1
  N  N53  1  0.46401416  0.42247437  0.11793432  1
  N  N54  1  0.22216829  0.53798523  0.87316117  1
  N  N55  1  0.11332478  0.42482078  0.61864688  1
  N  N56  1  0.88050949  0.57058747  0.36469265  1
  N  N57  1  0.75312106  0.42913720  0.08201565  1
  N  N58  1  0.55400511  0.54418594  0.81723764  1
  N  N59  1  0.44468548  0.42041334  0.61920445  1
  N  N60  1  0.21354194  0.90309909  0.35490863  1
  N  N61  1  0.13298841  0.77705595  0.11576701  1
  N  N62  1  0.89074404  0.87050266  0.87069548  1
  N  N63  1  0.79028157  0.75191230  0.62705177  1
  N  N64  1  0.59421981  0.85673732  0.35978739  1
  N  N65  1  0.42063427  0.81016454  0.07008880  1
  N  N66  1  0.22885434  0.86660078  0.81288266  1
  N  N67  1  0.10972747  0.75356386  0.61601419  1
  N  N68  1  0.88248649  0.85634661  0.36480525  1
  N  N69  1  0.72913776  0.78563848  0.08328130  1
  N  N70  1  0.54707102  0.87019355  0.81021800  1
  N  N71  1  0.45112148  0.74789054  0.55858814  1
