# generated using pymatgen
data_Al31B5N36
_symmetry_space_group_name_H-M   'P 1'
_cell_length_a   9.14841450
_cell_length_b   9.24665666
_cell_length_c   10.16954803
_cell_angle_alpha   90.75416495
_cell_angle_beta   89.67125612
_cell_angle_gamma   60.20494021
_symmetry_Int_Tables_number   1
_chemical_formula_structural   Al31B5N36
_chemical_formula_sum   'Al31 B5 N36'
_cell_volume   746.40564487
_cell_formula_units_Z   1
loop_
 _symmetry_equiv_pos_site_id
 _symmetry_equiv_pos_as_xyz
  1  'x, y, z'
loop_
 _atom_site_type_symbol
 _atom_site_label
 _atom_site_symmetry_multiplicity
 _atom_site_fract_x
 _atom_site_fract_y
 _atom_site_fract_z
 _atom_site_occupancy
  B  B0  1  0.11541140  0.09754684  0.31007685  1
  B  B1  1  0.59181025  0.48333314  0.16549227  1
  B  B2  1  0.23497096  0.89259832  0.15697398  1
  B  B3  1  0.53631695  0.88688032  0.10984373  1
  B  B4  1  0.77426744  0.75743242  0.40306327  1
  Al  Al5  1  0.22786159  0.19574029  0.08270447  1
  Al  Al6  1  0.77995442  0.09073736  0.81904424  1
  Al  Al7  1  0.89995302  0.19151222  0.56337895  1
  Al  Al8  1  0.45830575  0.07685156  0.32169989  1
  Al  Al9  1  0.56309139  0.19658201  0.06743712  1
  Al  Al10  1  0.10624547  0.10161616  0.82182858  1
  Al  Al11  1  0.22281816  0.19519728  0.55684795  1
  Al  Al12  1  0.78723827  0.08443832  0.32024416  1
  Al  Al13  1  0.89650456  0.19466795  0.07886911  1
  Al  Al14  1  0.43775453  0.09722937  0.81314333  1
  Al  Al15  1  0.55667331  0.20266934  0.56837588  1
  Al  Al16  1  0.10590687  0.43082008  0.36379157  1
  Al  Al17  1  0.23547334  0.55249002  0.07572281  1
  Al  Al18  1  0.76247047  0.43621523  0.90004631  1
  Al  Al19  1  0.89311096  0.53208854  0.63911828  1
  Al  Al20  1  0.44718563  0.42029134  0.32022363  1
  Al  Al21  1  0.10186930  0.43082594  0.89779606  1
  Al  Al22  1  0.22541484  0.53732229  0.56507982  1
  Al  Al23  1  0.78600711  0.43121976  0.38890212  1
  Al  Al24  1  0.85934234  0.56588716  0.15118716  1
  Al  Al25  1  0.44025215  0.42228715  0.82057639  1
  Al  Al26  1  0.55777991  0.54095531  0.64316838  1
  Al  Al27  1  0.11094120  0.76711597  0.31451289  1
  Al  Al28  1  0.75999269  0.76386402  0.88761480  1
  Al  Al29  1  0.89285344  0.86729777  0.56455967  1
  Al  Al30  1  0.45406172  0.76163640  0.37908708  1
  Al  Al31  1  0.10623648  0.75466903  0.82134373  1
  Al  Al32  1  0.22963879  0.86432613  0.64158930  1
  Al  Al33  1  0.89218649  0.87491884  0.07154156  1
  Al  Al34  1  0.43248550  0.77134314  0.90266369  1
  Al  Al35  1  0.55722408  0.86317703  0.62046647  1
  N  N36  1  0.21731596  0.18749250  0.36405405  1
  N  N37  1  0.11308140  0.09187141  0.15024239  1
  N  N38  1  0.88833159  0.20219803  0.89057865  1
  N  N39  1  0.78101267  0.08940342  0.63044868  1
  N  N40  1  0.55987791  0.20390269  0.38128033  1
  N  N41  1  0.45786514  0.07755701  0.13150673  1
  N  N42  1  0.22372559  0.19950772  0.89310139  1
  N  N43  1  0.11086419  0.09701345  0.63352731  1
  N  N44  1  0.92300732  0.18524218  0.37134871  1
  N  N45  1  0.77938264  0.09190796  0.13520855  1
  N  N46  1  0.55470540  0.20181677  0.88125067  1
  N  N47  1  0.43912148  0.09825415  0.62440732  1
  N  N48  1  0.22816197  0.54585355  0.37445504  1
  N  N49  1  0.10165537  0.44029645  0.10369778  1
  N  N50  1  0.88447631  0.53695029  0.83215926  1
  N  N51  1  0.77538576  0.42557156  0.57507533  1
  N  N52  1  0.57075260  0.53269207  0.31005604  1
  N  N53  1  0.46682408  0.42368482  0.12991084  1
  N  N54  1  0.22381551  0.54057417  0.88861780  1
  N  N55  1  0.10994464  0.42272862  0.57542156  1
  N  N56  1  0.87379819  0.56932119  0.33591875  1
  N  N57  1  0.75292438  0.43846511  0.09514049  1
  N  N58  1  0.54981707  0.54731720  0.83359307  1
  N  N59  1  0.44218951  0.42163175  0.63182950  1
  N  N60  1  0.22927243  0.89248489  0.31633374  1
  N  N61  1  0.12404251  0.77772336  0.12762587  1
  N  N62  1  0.88651960  0.87220977  0.88368496  1
  N  N63  1  0.78154964  0.74625437  0.56595640  1
  N  N64  1  0.58932156  0.85680785  0.36327271  1
  N  N65  1  0.41668347  0.82117987  0.08863252  1
  N  N66  1  0.22181009  0.87077500  0.83093358  1
  N  N67  1  0.10704672  0.75268303  0.63155987  1
  N  N68  1  0.88621810  0.86178964  0.37718274  1
  N  N69  1  0.73056980  0.78250730  0.07808224  1
  N  N70  1  0.55094949  0.86479054  0.81518186  1
  N  N71  1  0.44165230  0.75039475  0.56631021  1
