# generated using pymatgen
data_Al31B5N36
_symmetry_space_group_name_H-M   'P 1'
_cell_length_a   9.19459053
_cell_length_b   9.30690907
_cell_length_c   10.14459959
_cell_angle_alpha   90.40749862
_cell_angle_beta   89.75700130
_cell_angle_gamma   59.88966303
_symmetry_Int_Tables_number   1
_chemical_formula_structural   Al31B5N36
_chemical_formula_sum   'Al31 B5 N36'
_cell_volume   750.91501592
_cell_formula_units_Z   1
loop_
 _symmetry_equiv_pos_site_id
 _symmetry_equiv_pos_as_xyz
  1  'x, y, z'
loop_
 _atom_site_type_symbol
 _atom_site_label
 _atom_site_symmetry_multiplicity
 _atom_site_fract_x
 _atom_site_fract_y
 _atom_site_fract_z
 _atom_site_occupancy
  B  B0  1  0.11153307  0.10346471  0.30467575  1
  B  B1  1  0.58999240  0.47933072  0.15725659  1
  B  B2  1  0.25710649  0.91605272  0.15803274  1
  B  B3  1  0.54314183  0.89008074  0.09565138  1
  B  B4  1  0.77878902  0.76271640  0.35291034  1
  Al  Al5  1  0.22952203  0.20082870  0.06450092  1
  Al  Al6  1  0.78153270  0.09040772  0.80950463  1
  Al  Al7  1  0.90223252  0.18990760  0.55265154  1
  Al  Al8  1  0.45655999  0.08073078  0.31576089  1
  Al  Al9  1  0.56399706  0.19764932  0.05984953  1
  Al  Al10  1  0.10869481  0.09818418  0.81376801  1
  Al  Al11  1  0.22187696  0.20002195  0.55415734  1
  Al  Al12  1  0.78620625  0.08244135  0.31066758  1
  Al  Al13  1  0.90038270  0.18604772  0.07027175  1
  Al  Al14  1  0.44035356  0.09699577  0.80629728  1
  Al  Al15  1  0.55881736  0.20365267  0.55957484  1
  Al  Al16  1  0.10902488  0.43151327  0.30691434  1
  Al  Al17  1  0.22516757  0.54137173  0.06148433  1
  Al  Al18  1  0.76315737  0.43037053  0.89405205  1
  Al  Al19  1  0.89162982  0.53448148  0.59868420  1
  Al  Al20  1  0.44334931  0.42194310  0.31314882  1
  Al  Al21  1  0.11199244  0.42195055  0.81863580  1
  Al  Al22  1  0.22477538  0.53564009  0.56105834  1
  Al  Al23  1  0.78646258  0.43205691  0.37039412  1
  Al  Al24  1  0.86896615  0.55717745  0.08945530  1
  Al  Al25  1  0.44255068  0.42289865  0.81250639  1
  Al  Al26  1  0.55998719  0.54091828  0.63438618  1
  Al  Al27  1  0.10825734  0.76003084  0.29890061  1
  Al  Al28  1  0.77020913  0.76013099  0.82923821  1
  Al  Al29  1  0.89023037  0.86410490  0.56283006  1
  Al  Al30  1  0.45855031  0.75846813  0.37141772  1
  Al  Al31  1  0.10676041  0.75469815  0.81608371  1
  Al  Al32  1  0.23149496  0.86284485  0.63414173  1
  Al  Al33  1  0.87831038  0.86924102  0.05800459  1
  Al  Al34  1  0.43362839  0.77213384  0.89754707  1
  Al  Al35  1  0.55489154  0.86595749  0.61544065  1
  N  N36  1  0.21134251  0.19524657  0.36306164  1
  N  N37  1  0.11935694  0.09571274  0.14214069  1
  N  N38  1  0.89127492  0.19786283  0.88183232  1
  N  N39  1  0.78327561  0.09040945  0.61908823  1
  N  N40  1  0.56051940  0.20430066  0.37212538  1
  N  N41  1  0.45740227  0.08069099  0.12417018  1
  N  N42  1  0.22306631  0.20213852  0.87855714  1
  N  N43  1  0.11271268  0.09573465  0.62446178  1
  N  N44  1  0.92305328  0.18379824  0.36000825  1
  N  N45  1  0.78141751  0.08704997  0.12617999  1
  N  N46  1  0.55654508  0.20232895  0.87251647  1
  N  N47  1  0.44181370  0.09977214  0.61493753  1
  N  N48  1  0.22424549  0.53955896  0.37272371  1
  N  N49  1  0.11271927  0.42429112  0.12071415  1
  N  N50  1  0.88809619  0.53331306  0.87123900  1
  N  N51  1  0.77680292  0.42487111  0.56061380  1
  N  N52  1  0.56719566  0.53375466  0.30100082  1
  N  N53  1  0.46297000  0.42441425  0.12189343  1
  N  N54  1  0.22314991  0.53400336  0.87495133  1
  N  N55  1  0.11847797  0.41870561  0.62455533  1
  N  N56  1  0.87610444  0.57346574  0.34038026  1
  N  N57  1  0.75250902  0.42977799  0.08944813  1
  N  N58  1  0.55153966  0.54733440  0.82535439  1
  N  N59  1  0.44594519  0.42193778  0.62214261  1
  N  N60  1  0.23212027  0.89162983  0.30438164  1
  N  N61  1  0.09367581  0.75213109  0.12015366  1
  N  N62  1  0.88473720  0.87361378  0.87101494  1
  N  N63  1  0.78699198  0.75373808  0.63100055  1
  N  N64  1  0.59403521  0.85713950  0.36454061  1
  N  N65  1  0.41869725  0.82926143  0.08322217  1
  N  N66  1  0.22290435  0.86817895  0.82451324  1
  N  N67  1  0.11002421  0.75316215  0.62147898  1
  N  N68  1  0.88016095  0.85726975  0.37160410  1
  N  N69  1  0.72553340  0.78775997  0.07750786  1
  N  N70  1  0.53991989  0.87061032  0.81263585  1
  N  N71  1  0.44422299  0.75127896  0.55814819  1
