# generated using pymatgen
data_Al31B5N36
_symmetry_space_group_name_H-M   'P 1'
_cell_length_a   9.17371327
_cell_length_b   9.28239561
_cell_length_c   10.19217726
_cell_angle_alpha   90.67052162
_cell_angle_beta   89.60572770
_cell_angle_gamma   59.93825642
_symmetry_Int_Tables_number   1
_chemical_formula_structural   Al31B5N36
_chemical_formula_sum   'Al31 B5 N36'
_cell_volume   751.02685276
_cell_formula_units_Z   1
loop_
 _symmetry_equiv_pos_site_id
 _symmetry_equiv_pos_as_xyz
  1  'x, y, z'
loop_
 _atom_site_type_symbol
 _atom_site_label
 _atom_site_symmetry_multiplicity
 _atom_site_fract_x
 _atom_site_fract_y
 _atom_site_fract_z
 _atom_site_occupancy
  B  B0  1  0.11197443  0.10394181  0.30608188  1
  B  B1  1  0.59123123  0.47999242  0.15871988  1
  B  B2  1  0.25575338  0.91572629  0.15811040  1
  B  B3  1  0.54041714  0.89050733  0.09842544  1
  B  B4  1  0.77688769  0.76187225  0.38408278  1
  Al  Al5  1  0.22837960  0.20210212  0.06509306  1
  Al  Al6  1  0.78147368  0.08975775  0.81044317  1
  Al  Al7  1  0.90155156  0.19063661  0.55466616  1
  Al  Al8  1  0.45731291  0.08010188  0.31445921  1
  Al  Al9  1  0.56441100  0.19868406  0.06012698  1
  Al  Al10  1  0.10745852  0.09888706  0.81385594  1
  Al  Al11  1  0.22219473  0.19969233  0.55447644  1
  Al  Al12  1  0.78732956  0.08341924  0.31184882  1
  Al  Al13  1  0.90022379  0.18951675  0.07130563  1
  Al  Al14  1  0.44158716  0.09580452  0.80583955  1
  Al  Al15  1  0.55876390  0.20239670  0.56054312  1
  Al  Al16  1  0.11262496  0.42865401  0.31046326  1
  Al  Al17  1  0.22502798  0.54081857  0.06289936  1
  Al  Al18  1  0.76454954  0.43352838  0.89451280  1
  Al  Al19  1  0.88526879  0.53507058  0.63435963  1
  Al  Al20  1  0.44454135  0.42204699  0.31445351  1
  Al  Al21  1  0.11731051  0.41903020  0.81545929  1
  Al  Al22  1  0.22344405  0.53455100  0.56138134  1
  Al  Al23  1  0.78779732  0.43344162  0.37928229  1
  Al  Al24  1  0.85942755  0.56503946  0.13816843  1
  Al  Al25  1  0.44253797  0.42235620  0.81320653  1
  Al  Al26  1  0.55901895  0.54049418  0.63505407  1
  Al  Al27  1  0.10820780  0.76174633  0.30039916  1
  Al  Al28  1  0.76161724  0.76067407  0.87445149  1
  Al  Al29  1  0.89263292  0.86578242  0.55935183  1
  Al  Al30  1  0.45819150  0.76036798  0.37231142  1
  Al  Al31  1  0.10612037  0.75322637  0.81528053  1
  Al  Al32  1  0.23054227  0.86265118  0.63429633  1
  Al  Al33  1  0.88452611  0.87134849  0.06112819  1
  Al  Al34  1  0.43197720  0.77148501  0.89599100  1
  Al  Al35  1  0.55796984  0.86298627  0.61662862  1
  N  N36  1  0.21303621  0.19447556  0.36368170  1
  N  N37  1  0.11904478  0.09621343  0.14320828  1
  N  N38  1  0.89048273  0.19908904  0.88400484  1
  N  N39  1  0.78290519  0.09016193  0.62189972  1
  N  N40  1  0.56040601  0.20449851  0.37347890  1
  N  N41  1  0.45823787  0.08057848  0.12274841  1
  N  N42  1  0.22337952  0.20141571  0.87963682  1
  N  N43  1  0.11230347  0.09561970  0.62560400  1
  N  N44  1  0.92355943  0.18504536  0.36233292  1
  N  N45  1  0.78138923  0.08930234  0.12718676  1
  N  N46  1  0.55637765  0.20185504  0.87378802  1
  N  N47  1  0.44237955  0.09742777  0.61677388  1
  N  N48  1  0.22442458  0.54068619  0.37378409  1
  N  N49  1  0.11064814  0.42575550  0.12218199  1
  N  N50  1  0.88170822  0.53426661  0.82742768  1
  N  N51  1  0.77748042  0.42520837  0.56461888  1
  N  N52  1  0.57017518  0.53231861  0.30255210  1
  N  N53  1  0.46377855  0.42493678  0.12344896  1
  N  N54  1  0.22241328  0.53391962  0.87712947  1
  N  N55  1  0.12007271  0.41731263  0.62363849  1
  N  N56  1  0.87429404  0.57242745  0.32652484  1
  N  N57  1  0.75328047  0.43511107  0.08881116  1
  N  N58  1  0.55106150  0.54694219  0.82682384  1
  N  N59  1  0.44475432  0.42153711  0.62385736  1
  N  N60  1  0.23285233  0.89220787  0.30416079  1
  N  N61  1  0.09805940  0.75301449  0.12154818  1
  N  N62  1  0.88424695  0.87189952  0.87266267  1
  N  N63  1  0.78272940  0.74737187  0.56988629  1
  N  N64  1  0.59085512  0.85796653  0.35252520  1
  N  N65  1  0.41804881  0.82951459  0.08119980  1
  N  N66  1  0.22194189  0.86859177  0.82417061  1
  N  N67  1  0.10872190  0.75220016  0.62401210  1
  N  N68  1  0.88373711  0.86207652  0.37184723  1
  N  N69  1  0.72832715  0.78233721  0.06606509  1
  N  N70  1  0.54786123  0.86550663  0.80977299  1
  N  N71  1  0.44352353  0.75114517  0.55869192  1
