# generated using pymatgen
data_Al31B5N36
_symmetry_space_group_name_H-M   'P 1'
_cell_length_a   9.14187473
_cell_length_b   9.19971636
_cell_length_c   10.26108730
_cell_angle_alpha   91.34809072
_cell_angle_beta   90.82350904
_cell_angle_gamma   60.26748862
_symmetry_Int_Tables_number   1
_chemical_formula_structural   Al31B5N36
_chemical_formula_sum   'Al31 B5 N36'
_cell_volume   749.16189972
_cell_formula_units_Z   1
loop_
 _symmetry_equiv_pos_site_id
 _symmetry_equiv_pos_as_xyz
  1  'x, y, z'
loop_
 _atom_site_type_symbol
 _atom_site_label
 _atom_site_symmetry_multiplicity
 _atom_site_fract_x
 _atom_site_fract_y
 _atom_site_fract_z
 _atom_site_occupancy
  B  B0  1  0.11957421  0.08866122  0.36118493  1
  B  B1  1  0.58481611  0.47998775  0.17015662  1
  B  B2  1  0.22774883  0.88710291  0.12410210  1
  B  B3  1  0.53829078  0.88198068  0.11295158  1
  B  B4  1  0.77360221  0.76343356  0.36948396  1
  Al  Al5  1  0.22862174  0.19843377  0.08618418  1
  Al  Al6  1  0.77348521  0.08689564  0.83136044  1
  Al  Al7  1  0.89158535  0.20695870  0.65609368  1
  Al  Al8  1  0.45369900  0.07817060  0.33084590  1
  Al  Al9  1  0.56349548  0.19045245  0.08326259  1
  Al  Al10  1  0.10992195  0.08870664  0.88869651  1
  Al  Al11  1  0.22142156  0.19618558  0.57038412  1
  Al  Al12  1  0.78281356  0.07941249  0.33357502  1
  Al  Al13  1  0.90167258  0.19602861  0.15293560  1
  Al  Al14  1  0.43297171  0.10485263  0.82307080  1
  Al  Al15  1  0.55872791  0.19861810  0.57705390  1
  Al  Al16  1  0.10351694  0.44082221  0.39376433  1
  Al  Al17  1  0.23070970  0.55216938  0.15573382  1
  Al  Al18  1  0.77157772  0.42811164  0.91106597  1
  Al  Al19  1  0.89819093  0.52436875  0.65499219  1
  Al  Al20  1  0.44565050  0.43199139  0.40034256  1
  Al  Al21  1  0.10581839  0.43725012  0.90909817  1
  Al  Al22  1  0.22324567  0.53847139  0.65051983  1
  Al  Al23  1  0.78794558  0.42517797  0.40030489  1
  Al  Al24  1  0.86037776  0.56208131  0.15417074  1
  Al  Al25  1  0.44754721  0.43400685  0.90629323  1
  Al  Al26  1  0.55604385  0.54056965  0.65303227  1
  Al  Al27  1  0.11685164  0.76811407  0.39793008  1
  Al  Al28  1  0.77443485  0.76177027  0.84182196  1
  Al  Al29  1  0.88500801  0.86604609  0.58183980  1
  Al  Al30  1  0.45020323  0.76216247  0.38937101  1
  Al  Al31  1  0.12337601  0.75924251  0.90413867  1
  Al  Al32  1  0.22542374  0.87013461  0.65023449  1
  Al  Al33  1  0.87829023  0.87280725  0.08065757  1
  Al  Al34  1  0.44417336  0.76813616  0.90722751  1
  Al  Al35  1  0.55544818  0.86631365  0.63699812  1
  N  N36  1  0.21402175  0.18861052  0.37493399  1
  N  N37  1  0.11718008  0.07209872  0.08716198  1
  N  N38  1  0.88293590  0.21051757  0.84774959  1
  N  N39  1  0.77505296  0.08663662  0.64368901  1
  N  N40  1  0.56000289  0.19826247  0.38976551  1
  N  N41  1  0.45412866  0.07462568  0.14379532  1
  N  N42  1  0.22550548  0.20691454  0.89982586  1
  N  N43  1  0.11159494  0.09258425  0.62013319  1
  N  N44  1  0.92617762  0.19008110  0.34293004  1
  N  N45  1  0.77823094  0.08668116  0.15005116  1
  N  N46  1  0.55556934  0.19984166  0.89815569  1
  N  N47  1  0.43756108  0.10335803  0.63596052  1
  N  N48  1  0.22599777  0.54317640  0.33748969  1
  N  N49  1  0.09883052  0.44825697  0.09945347  1
  N  N50  1  0.89052398  0.52675888  0.84490300  1
  N  N51  1  0.77775802  0.42345182  0.58494928  1
  N  N52  1  0.56687014  0.52387619  0.31674061  1
  N  N53  1  0.46395092  0.43422300  0.10231492  1
  N  N54  1  0.22478495  0.53630354  0.84137026  1
  N  N55  1  0.11102685  0.43056278  0.58019624  1
  N  N56  1  0.87220861  0.57013655  0.34348662  1
  N  N57  1  0.75584118  0.42841803  0.10529300  1
  N  N58  1  0.55462391  0.54291278  0.84151089  1
  N  N59  1  0.44429726  0.43249387  0.58777397  1
  N  N60  1  0.21368925  0.90119827  0.33844207  1
  N  N61  1  0.13738563  0.77494863  0.09518861  1
  N  N62  1  0.88984044  0.87135680  0.89690071  1
  N  N63  1  0.78823353  0.75366243  0.64778136  1
  N  N64  1  0.59066037  0.85437985  0.37788262  1
  N  N65  1  0.42018624  0.81144516  0.09277190  1
  N  N66  1  0.22713535  0.86537624  0.83567900  1
  N  N67  1  0.11834150  0.75675675  0.58477637  1
  N  N68  1  0.87570902  0.85488969  0.38778389  1
  N  N69  1  0.72737033  0.78220235  0.09738624  1
  N  N70  1  0.54382719  0.87444031  0.83058301  1
  N  N71  1  0.44487288  0.75277703  0.57759665  1
