# generated using pymatgen
data_Al31B5N36
_symmetry_space_group_name_H-M   'P 1'
_cell_length_a   9.19385499
_cell_length_b   9.27696493
_cell_length_c   9.90577195
_cell_angle_alpha   90.69461997
_cell_angle_beta   90.20900168
_cell_angle_gamma   60.16929425
_symmetry_Int_Tables_number   1
_chemical_formula_structural   Al31B5N36
_chemical_formula_sum   'Al31 B5 N36'
_cell_volume   732.87062386
_cell_formula_units_Z   1
loop_
 _symmetry_equiv_pos_site_id
 _symmetry_equiv_pos_as_xyz
  1  'x, y, z'
loop_
 _atom_site_type_symbol
 _atom_site_label
 _atom_site_symmetry_multiplicity
 _atom_site_fract_x
 _atom_site_fract_y
 _atom_site_fract_z
 _atom_site_occupancy
  B  B0  1  0.11022782  0.09089999  0.40078499  1
  B  B1  1  0.58506518  0.48157846  0.16849767  1
  B  B2  1  0.22921329  0.89205694  0.16212942  1
  B  B3  1  0.55408038  0.86830940  0.16265733  1
  B  B4  1  0.77268998  0.75559246  0.39778829  1
  Al  Al5  1  0.23252711  0.19690696  0.09388042  1
  Al  Al6  1  0.77984419  0.08562350  0.83209213  1
  Al  Al7  1  0.89422627  0.20583900  0.64393491  1
  Al  Al8  1  0.44497287  0.08817369  0.33231481  1
  Al  Al9  1  0.56794473  0.18907329  0.08400982  1
  Al  Al10  1  0.11112093  0.08607026  0.90418282  1
  Al  Al11  1  0.22165122  0.20109746  0.57407135  1
  Al  Al12  1  0.77840002  0.08804121  0.34155566  1
  Al  Al13  1  0.90445961  0.19785232  0.15957418  1
  Al  Al14  1  0.43822459  0.09996814  0.83013174  1
  Al  Al15  1  0.55474884  0.20091455  0.58369023  1
  Al  Al16  1  0.10277723  0.43764961  0.39403199  1
  Al  Al17  1  0.23376612  0.54546614  0.15336872  1
  Al  Al18  1  0.77416338  0.42864699  0.90526998  1
  Al  Al19  1  0.88501878  0.54240299  0.64947314  1
  Al  Al20  1  0.44459967  0.43041240  0.40094995  1
  Al  Al21  1  0.10545666  0.43724797  0.90504213  1
  Al  Al22  1  0.22129366  0.54001188  0.65421056  1
  Al  Al23  1  0.78485935  0.42584452  0.40136808  1
  Al  Al24  1  0.86902135  0.55282123  0.15782435  1
  Al  Al25  1  0.44897108  0.43477903  0.90469000  1
  Al  Al26  1  0.55293156  0.54414797  0.65368482  1
  Al  Al27  1  0.11514419  0.76454435  0.38904171  1
  Al  Al28  1  0.76671729  0.76694318  0.90661564  1
  Al  Al29  1  0.88602568  0.86783933  0.58868664  1
  Al  Al30  1  0.44848730  0.75918215  0.37520540  1
  Al  Al31  1  0.11744941  0.76531752  0.90993872  1
  Al  Al32  1  0.22485434  0.86841141  0.64362556  1
  Al  Al33  1  0.89129467  0.86382943  0.13586575  1
  Al  Al34  1  0.44232886  0.77174443  0.92024306  1
  Al  Al35  1  0.55373828  0.86387995  0.64048456  1
  N  N36  1  0.21135235  0.19493522  0.37709315  1
  N  N37  1  0.12161948  0.07194034  0.09757933  1
  N  N38  1  0.89291534  0.20877554  0.84014033  1
  N  N39  1  0.77621275  0.08893038  0.63560992  1
  N  N40  1  0.55547803  0.19911100  0.39269377  1
  N  N41  1  0.45773998  0.07784818  0.14307648  1
  N  N42  1  0.22282347  0.20674987  0.89461638  1
  N  N43  1  0.10870916  0.08174023  0.56778004  1
  N  N44  1  0.91796305  0.19394975  0.35303357  1
  N  N45  1  0.78091924  0.09171410  0.14880717  1
  N  N46  1  0.55825541  0.20177142  0.89195925  1
  N  N47  1  0.43704525  0.09824759  0.63676794  1
  N  N48  1  0.22660349  0.53817787  0.34064512  1
  N  N49  1  0.10279682  0.44176523  0.10110441  1
  N  N50  1  0.88386631  0.54296247  0.84364115  1
  N  N51  1  0.77554677  0.42753666  0.59044022  1
  N  N52  1  0.56641561  0.52171478  0.31939912  1
  N  N53  1  0.46689061  0.43226921  0.10243171  1
  N  N54  1  0.22510741  0.54046947  0.84799281  1
  N  N55  1  0.10732601  0.43239933  0.59039756  1
  N  N56  1  0.87340038  0.56353720  0.34745595  1
  N  N57  1  0.75907536  0.42752512  0.10414907  1
  N  N58  1  0.55321600  0.54881072  0.84565024  1
  N  N59  1  0.44328877  0.43294901  0.59445315  1
  N  N60  1  0.21089616  0.90038401  0.32831264  1
  N  N61  1  0.13305799  0.77277671  0.10620635  1
  N  N62  1  0.89229982  0.86679331  0.87725883  1
  N  N63  1  0.76868251  0.75621895  0.56442332  1
  N  N64  1  0.58425727  0.85165620  0.33264319  1
  N  N65  1  0.42541069  0.80668317  0.11353200  1
  N  N66  1  0.22672488  0.87121060  0.83534592  1
  N  N67  1  0.11569264  0.75617199  0.58341955  1
  N  N68  1  0.87944373  0.85387023  0.36135788  1
  N  N69  1  0.74198766  0.77400201  0.09822042  1
  N  N70  1  0.55519991  0.86708141  0.83308629  1
  N  N71  1  0.44391642  0.75524990  0.57193394  1
