# generated using pymatgen
data_Al31B5N36
_symmetry_space_group_name_H-M   'P 1'
_cell_length_a   9.10581083
_cell_length_b   9.20483059
_cell_length_c   10.28996814
_cell_angle_alpha   90.30263589
_cell_angle_beta   89.71327823
_cell_angle_gamma   60.41888953
_symmetry_Int_Tables_number   1
_chemical_formula_structural   Al31B5N36
_chemical_formula_sum   'Al31 B5 N36'
_cell_volume   750.02220248
_cell_formula_units_Z   1
loop_
 _symmetry_equiv_pos_site_id
 _symmetry_equiv_pos_as_xyz
  1  'x, y, z'
loop_
 _atom_site_type_symbol
 _atom_site_label
 _atom_site_symmetry_multiplicity
 _atom_site_fract_x
 _atom_site_fract_y
 _atom_site_fract_z
 _atom_site_occupancy
  B  B0  1  0.11944448  0.08587058  0.34442533  1
  B  B1  1  0.58947312  0.48441916  0.14708296  1
  B  B2  1  0.22907752  0.89139042  0.09170495  1
  B  B3  1  0.54069609  0.88214230  0.08801584  1
  B  B4  1  0.77842991  0.76387866  0.34925290  1
  Al  Al5  1  0.22523421  0.19798273  0.05397265  1
  Al  Al6  1  0.78014100  0.08856001  0.80137138  1
  Al  Al7  1  0.89865430  0.19281059  0.55208749  1
  Al  Al8  1  0.45433057  0.07807973  0.30620541  1
  Al  Al9  1  0.56160110  0.19439436  0.05259342  1
  Al  Al10  1  0.11002246  0.09701988  0.80964117  1
  Al  Al11  1  0.22161181  0.20349327  0.55250767  1
  Al  Al12  1  0.78650173  0.08259421  0.30278126  1
  Al  Al13  1  0.89768322  0.18580046  0.05580750  1
  Al  Al14  1  0.44003742  0.09785685  0.79967471  1
  Al  Al15  1  0.55784339  0.20300587  0.55075100  1
  Al  Al16  1  0.10690288  0.43175058  0.30118184  1
  Al  Al17  1  0.23369216  0.54795966  0.05448414  1
  Al  Al18  1  0.76295908  0.42823003  0.88271619  1
  Al  Al19  1  0.89350357  0.54184914  0.55556547  1
  Al  Al20  1  0.44434034  0.42145277  0.30274112  1
  Al  Al21  1  0.10861632  0.42615719  0.80587190  1
  Al  Al22  1  0.22638229  0.53630709  0.55149752  1
  Al  Al23  1  0.78253217  0.42822953  0.36520603  1
  Al  Al24  1  0.87096711  0.55512568  0.06169885  1
  Al  Al25  1  0.44171603  0.42125301  0.80408048  1
  Al  Al26  1  0.56323385  0.53814410  0.62807393  1
  Al  Al27  1  0.11628692  0.76957567  0.30259197  1
  Al  Al28  1  0.77855089  0.75536450  0.81389913  1
  Al  Al29  1  0.89126790  0.86516190  0.55327130  1
  Al  Al30  1  0.45295783  0.76277355  0.37117766  1
  Al  Al31  1  0.11043688  0.75467299  0.80204770  1
  Al  Al32  1  0.23071610  0.86741676  0.61684640  1
  Al  Al33  1  0.88357435  0.87169866  0.05210671  1
  Al  Al34  1  0.44012919  0.76580455  0.88235217  1
  Al  Al35  1  0.55716267  0.86481640  0.61420702  1
  N  N36  1  0.21070560  0.19291836  0.36120276  1
  N  N37  1  0.12331884  0.07123432  0.09087563  1
  N  N38  1  0.88735643  0.19898442  0.86881004  1
  N  N39  1  0.78090813  0.08853760  0.61327581  1
  N  N40  1  0.55974342  0.20390487  0.36468881  1
  N  N41  1  0.45259162  0.07565573  0.11703173  1
  N  N42  1  0.22282667  0.20826345  0.86873111  1
  N  N43  1  0.10932546  0.10121875  0.62174979  1
  N  N44  1  0.92384505  0.18195327  0.35842015  1
  N  N45  1  0.77919014  0.08738570  0.12039109  1
  N  N46  1  0.55704818  0.20159585  0.86759696  1
  N  N47  1  0.44177079  0.09878189  0.61066701  1
  N  N48  1  0.22537053  0.54121033  0.36380766  1
  N  N49  1  0.10908698  0.43482416  0.11676509  1
  N  N50  1  0.88978472  0.53478610  0.87307673  1
  N  N51  1  0.77517332  0.42434237  0.55215172  1
  N  N52  1  0.56677135  0.53747996  0.29063071  1
  N  N53  1  0.46426442  0.42224250  0.11473057  1
  N  N54  1  0.22240914  0.53774200  0.86997252  1
  N  N55  1  0.11358349  0.42459055  0.61546008  1
  N  N56  1  0.88076112  0.57036155  0.36149962  1
  N  N57  1  0.75337934  0.42888866  0.07883242  1
  N  N58  1  0.55425423  0.54394488  0.81406396  1
  N  N59  1  0.44494697  0.42018068  0.61602606  1
  N  N60  1  0.21379568  0.90287097  0.35171566  1
  N  N61  1  0.13323579  0.77679938  0.11257928  1
  N  N62  1  0.89098798  0.87025549  0.86750920  1
  N  N63  1  0.79054671  0.75167879  0.62386066  1
  N  N64  1  0.59447150  0.85651637  0.35663177  1
  N  N65  1  0.42089787  0.80989537  0.06691317  1
  N  N66  1  0.22910038  0.86635778  0.80970384  1
  N  N67  1  0.10999231  0.75333026  0.61282201  1
  N  N68  1  0.88274292  0.85611795  0.36162095  1
  N  N69  1  0.72939514  0.78538258  0.08012243  1
  N  N70  1  0.54732022  0.86994885  0.80702076  1
  N  N71  1  0.45137653  0.74765851  0.55540667  1
