# generated using pymatgen
data_Al31B5N36
_symmetry_space_group_name_H-M   'P 1'
_cell_length_a   9.16079352
_cell_length_b   9.26245421
_cell_length_c   10.18164811
_cell_angle_alpha   90.63360618
_cell_angle_beta   89.53060250
_cell_angle_gamma   60.04488118
_symmetry_Int_Tables_number   1
_chemical_formula_structural   Al31B5N36
_chemical_formula_sum   'Al31 B5 N36'
_cell_volume   748.38167200
_cell_formula_units_Z   1
loop_
 _symmetry_equiv_pos_site_id
 _symmetry_equiv_pos_as_xyz
  1  'x, y, z'
loop_
 _atom_site_type_symbol
 _atom_site_label
 _atom_site_symmetry_multiplicity
 _atom_site_fract_x
 _atom_site_fract_y
 _atom_site_fract_z
 _atom_site_occupancy
  B  B0  1  0.11228261  0.10282948  0.31331641  1
  B  B1  1  0.58999876  0.48189759  0.16615232  1
  B  B2  1  0.24863214  0.90935382  0.16265981  1
  B  B3  1  0.53770701  0.89060766  0.10897038  1
  B  B4  1  0.77489707  0.75829909  0.40330781  1
  Al  Al5  1  0.22583998  0.20433935  0.07479122  1
  Al  Al6  1  0.78091366  0.09040369  0.81978467  1
  Al  Al7  1  0.90063409  0.19070682  0.56325960  1
  Al  Al8  1  0.45660755  0.07931019  0.32339879  1
  Al  Al9  1  0.56330016  0.19813088  0.06870377  1
  Al  Al10  1  0.10696713  0.10000605  0.82234819  1
  Al  Al11  1  0.22093929  0.20017996  0.56168369  1
  Al  Al12  1  0.78722907  0.08380573  0.32018832  1
  Al  Al13  1  0.89824356  0.19273460  0.07948967  1
  Al  Al14  1  0.44128256  0.09516145  0.81338683  1
  Al  Al15  1  0.55789858  0.20273511  0.56874505  1
  Al  Al16  1  0.11150988  0.42921266  0.32013996  1
  Al  Al17  1  0.22641418  0.54443148  0.07183869  1
  Al  Al18  1  0.76438121  0.43574086  0.90142510  1
  Al  Al19  1  0.88420041  0.53642729  0.63943997  1
  Al  Al20  1  0.44418324  0.42169833  0.32207080  1
  Al  Al21  1  0.11605539  0.42074022  0.82285810  1
  Al  Al22  1  0.22332397  0.53496733  0.56942022  1
  Al  Al23  1  0.78647687  0.43164410  0.38773485  1
  Al  Al24  1  0.85664880  0.56723567  0.15045980  1
  Al  Al25  1  0.44198800  0.42210059  0.82231213  1
  Al  Al26  1  0.55774321  0.54053870  0.64371771  1
  Al  Al27  1  0.10957544  0.76406469  0.31042078  1
  Al  Al28  1  0.76127694  0.76221497  0.88701967  1
  Al  Al29  1  0.89397772  0.86741687  0.56551647  1
  Al  Al30  1  0.45539918  0.76102627  0.38001136  1
  Al  Al31  1  0.10633831  0.75406452  0.82450009  1
  Al  Al32  1  0.22962260  0.86322689  0.64269863  1
  Al  Al33  1  0.88828545  0.87297070  0.07160145  1
  Al  Al34  1  0.43313866  0.77143416  0.90304260  1
  Al  Al35  1  0.55682782  0.86382320  0.61974028  1
  N  N36  1  0.21264253  0.19475798  0.37120461  1
  N  N37  1  0.11691502  0.09611445  0.15082053  1
  N  N38  1  0.88953110  0.20118876  0.89183087  1
  N  N39  1  0.78175453  0.08982948  0.63110721  1
  N  N40  1  0.56004581  0.20442329  0.38175122  1
  N  N41  1  0.45600440  0.08083413  0.13184660  1
  N  N42  1  0.22267290  0.20300611  0.88827910  1
  N  N43  1  0.11124925  0.09611465  0.63381766  1
  N  N44  1  0.92289467  0.18530910  0.37090414  1
  N  N45  1  0.78019500  0.09129929  0.13554906  1
  N  N46  1  0.55575211  0.20133954  0.88236384  1
  N  N47  1  0.44075110  0.09805388  0.62441610  1
  N  N48  1  0.22411027  0.54170725  0.38172855  1
  N  N49  1  0.10871831  0.43126320  0.13131399  1
  N  N50  1  0.87990029  0.53837357  0.83224712  1
  N  N51  1  0.77584604  0.42516460  0.57335556  1
  N  N52  1  0.56912915  0.53277646  0.31038750  1
  N  N53  1  0.46350628  0.42519373  0.13094259  1
  N  N54  1  0.22166102  0.53504987  0.88610242  1
  N  N55  1  0.11886028  0.41810324  0.63055418  1
  N  N56  1  0.87368389  0.57015815  0.33770461  1
  N  N57  1  0.75217686  0.43776070  0.09635855  1
  N  N58  1  0.55055181  0.54694328  0.83490975  1
  N  N59  1  0.44360257  0.42131061  0.63278076  1
  N  N60  1  0.23098010  0.89344053  0.31339329  1
  N  N61  1  0.10876381  0.76212358  0.12814376  1
  N  N62  1  0.88507831  0.87255168  0.88316369  1
  N  N63  1  0.78213350  0.74663075  0.56519398  1
  N  N64  1  0.58845904  0.85829617  0.36402084  1
  N  N65  1  0.41711292  0.82717505  0.08884727  1
  N  N66  1  0.22245384  0.86957160  0.83223437  1
  N  N67  1  0.10738263  0.75221100  0.63358612  1
  N  N68  1  0.88618969  0.86304464  0.37934755  1
  N  N69  1  0.72846456  0.78383145  0.07757308  1
  N  N70  1  0.55146706  0.86388633  0.81492834  1
  N  N71  1  0.44190204  0.75031940  0.56673841  1
