# generated using pymatgen
data_Al31B5N36
_symmetry_space_group_name_H-M   'P 1'
_cell_length_a   9.24006258
_cell_length_b   9.34269184
_cell_length_c   9.75620066
_cell_angle_alpha   90.18946710
_cell_angle_beta   89.70270498
_cell_angle_gamma   60.00153125
_symmetry_Int_Tables_number   1
_chemical_formula_structural   Al31B5N36
_chemical_formula_sum   'Al31 B5 N36'
_cell_volume   729.37196234
_cell_formula_units_Z   1
loop_
 _symmetry_equiv_pos_site_id
 _symmetry_equiv_pos_as_xyz
  1  'x, y, z'
loop_
 _atom_site_type_symbol
 _atom_site_label
 _atom_site_symmetry_multiplicity
 _atom_site_fract_x
 _atom_site_fract_y
 _atom_site_fract_z
 _atom_site_occupancy
  B  B0  1  0.11278207  0.09908847  0.40258775  1
  B  B1  1  0.58634748  0.47591302  0.16899759  1
  B  B2  1  0.24757205  0.91655330  0.17158907  1
  B  B3  1  0.55637681  0.87415136  0.16347576  1
  B  B4  1  0.77947815  0.75743242  0.40001984  1
  Al  Al5  1  0.22185236  0.20218879  0.15495579  1
  Al  Al6  1  0.78497747  0.08719165  0.88595870  1
  Al  Al7  1  0.89378465  0.20409956  0.64338935  1
  Al  Al8  1  0.45229876  0.08520940  0.34740461  1
  Al  Al9  1  0.56063472  0.19369600  0.09171791  1
  Al  Al10  1  0.11654339  0.08714308  0.90188003  1
  Al  Al11  1  0.21360877  0.20859505  0.63644548  1
  Al  Al12  1  0.79123410  0.08216566  0.39396550  1
  Al  Al13  1  0.90123345  0.19026307  0.15739277  1
  Al  Al14  1  0.44517221  0.09479421  0.82818682  1
  Al  Al15  1  0.55610314  0.20449567  0.58342570  1
  Al  Al16  1  0.10525775  0.43306875  0.39913977  1
  Al  Al17  1  0.22396968  0.54093622  0.14899923  1
  Al  Al18  1  0.77235185  0.42850645  0.90426560  1
  Al  Al19  1  0.88466947  0.54349657  0.64777408  1
  Al  Al20  1  0.44315485  0.43203589  0.39595779  1
  Al  Al21  1  0.10882584  0.42695549  0.90046364  1
  Al  Al22  1  0.22231886  0.54173651  0.64974293  1
  Al  Al23  1  0.78571811  0.42661750  0.39873260  1
  Al  Al24  1  0.86937569  0.55127867  0.15433420  1
  Al  Al25  1  0.44523304  0.43583884  0.90260200  1
  Al  Al26  1  0.55322869  0.54471347  0.65241667  1
  Al  Al27  1  0.11073423  0.76550434  0.38546687  1
  Al  Al28  1  0.76589259  0.76579595  0.90216350  1
  Al  Al29  1  0.89058857  0.86555237  0.63846365  1
  Al  Al30  1  0.45291667  0.75743217  0.37291892  1
  Al  Al31  1  0.10840027  0.76151912  0.90540038  1
  Al  Al32  1  0.22550316  0.87013858  0.64084580  1
  Al  Al33  1  0.88044794  0.86368615  0.15290730  1
  Al  Al34  1  0.43807239  0.77288347  0.92019917  1
  Al  Al35  1  0.55735805  0.86233562  0.63418249  1
  N  N36  1  0.20622495  0.19907967  0.35373882  1
  N  N37  1  0.12604117  0.07573741  0.09711691  1
  N  N38  1  0.89214256  0.20606799  0.84126603  1
  N  N39  1  0.78606191  0.08920262  0.59592239  1
  N  N40  1  0.55890514  0.20388120  0.38252484  1
  N  N41  1  0.45718557  0.07753663  0.14624756  1
  N  N42  1  0.21277313  0.20779569  0.83692746  1
  N  N43  1  0.11453988  0.08936582  0.56747376  1
  N  N44  1  0.91779343  0.19255742  0.35092994  1
  N  N45  1  0.78927901  0.08418732  0.10112819  1
  N  N46  1  0.55195133  0.20479371  0.88870870  1
  N  N47  1  0.44550804  0.09343621  0.62344562  1
  N  N48  1  0.22391370  0.53764678  0.34023247  1
  N  N49  1  0.10642816  0.42338483  0.09637241  1
  N  N50  1  0.88332582  0.54172831  0.84543737  1
  N  N51  1  0.77701277  0.42788023  0.59111963  1
  N  N52  1  0.56621277  0.52359179  0.31866952  1
  N  N53  1  0.46386682  0.43339177  0.10363526  1
  N  N54  1  0.22334961  0.53714450  0.84484696  1
  N  N55  1  0.10887249  0.43211916  0.59194451  1
  N  N56  1  0.87670719  0.56295255  0.34720463  1
  N  N57  1  0.75819325  0.42497562  0.10462136  1
  N  N58  1  0.55087103  0.55001061  0.84714997  1
  N  N59  1  0.44483635  0.43396203  0.59267304  1
  N  N60  1  0.21534877  0.90438452  0.32663012  1
  N  N61  1  0.09946709  0.75356619  0.09367241  1
  N  N62  1  0.88671059  0.86501168  0.83444221  1
  N  N63  1  0.77744192  0.75846009  0.56651115  1
  N  N64  1  0.58844563  0.85135060  0.33603356  1
  N  N65  1  0.42371221  0.81723272  0.11670219  1
  N  N66  1  0.22211036  0.87008528  0.83735258  1
  N  N67  1  0.11507810  0.75985581  0.58162784  1
  N  N68  1  0.87814133  0.85538455  0.34794853  1
  N  N69  1  0.73938359  0.77550438  0.09515816  1
  N  N70  1  0.55290546  0.86565886  0.83125296  1
  N  N71  1  0.44587304  0.75486409  0.57103024  1
