# generated using pymatgen
data_Al31B5N36
_symmetry_space_group_name_H-M   'P 1'
_cell_length_a   9.17593482
_cell_length_b   9.26061839
_cell_length_c   10.13972752
_cell_angle_alpha   90.86492928
_cell_angle_beta   89.72612365
_cell_angle_gamma   60.17652863
_symmetry_Int_Tables_number   1
_chemical_formula_structural   Al31B5N36
_chemical_formula_sum   'Al31 B5 N36'
_cell_volume   747.34984981
_cell_formula_units_Z   1
loop_
 _symmetry_equiv_pos_site_id
 _symmetry_equiv_pos_as_xyz
  1  'x, y, z'
loop_
 _atom_site_type_symbol
 _atom_site_label
 _atom_site_symmetry_multiplicity
 _atom_site_fract_x
 _atom_site_fract_y
 _atom_site_fract_z
 _atom_site_occupancy
  B  B0  1  0.11554685  0.09644377  0.30929670  1
  B  B1  1  0.58788497  0.47925511  0.16054688  1
  B  B2  1  0.23263286  0.89087689  0.15489687  1
  B  B3  1  0.53547010  0.88537070  0.10803656  1
  B  B4  1  0.77296991  0.75628542  0.40293435  1
  Al  Al5  1  0.22627921  0.19411153  0.08190833  1
  Al  Al6  1  0.77993877  0.09209457  0.81949667  1
  Al  Al7  1  0.89934597  0.19278136  0.56280513  1
  Al  Al8  1  0.45729336  0.07488308  0.31991092  1
  Al  Al9  1  0.56642847  0.18894956  0.07264181  1
  Al  Al10  1  0.10729119  0.10318943  0.82178445  1
  Al  Al11  1  0.22366770  0.19329374  0.55482698  1
  Al  Al12  1  0.78809391  0.08223609  0.31889919  1
  Al  Al13  1  0.89593969  0.19565965  0.07849219  1
  Al  Al14  1  0.43743431  0.10190906  0.81397540  1
  Al  Al15  1  0.56069537  0.19633696  0.56493651  1
  Al  Al16  1  0.10254553  0.43169711  0.37077375  1
  Al  Al17  1  0.22917210  0.54800385  0.11156056  1
  Al  Al18  1  0.76816779  0.43673389  0.89760811  1
  Al  Al19  1  0.89133436  0.53288816  0.63749452  1
  Al  Al20  1  0.45050510  0.42580163  0.37873595  1
  Al  Al21  1  0.10317941  0.43413020  0.90409413  1
  Al  Al22  1  0.22074377  0.53809751  0.58102580  1
  Al  Al23  1  0.78365728  0.43005957  0.38572111  1
  Al  Al24  1  0.85665207  0.56584712  0.15101521  1
  Al  Al25  1  0.45147350  0.43246728  0.89840002  1
  Al  Al26  1  0.55506077  0.53837094  0.64177947  1
  Al  Al27  1  0.10815847  0.77091859  0.31406198  1
  Al  Al28  1  0.76166047  0.76439705  0.88535352  1
  Al  Al29  1  0.89200516  0.86806660  0.56468011  1
  Al  Al30  1  0.45369848  0.76024585  0.37743080  1
  Al  Al31  1  0.11007049  0.75435978  0.82595106  1
  Al  Al32  1  0.23007857  0.86582896  0.64101993  1
  Al  Al33  1  0.89387592  0.87428612  0.06931213  1
  Al  Al34  1  0.43375959  0.77445833  0.90061845  1
  Al  Al35  1  0.55642505  0.86453536  0.62046870  1
  N  N36  1  0.21636186  0.18625209  0.36323910  1
  N  N37  1  0.11247096  0.09052069  0.14940071  1
  N  N38  1  0.88939185  0.20301846  0.88947567  1
  N  N39  1  0.78088426  0.09050635  0.63052938  1
  N  N40  1  0.56354181  0.19422456  0.37570771  1
  N  N41  1  0.45610524  0.07553478  0.13059037  1
  N  N42  1  0.22393547  0.20099347  0.89261689  1
  N  N43  1  0.11018764  0.09881174  0.63293592  1
  N  N44  1  0.92248766  0.18420015  0.37067483  1
  N  N45  1  0.78193694  0.09013011  0.13456364  1
  N  N46  1  0.55795145  0.19918617  0.88396383  1
  N  N47  1  0.43756227  0.10183830  0.62490729  1
  N  N48  1  0.22547907  0.54013650  0.33937694  1
  N  N49  1  0.09372691  0.43993592  0.09795698  1
  N  N50  1  0.88830715  0.53705541  0.82940315  1
  N  N51  1  0.77494337  0.42653428  0.57419934  1
  N  N52  1  0.56597642  0.52644050  0.30619592  1
  N  N53  1  0.47119893  0.42918573  0.09538015  1
  N  N54  1  0.22424662  0.54020070  0.88530942  1
  N  N55  1  0.10765716  0.42500557  0.56611342  1
  N  N56  1  0.87127107  0.56858539  0.33613644  1
  N  N57  1  0.75242925  0.43848989  0.09478069  1
  N  N58  1  0.55240964  0.54582389  0.83094205  1
  N  N59  1  0.44866318  0.42895648  0.57278534  1
  N  N60  1  0.22922815  0.89170538  0.31624918  1
  N  N61  1  0.12221874  0.78224980  0.12592570  1
  N  N62  1  0.88777016  0.87259545  0.88174486  1
  N  N63  1  0.78082092  0.74745777  0.56610509  1
  N  N64  1  0.58870709  0.85471366  0.36266553  1
  N  N65  1  0.41631496  0.82008981  0.08710372  1
  N  N66  1  0.22333250  0.87229644  0.83004453  1
  N  N67  1  0.10651854  0.75536596  0.63129215  1
  N  N68  1  0.88626006  0.86060329  0.37747210  1
  N  N69  1  0.73015228  0.78208330  0.07636115  1
  N  N70  1  0.55168413  0.86743290  0.81442484  1
  N  N71  1  0.44202146  0.75162858  0.56663289  1
