# generated using pymatgen
data_Al31B5N36
_symmetry_space_group_name_H-M   'P 1'
_cell_length_a   9.15817838
_cell_length_b   9.27738980
_cell_length_c   10.19060977
_cell_angle_alpha   90.28575655
_cell_angle_beta   89.72738337
_cell_angle_gamma   59.99152897
_symmetry_Int_Tables_number   1
_chemical_formula_structural   Al31B5N36
_chemical_formula_sum   'Al31 B5 N36'
_cell_volume   749.73536133
_cell_formula_units_Z   1
loop_
 _symmetry_equiv_pos_site_id
 _symmetry_equiv_pos_as_xyz
  1  'x, y, z'
loop_
 _atom_site_type_symbol
 _atom_site_label
 _atom_site_symmetry_multiplicity
 _atom_site_fract_x
 _atom_site_fract_y
 _atom_site_fract_z
 _atom_site_occupancy
  B  B0  1  0.11284421  0.10125467  0.30314662  1
  B  B1  1  0.58929990  0.48156977  0.15453816  1
  B  B2  1  0.25287966  0.90949586  0.15469751  1
  B  B3  1  0.54382937  0.88716986  0.09758163  1
  B  B4  1  0.77903311  0.76488654  0.35705006  1
  Al  Al5  1  0.22660242  0.20310004  0.06485193  1
  Al  Al6  1  0.78099219  0.08898465  0.80938471  1
  Al  Al7  1  0.90193329  0.18992418  0.55267389  1
  Al  Al8  1  0.45569470  0.08115056  0.31462285  1
  Al  Al9  1  0.56295617  0.19695419  0.05904606  1
  Al  Al10  1  0.10899769  0.09781192  0.81279855  1
  Al  Al11  1  0.22083690  0.20113026  0.55339354  1
  Al  Al12  1  0.78598618  0.08241261  0.30939569  1
  Al  Al13  1  0.89958520  0.18654088  0.06918951  1
  Al  Al14  1  0.43944791  0.09702127  0.80669434  1
  Al  Al15  1  0.55827423  0.20368812  0.55900622  1
  Al  Al16  1  0.10820793  0.43220593  0.30760440  1
  Al  Al17  1  0.22559256  0.54491860  0.06060349  1
  Al  Al18  1  0.76259070  0.42809263  0.89091211  1
  Al  Al19  1  0.89293955  0.54118169  0.56227845  1
  Al  Al20  1  0.44372505  0.42200017  0.31095734  1
  Al  Al21  1  0.10741689  0.42409566  0.81285384  1
  Al  Al22  1  0.22542684  0.53550266  0.55995281  1
  Al  Al23  1  0.78442631  0.42717291  0.36926681  1
  Al  Al24  1  0.87060912  0.55632114  0.06997036  1
  Al  Al25  1  0.44121735  0.42259769  0.81127170  1
  Al  Al26  1  0.56223828  0.53940020  0.63356456  1
  Al  Al27  1  0.11075557  0.76137753  0.29948037  1
  Al  Al28  1  0.77423692  0.75610456  0.82063530  1
  Al  Al29  1  0.89060214  0.86531361  0.56286907  1
  Al  Al30  1  0.45865373  0.75888662  0.37145846  1
  Al  Al31  1  0.10731682  0.75443517  0.81442331  1
  Al  Al32  1  0.23273557  0.86266250  0.63357802  1
  Al  Al33  1  0.88049444  0.86885389  0.05860310  1
  Al  Al34  1  0.43507206  0.77087480  0.89713614  1
  Al  Al35  1  0.55493407  0.86602380  0.61594083  1
  N  N36  1  0.21132810  0.19542958  0.36217473  1
  N  N37  1  0.11852678  0.09437375  0.14144028  1
  N  N38  1  0.89151036  0.19624995  0.88102676  1
  N  N39  1  0.78266576  0.09000753  0.61965938  1
  N  N40  1  0.56045334  0.20462889  0.37188248  1
  N  N41  1  0.45571161  0.07989333  0.12408757  1
  N  N42  1  0.22087629  0.20463531  0.87845310  1
  N  N43  1  0.11281364  0.09548673  0.62419478  1
  N  N44  1  0.92371781  0.18153958  0.35943285  1
  N  N45  1  0.78055144  0.08718538  0.12573076  1
  N  N46  1  0.55607996  0.20217138  0.87264092  1
  N  N47  1  0.44068215  0.10011508  0.61567041  1
  N  N48  1  0.22498865  0.54035892  0.37175243  1
  N  N49  1  0.10822873  0.43035516  0.12267968  1
  N  N50  1  0.88784635  0.53450430  0.87926273  1
  N  N51  1  0.77637064  0.42309624  0.55852980  1
  N  N52  1  0.56725245  0.53521932  0.29801324  1
  N  N53  1  0.46243617  0.42452528  0.12066750  1
  N  N54  1  0.22125477  0.53411790  0.87431868  1
  N  N55  1  0.11378084  0.42160965  0.62102766  1
  N  N56  1  0.88025975  0.57116513  0.36654311  1
  N  N57  1  0.75253847  0.42989374  0.08720526  1
  N  N58  1  0.55137021  0.54680899  0.82345376  1
  N  N59  1  0.44563423  0.42144885  0.62214088  1
  N  N60  1  0.23234490  0.89171400  0.30473918  1
  N  N61  1  0.10236451  0.75999291  0.11877667  1
  N  N62  1  0.88523196  0.87133095  0.87146440  1
  N  N63  1  0.78857108  0.75156463  0.62945880  1
  N  N64  1  0.59464193  0.85777239  0.36539744  1
  N  N65  1  0.41915559  0.82486461  0.08245382  1
  N  N66  1  0.22437005  0.86757555  0.82304952  1
  N  N67  1  0.11059343  0.75309805  0.62084703  1
  N  N68  1  0.88166923  0.85735424  0.37128957  1
  N  N69  1  0.72813018  0.78639946  0.08649057  1
  N  N70  1  0.54235633  0.86957716  0.81273598  1
  N  N71  1  0.44528934  0.75051760  0.55743124  1
