# generated using pymatgen
data_Al31B5N36
_symmetry_space_group_name_H-M   'P 1'
_cell_length_a   9.19241807
_cell_length_b   9.29877515
_cell_length_c   10.15498260
_cell_angle_alpha   90.48492156
_cell_angle_beta   89.77277348
_cell_angle_gamma   59.91833220
_symmetry_Int_Tables_number   1
_chemical_formula_structural   Al31B5N36
_chemical_formula_sum   'Al31 B5 N36'
_cell_volume   751.05587536
_cell_formula_units_Z   1
loop_
 _symmetry_equiv_pos_site_id
 _symmetry_equiv_pos_as_xyz
  1  'x, y, z'
loop_
 _atom_site_type_symbol
 _atom_site_label
 _atom_site_symmetry_multiplicity
 _atom_site_fract_x
 _atom_site_fract_y
 _atom_site_fract_z
 _atom_site_occupancy
  B  B0  1  0.11141345  0.10358367  0.30461987  1
  B  B1  1  0.59037651  0.47936911  0.15717705  1
  B  B2  1  0.25707285  0.91595657  0.15802346  1
  B  B3  1  0.54287414  0.88962795  0.09416122  1
  B  B4  1  0.77776732  0.76447844  0.35158203  1
  Al  Al5  1  0.22950938  0.20056079  0.06431704  1
  Al  Al6  1  0.78168151  0.09084536  0.80916280  1
  Al  Al7  1  0.90202478  0.19069564  0.55280151  1
  Al  Al8  1  0.45656812  0.08075888  0.31545371  1
  Al  Al9  1  0.56427728  0.19757899  0.05955568  1
  Al  Al10  1  0.10827983  0.09847892  0.81371132  1
  Al  Al11  1  0.22164428  0.20078856  0.55409921  1
  Al  Al12  1  0.78626251  0.08283187  0.31065451  1
  Al  Al13  1  0.90050963  0.18623313  0.07010296  1
  Al  Al14  1  0.44051474  0.09684904  0.80567088  1
  Al  Al15  1  0.55887781  0.20355580  0.55965947  1
  Al  Al16  1  0.11170994  0.42970146  0.30722151  1
  Al  Al17  1  0.22471244  0.54130243  0.06151430  1
  Al  Al18  1  0.76445945  0.43227946  0.89474173  1
  Al  Al19  1  0.88882285  0.52991379  0.63308569  1
  Al  Al20  1  0.44382102  0.42193085  0.31325469  1
  Al  Al21  1  0.11744536  0.41911472  0.81786971  1
  Al  Al22  1  0.22396305  0.53535978  0.56095287  1
  Al  Al23  1  0.78718013  0.43378184  0.37379357  1
  Al  Al24  1  0.86264400  0.56219722  0.12202479  1
  Al  Al25  1  0.44311111  0.42298707  0.81240317  1
  Al  Al26  1  0.55992435  0.54100107  0.63412233  1
  Al  Al27  1  0.10824420  0.76010434  0.29883425  1
  Al  Al28  1  0.76871165  0.76234828  0.83033268  1
  Al  Al29  1  0.88992120  0.86325000  0.56248936  1
  Al  Al30  1  0.45814932  0.75847440  0.37159648  1
  Al  Al31  1  0.10679754  0.75460602  0.81525456  1
  Al  Al32  1  0.23132062  0.86314195  0.63400847  1
  Al  Al33  1  0.87896484  0.86874868  0.05717067  1
  Al  Al34  1  0.43338084  0.77180306  0.89716128  1
  Al  Al35  1  0.55555768  0.86555381  0.61550104  1
  N  N36  1  0.21166081  0.19498064  0.36272615  1
  N  N37  1  0.11942724  0.09549732  0.14217453  1
  N  N38  1  0.89107164  0.19840909  0.88250592  1
  N  N39  1  0.78345714  0.09060265  0.61888108  1
  N  N40  1  0.56050860  0.20423228  0.37205885  1
  N  N41  1  0.45817301  0.07986160  0.12376838  1
  N  N42  1  0.22382413  0.20124919  0.87896975  1
  N  N43  1  0.11253884  0.09616349  0.62456454  1
  N  N44  1  0.92309400  0.18432935  0.36014245  1
  N  N45  1  0.78155147  0.08686269  0.12617293  1
  N  N46  1  0.55658928  0.20226004  0.87241009  1
  N  N47  1  0.44201872  0.09933467  0.61457764  1
  N  N48  1  0.22422082  0.53968459  0.37241987  1
  N  N49  1  0.11210037  0.42408185  0.11956666  1
  N  N50  1  0.88640595  0.52893284  0.83879060  1
  N  N51  1  0.77780723  0.42660421  0.56083279  1
  N  N52  1  0.56837471  0.53316893  0.30118602  1
  N  N53  1  0.46335845  0.42442436  0.12201812  1
  N  N54  1  0.22355621  0.53431414  0.87547430  1
  N  N55  1  0.12076645  0.41772301  0.62331650  1
  N  N56  1  0.87326217  0.57503456  0.32241658  1
  N  N57  1  0.75318871  0.43157438  0.08891225  1
  N  N58  1  0.55177641  0.54719340  0.82576419  1
  N  N59  1  0.44587410  0.42219246  0.62205196  1
  N  N60  1  0.23217880  0.89149292  0.30419294  1
  N  N61  1  0.09339615  0.75200259  0.12047306  1
  N  N62  1  0.88519985  0.87377387  0.87091144  1
  N  N63  1  0.78597203  0.75479897  0.62777038  1
  N  N64  1  0.59387561  0.85689232  0.36254734  1
  N  N65  1  0.41870772  0.82889343  0.08307692  1
  N  N66  1  0.22269400  0.86835484  0.82437158  1
  N  N67  1  0.10998296  0.75332549  0.62114390  1
  N  N68  1  0.88000282  0.85696964  0.37095446  1
  N  N69  1  0.72638332  0.78523273  0.07241848  1
  N  N70  1  0.53924599  0.87083335  0.81266171  1
  N  N71  1  0.44395291  0.75161802  0.55784346  1
