# generated using pymatgen
data_Al31B5N36
_symmetry_space_group_name_H-M   'P 1'
_cell_length_a   9.11647973
_cell_length_b   9.19389647
_cell_length_c   10.19637912
_cell_angle_alpha   89.69409263
_cell_angle_beta   89.98333487
_cell_angle_gamma   60.31333619
_symmetry_Int_Tables_number   1
_chemical_formula_structural   Al31B5N36
_chemical_formula_sum   'Al31 B5 N36'
_cell_volume   742.43458707
_cell_formula_units_Z   1
loop_
 _symmetry_equiv_pos_site_id
 _symmetry_equiv_pos_as_xyz
  1  'x, y, z'
loop_
 _atom_site_type_symbol
 _atom_site_label
 _atom_site_symmetry_multiplicity
 _atom_site_fract_x
 _atom_site_fract_y
 _atom_site_fract_z
 _atom_site_occupancy
  B  B0  1  0.11256694  0.09331400  0.35815223  1
  B  B1  1  0.58764240  0.47484689  0.05370135  1
  B  B2  1  0.22581951  0.89440519  0.10734195  1
  B  B3  1  0.54017979  0.88299976  0.10513246  1
  B  B4  1  0.77352051  0.76495532  0.35906556  1
  Al  Al5  1  0.22353073  0.20000153  0.06614200  1
  Al  Al6  1  0.78092334  0.08837570  0.81156377  1
  Al  Al7  1  0.89472342  0.20291432  0.56676479  1
  Al  Al8  1  0.45127044  0.08328214  0.31872025  1
  Al  Al9  1  0.56183352  0.19166098  0.06378717  1
  Al  Al10  1  0.11392887  0.09212379  0.82552129  1
  Al  Al11  1  0.22150641  0.20326304  0.56442450  1
  Al  Al12  1  0.78344910  0.08697521  0.31550507  1
  Al  Al13  1  0.89383890  0.19253167  0.06229086  1
  Al  Al14  1  0.44206670  0.09473352  0.81311582  1
  Al  Al15  1  0.55624501  0.20542990  0.56255596  1
  Al  Al16  1  0.10412124  0.43445605  0.31312926  1
  Al  Al17  1  0.22921719  0.54876852  0.06390488  1
  Al  Al18  1  0.77889759  0.42402003  0.81762441  1
  Al  Al19  1  0.88783729  0.54126756  0.56652865  1
  Al  Al20  1  0.45062004  0.42866024  0.30770169  1
  Al  Al21  1  0.11329894  0.42426861  0.81328059  1
  Al  Al22  1  0.22567933  0.53794211  0.56140919  1
  Al  Al23  1  0.77565374  0.43424012  0.30951098  1
  Al  Al24  1  0.86652685  0.55112780  0.06080912  1
  Al  Al25  1  0.44699367  0.42396331  0.82018292  1
  Al  Al26  1  0.55974553  0.53066957  0.56210631  1
  Al  Al27  1  0.11326879  0.77079541  0.31381704  1
  Al  Al28  1  0.78111756  0.75631348  0.82377020  1
  Al  Al29  1  0.89032832  0.86732428  0.56297349  1
  Al  Al30  1  0.44319829  0.77456879  0.38640655  1
  Al  Al31  1  0.11114517  0.75340973  0.81368897  1
  Al  Al32  1  0.22994288  0.86875858  0.63250453  1
  Al  Al33  1  0.88319142  0.87143451  0.06528634  1
  Al  Al34  1  0.44324871  0.76382016  0.90754160  1
  Al  Al35  1  0.55686614  0.86523361  0.62961105  1
  N  N36  1  0.20854734  0.19478903  0.37229021  1
  N  N37  1  0.11963111  0.07437297  0.09967551  1
  N  N38  1  0.88680475  0.20228168  0.87605668  1
  N  N39  1  0.78084823  0.09054223  0.62194366  1
  N  N40  1  0.55596067  0.20781997  0.37410935  1
  N  N41  1  0.45183162  0.07731273  0.12925123  1
  N  N42  1  0.22518207  0.20641415  0.87983352  1
  N  N43  1  0.10914727  0.10156880  0.63527539  1
  N  N44  1  0.91500126  0.19648400  0.37295029  1
  N  N45  1  0.78019521  0.08828133  0.13070441  1
  N  N46  1  0.55901208  0.19845446  0.87764197  1
  N  N47  1  0.44226509  0.09998964  0.62335646  1
  N  N48  1  0.22658658  0.54035923  0.37076222  1
  N  N49  1  0.10426184  0.43652522  0.12603442  1
  N  N50  1  0.89211942  0.53211006  0.87618813  1
  N  N51  1  0.77805430  0.42604420  0.62882445  1
  N  N52  1  0.55881677  0.53507713  0.37489085  1
  N  N53  1  0.46558720  0.42635246  0.11696500  1
  N  N54  1  0.22410796  0.53544264  0.87865259  1
  N  N55  1  0.11366184  0.42554830  0.62223825  1
  N  N56  1  0.87359740  0.56749017  0.37217867  1
  N  N57  1  0.75696445  0.42693939  0.11909165  1
  N  N58  1  0.56528158  0.52057090  0.90791165  1
  N  N59  1  0.44763054  0.42577273  0.63201063  1
  N  N60  1  0.20351921  0.91013503  0.36328548  1
  N  N61  1  0.13242283  0.77721809  0.12354599  1
  N  N62  1  0.89297192  0.86966088  0.87902875  1
  N  N63  1  0.78993085  0.75388579  0.63301730  1
  N  N64  1  0.59050858  0.85941381  0.36521203  1
  N  N65  1  0.41829657  0.81364052  0.09040995  1
  N  N66  1  0.23527651  0.85922861  0.82619898  1
  N  N67  1  0.10988226  0.75471223  0.62351063  1
  N  N68  1  0.87994861  0.85587347  0.37096394  1
  N  N69  1  0.72891028  0.78302352  0.08946093  1
  N  N70  1  0.54940152  0.86386388  0.82212446  1
  N  N71  1  0.44547189  0.75924856  0.57314307  1
