# generated using pymatgen
data_Al31B5N36
_symmetry_space_group_name_H-M   'P 1'
_cell_length_a   9.11662039
_cell_length_b   9.19399027
_cell_length_c   10.19628837
_cell_angle_alpha   89.70459660
_cell_angle_beta   89.98053270
_cell_angle_gamma   60.31096231
_symmetry_Int_Tables_number   1
_chemical_formula_structural   Al31B5N36
_chemical_formula_sum   'Al31 B5 N36'
_cell_volume   742.43050031
_cell_formula_units_Z   1
loop_
 _symmetry_equiv_pos_site_id
 _symmetry_equiv_pos_as_xyz
  1  'x, y, z'
loop_
 _atom_site_type_symbol
 _atom_site_label
 _atom_site_symmetry_multiplicity
 _atom_site_fract_x
 _atom_site_fract_y
 _atom_site_fract_z
 _atom_site_occupancy
  B  B0  1  0.11197192  0.09388969  0.35787527  1
  B  B1  1  0.58699187  0.47559802  0.05352820  1
  B  B2  1  0.22515219  0.89526721  0.10726682  1
  B  B3  1  0.53950223  0.88383661  0.10487534  1
  B  B4  1  0.77288887  0.76553869  0.35886975  1
  Al  Al5  1  0.22283760  0.20081138  0.06597731  1
  Al  Al6  1  0.78031599  0.08907118  0.81137571  1
  Al  Al7  1  0.89408722  0.20350611  0.56651548  1
  Al  Al8  1  0.45065059  0.08388140  0.31847952  1
  Al  Al9  1  0.56119430  0.19243996  0.06357759  1
  Al  Al10  1  0.11329061  0.09283779  0.82515734  1
  Al  Al11  1  0.22090105  0.20385943  0.56417614  1
  Al  Al12  1  0.78281838  0.08757039  0.31530630  1
  Al  Al13  1  0.89322550  0.19328298  0.06215088  1
  Al  Al14  1  0.44140226  0.09546572  0.81296003  1
  Al  Al15  1  0.55562336  0.20599119  0.56238102  1
  Al  Al16  1  0.10349297  0.43509269  0.31293147  1
  Al  Al17  1  0.22856175  0.54957670  0.06372987  1
  Al  Al18  1  0.77828152  0.42469116  0.81747565  1
  Al  Al19  1  0.88720566  0.54185951  0.56638424  1
  Al  Al20  1  0.45001550  0.42923707  0.30753247  1
  Al  Al21  1  0.11265743  0.42496930  0.81310926  1
  Al  Al22  1  0.22506587  0.53850907  0.56121485  1
  Al  Al23  1  0.77506041  0.43481831  0.30933058  1
  Al  Al24  1  0.86585198  0.55191612  0.06063910  1
  Al  Al25  1  0.44635378  0.42467794  0.81999616  1
  Al  Al26  1  0.55915666  0.53121693  0.56194811  1
  Al  Al27  1  0.11265984  0.77140783  0.31367821  1
  Al  Al28  1  0.78045857  0.75703117  0.82368668  1
  Al  Al29  1  0.88966680  0.86790206  0.56279030  1
  Al  Al30  1  0.44265362  0.77510685  0.38626070  1
  Al  Al31  1  0.11051880  0.75411071  0.81344671  1
  Al  Al32  1  0.22928049  0.86937983  0.63213669  1
  Al  Al33  1  0.88257038  0.87220702  0.06507753  1
  Al  Al34  1  0.44251349  0.76458471  0.90735483  1
  Al  Al35  1  0.55622014  0.86582363  0.62957556  1
  N  N36  1  0.20793383  0.19539450  0.37204728  1
  N  N37  1  0.11893658  0.07526031  0.09983949  1
  N  N38  1  0.88623376  0.20294768  0.87590688  1
  N  N39  1  0.78022933  0.09114608  0.62175154  1
  N  N40  1  0.55532975  0.20840088  0.37393134  1
  N  N41  1  0.45117041  0.07813024  0.12900692  1
  N  N42  1  0.22448696  0.20711404  0.87966167  1
  N  N43  1  0.10851029  0.10219431  0.63498670  1
  N  N44  1  0.91438951  0.19705887  0.37272673  1
  N  N45  1  0.77953421  0.08905689  0.13050719  1
  N  N46  1  0.55837622  0.19918432  0.87743893  1
  N  N47  1  0.44162615  0.10057956  0.62318818  1
  N  N48  1  0.22597370  0.54095958  0.37057578  1
  N  N49  1  0.10358429  0.43734500  0.12584078  1
  N  N50  1  0.89147571  0.53281334  0.87601808  1
  N  N51  1  0.77744784  0.42661530  0.62867014  1
  N  N52  1  0.55823850  0.53560841  0.37474211  1
  N  N53  1  0.46493267  0.42711881  0.11678903  1
  N  N54  1  0.22345696  0.53617524  0.87846879  1
  N  N55  1  0.11304338  0.42614237  0.62205661  1
  N  N56  1  0.87297443  0.56807800  0.37202446  1
  N  N57  1  0.75630054  0.42771822  0.11890765  1
  N  N58  1  0.56462212  0.52131135  0.90774155  1
  N  N59  1  0.44699916  0.42636679  0.63182718  1
  N  N60  1  0.20294498  0.91068512  0.36325351  1
  N  N61  1  0.13176223  0.77803508  0.12340286  1
  N  N62  1  0.89235857  0.87037915  0.87882602  1
  N  N63  1  0.78928146  0.75449512  0.63288743  1
  N  N64  1  0.58988178  0.85998835  0.36489412  1
  N  N65  1  0.41758178  0.81451087  0.09020473  1
  N  N66  1  0.23461564  0.85995552  0.82592200  1
  N  N67  1  0.10924080  0.75531047  0.62327873  1
  N  N68  1  0.87930624  0.85646834  0.37076483  1
  N  N69  1  0.72823824  0.78384235  0.08916587  1
  N  N70  1  0.54873577  0.86459988  0.82201859  1
  N  N71  1  0.44493289  0.75979598  0.57299586  1
