# generated using pymatgen
data_Al31B5N36
_symmetry_space_group_name_H-M   'P 1'
_cell_length_a   9.15356427
_cell_length_b   9.14007374
_cell_length_c   10.26657003
_cell_angle_alpha   89.80166054
_cell_angle_beta   90.01654835
_cell_angle_gamma   59.99802105
_symmetry_Int_Tables_number   1
_chemical_formula_structural   Al31B5N36
_chemical_formula_sum   'Al31 B5 N36'
_cell_volume   743.84679483
_cell_formula_units_Z   1
loop_
 _symmetry_equiv_pos_site_id
 _symmetry_equiv_pos_as_xyz
  1  'x, y, z'
loop_
 _atom_site_type_symbol
 _atom_site_label
 _atom_site_symmetry_multiplicity
 _atom_site_fract_x
 _atom_site_fract_y
 _atom_site_fract_z
 _atom_site_occupancy
  B  B0  1  0.11514381  0.08855076  0.35724946  1
  B  B1  1  0.55394649  0.54516299  0.10944383  1
  B  B2  1  0.21726321  0.87496461  0.10244053  1
  B  B3  1  0.56320916  0.86432337  0.10182567  1
  B  B4  1  0.77525833  0.76272817  0.35828313  1
  Al  Al5  1  0.23048338  0.18664203  0.06089481  1
  Al  Al6  1  0.77830523  0.09453582  0.80979925  1
  Al  Al7  1  0.89479071  0.20269632  0.56030158  1
  Al  Al8  1  0.45243548  0.07624720  0.31330596  1
  Al  Al9  1  0.56125562  0.20115283  0.06283040  1
  Al  Al10  1  0.11063411  0.09664768  0.82208924  1
  Al  Al11  1  0.22173185  0.20308685  0.56238227  1
  Al  Al12  1  0.78242600  0.08741479  0.31207622  1
  Al  Al13  1  0.89078502  0.19897591  0.06115255  1
  Al  Al14  1  0.44128938  0.10076662  0.81154574  1
  Al  Al15  1  0.55483305  0.20495892  0.55555200  1
  Al  Al16  1  0.10613903  0.42936197  0.31034313  1
  Al  Al17  1  0.22889409  0.54401585  0.06189649  1
  Al  Al18  1  0.78314115  0.42484696  0.80734724  1
  Al  Al19  1  0.88972469  0.54152223  0.56218751  1
  Al  Al20  1  0.44758265  0.43093528  0.31310844  1
  Al  Al21  1  0.11285999  0.42597425  0.81016483  1
  Al  Al22  1  0.22295877  0.53798996  0.55690835  1
  Al  Al23  1  0.77506722  0.43698097  0.31540611  1
  Al  Al24  1  0.87500496  0.54465717  0.05892992  1
  Al  Al25  1  0.44308044  0.42561456  0.80998171  1
  Al  Al26  1  0.55535782  0.53870878  0.60729344  1
  Al  Al27  1  0.11114961  0.76913219  0.31483839  1
  Al  Al28  1  0.78220934  0.75753862  0.82139214  1
  Al  Al29  1  0.88849289  0.86926401  0.56196546  1
  Al  Al30  1  0.44716483  0.76689780  0.39288211  1
  Al  Al31  1  0.10980782  0.75519124  0.81097568  1
  Al  Al32  1  0.22663608  0.87146276  0.63160117  1
  Al  Al33  1  0.88419955  0.87435791  0.06094576  1
  Al  Al34  1  0.44683476  0.75665439  0.88594909  1
  Al  Al35  1  0.55633140  0.86841003  0.63146075  1
  N  N36  1  0.21079342  0.18998515  0.36989020  1
  N  N37  1  0.12958337  0.05591444  0.08962845  1
  N  N38  1  0.88540027  0.20707865  0.87662228  1
  N  N39  1  0.77822754  0.09439540  0.61980592  1
  N  N40  1  0.55431220  0.20382453  0.36737435  1
  N  N41  1  0.45907925  0.06028630  0.12208855  1
  N  N42  1  0.22464607  0.20706161  0.87716377  1
  N  N43  1  0.10690128  0.10409415  0.63227937  1
  N  N44  1  0.91765168  0.19278060  0.36809433  1
  N  N45  1  0.77967141  0.09211919  0.12843806  1
  N  N46  1  0.55706677  0.20429738  0.87842508  1
  N  N47  1  0.44138928  0.10213020  0.62227310  1
  N  N48  1  0.22252531  0.53933286  0.36882564  1
  N  N49  1  0.11170320  0.42406854  0.12395830  1
  N  N50  1  0.89336808  0.53235654  0.87534037  1
  N  N51  1  0.78839958  0.42231873  0.61918486  1
  N  N52  1  0.55826175  0.53457784  0.37317118  1
  N  N53  1  0.45924719  0.44414245  0.12019304  1
  N  N54  1  0.22333602  0.53636329  0.87787318  1
  N  N55  1  0.11284439  0.42668150  0.62078139  1
  N  N56  1  0.87800207  0.56603441  0.37082383  1
  N  N57  1  0.74920318  0.44295975  0.12321204  1
  N  N58  1  0.55516938  0.54209288  0.82172153  1
  N  N59  1  0.43997823  0.42134085  0.62258192  1
  N  N60  1  0.20698139  0.90432997  0.35993577  1
  N  N61  1  0.12599202  0.77272496  0.12266077  1
  N  N62  1  0.89181003  0.87316651  0.87655020  1
  N  N63  1  0.78893466  0.75515018  0.63203687  1
  N  N64  1  0.59240915  0.85365730  0.36228337  1
  N  N65  1  0.45037881  0.75246870  0.08592652  1
  N  N66  1  0.22952429  0.86482204  0.82431016  1
  N  N67  1  0.10832441  0.75611876  0.62163486  1
  N  N68  1  0.87863558  0.85689908  0.37044096  1
  N  N69  1  0.74461969  0.77595292  0.09013188  1
  N  N70  1  0.55081425  0.87066427  0.82436233  1
  N  N71  1  0.44249977  0.76596890  0.57493061  1
