# generated using pymatgen
data_Al31B5N36
_symmetry_space_group_name_H-M   'P 1'
_cell_length_a   9.16092780
_cell_length_b   9.24122502
_cell_length_c   9.76853050
_cell_angle_alpha   90.22903355
_cell_angle_beta   90.01667983
_cell_angle_gamma   60.22566260
_symmetry_Int_Tables_number   1
_chemical_formula_structural   Al31B5N36
_chemical_formula_sum   'Al31 B5 N36'
_cell_volume   717.80692903
_cell_formula_units_Z   1
loop_
 _symmetry_equiv_pos_site_id
 _symmetry_equiv_pos_as_xyz
  1  'x, y, z'
loop_
 _atom_site_type_symbol
 _atom_site_label
 _atom_site_symmetry_multiplicity
 _atom_site_fract_x
 _atom_site_fract_y
 _atom_site_fract_z
 _atom_site_occupancy
  B  B0  1  0.11212870  0.09475228  0.39373137  1
  B  B1  1  0.58279178  0.48576275  0.16076450  1
  B  B2  1  0.22817532  0.89424952  0.15527357  1
  B  B3  1  0.55175490  0.87520744  0.15314183  1
  B  B4  1  0.77784927  0.76127177  0.39164883  1
  Al  Al5  1  0.22362079  0.19734706  0.14932590  1
  Al  Al6  1  0.78116153  0.09078702  0.89352598  1
  Al  Al7  1  0.89343107  0.20290374  0.63820434  1
  Al  Al8  1  0.44671963  0.08532490  0.38915466  1
  Al  Al9  1  0.56133960  0.19798403  0.14604623  1
  Al  Al10  1  0.11556704  0.08826022  0.89576209  1
  Al  Al11  1  0.22167331  0.20300199  0.63748566  1
  Al  Al12  1  0.78273982  0.08581751  0.39606847  1
  Al  Al13  1  0.89903090  0.19294896  0.15073931  1
  Al  Al14  1  0.44595702  0.08809278  0.89767830  1
  Al  Al15  1  0.55499406  0.20404221  0.64554100  1
  Al  Al16  1  0.10616301  0.43093689  0.39348028  1
  Al  Al17  1  0.22913422  0.54598048  0.14491219  1
  Al  Al18  1  0.77361232  0.42853225  0.89715067  1
  Al  Al19  1  0.88506418  0.54321882  0.63904013  1
  Al  Al20  1  0.44661691  0.42440972  0.39426682  1
  Al  Al21  1  0.11004530  0.42738326  0.89526111  1
  Al  Al22  1  0.22274582  0.54038536  0.64570642  1
  Al  Al23  1  0.78392711  0.42658810  0.39243886  1
  Al  Al24  1  0.87077909  0.55153798  0.14963523  1
  Al  Al25  1  0.44978570  0.42966311  0.89796606  1
  Al  Al26  1  0.55344337  0.54404020  0.64415972  1
  Al  Al27  1  0.10894401  0.76586712  0.38618478  1
  Al  Al28  1  0.76936347  0.76378851  0.89575445  1
  Al  Al29  1  0.88876989  0.86783404  0.63806188  1
  Al  Al30  1  0.44853533  0.76014889  0.36304832  1
  Al  Al31  1  0.11437823  0.76483701  0.89887470  1
  Al  Al32  1  0.22666858  0.87063590  0.63352282  1
  Al  Al33  1  0.88545027  0.86751490  0.14667572  1
  Al  Al34  1  0.44115983  0.76801556  0.91222657  1
  Al  Al35  1  0.55438661  0.86827683  0.63327456  1
  N  N36  1  0.20801935  0.19587189  0.34292197  1
  N  N37  1  0.12153635  0.07533593  0.08890355  1
  N  N38  1  0.89159163  0.20554605  0.83500626  1
  N  N39  1  0.77885094  0.09182088  0.58775914  1
  N  N40  1  0.55760642  0.20274623  0.33716547  1
  N  N41  1  0.45440584  0.07665289  0.09597964  1
  N  N42  1  0.22188033  0.20445024  0.83456278  1
  N  N43  1  0.11394828  0.09009358  0.56113553  1
  N  N44  1  0.91433909  0.19157562  0.34394436  1
  N  N45  1  0.78320313  0.08847913  0.08773330  1
  N  N46  1  0.55445917  0.20591121  0.84078029  1
  N  N47  1  0.44564179  0.09188965  0.58160699  1
  N  N48  1  0.22471703  0.53817397  0.33565107  1
  N  N49  1  0.10749350  0.42942861  0.09119223  1
  N  N50  1  0.88538015  0.54107464  0.83635381  1
  N  N51  1  0.77676943  0.42672713  0.58381738  1
  N  N52  1  0.56415689  0.52420832  0.31288506  1
  N  N53  1  0.46571762  0.43137706  0.09463982  1
  N  N54  1  0.22420905  0.53950498  0.84218087  1
  N  N55  1  0.11096463  0.42817673  0.58679258  1
  N  N56  1  0.87515146  0.56489840  0.34205180  1
  N  N57  1  0.75780226  0.42833782  0.09759230  1
  N  N58  1  0.55220202  0.54778579  0.83823023  1
  N  N59  1  0.44693710  0.42648591  0.58666841  1
  N  N60  1  0.20877169  0.90052464  0.32173024  1
  N  N61  1  0.12253905  0.77368059  0.09492937  1
  N  N62  1  0.88973339  0.86711624  0.83471994  1
  N  N63  1  0.77499905  0.76155101  0.56039643  1
  N  N64  1  0.57983756  0.86168586  0.32139546  1
  N  N65  1  0.42404716  0.80500336  0.10785164  1
  N  N66  1  0.22562886  0.87166657  0.82820094  1
  N  N67  1  0.11274636  0.75972700  0.58010231  1
  N  N68  1  0.87696269  0.85774560  0.34042388  1
  N  N69  1  0.74520046  0.77432404  0.08795160  1
  N  N70  1  0.55264494  0.87092704  0.82736661  1
  N  N71  1  0.44667376  0.75566641  0.56358281  1
