# generated using pymatgen
data_Al31B5N36
_symmetry_space_group_name_H-M   'P 1'
_cell_length_a   9.16484033
_cell_length_b   9.23471180
_cell_length_c   10.08750317
_cell_angle_alpha   90.99546260
_cell_angle_beta   90.26569356
_cell_angle_gamma   60.22902701
_symmetry_Int_Tables_number   1
_chemical_formula_structural   Al31B5N36
_chemical_formula_sum   'Al31 B5 N36'
_cell_volume   740.95201678
_cell_formula_units_Z   1
loop_
 _symmetry_equiv_pos_site_id
 _symmetry_equiv_pos_as_xyz
  1  'x, y, z'
loop_
 _atom_site_type_symbol
 _atom_site_label
 _atom_site_symmetry_multiplicity
 _atom_site_fract_x
 _atom_site_fract_y
 _atom_site_fract_z
 _atom_site_occupancy
  B  B0  1  0.11173315  0.08996567  0.39749838  1
  B  B1  1  0.58553231  0.47954161  0.17010630  1
  B  B2  1  0.22575932  0.89238281  0.15625809  1
  B  B3  1  0.53723450  0.88302258  0.12052725  1
  B  B4  1  0.77290460  0.76202839  0.38196373  1
  Al  Al5  1  0.22736116  0.20126707  0.09525915  1
  Al  Al6  1  0.77901458  0.08434682  0.82950176  1
  Al  Al7  1  0.89588936  0.20199786  0.64360523  1
  Al  Al8  1  0.45142110  0.07974071  0.33128362  1
  Al  Al9  1  0.56611452  0.19114257  0.08409713  1
  Al  Al10  1  0.10994581  0.08753702  0.90528439  1
  Al  Al11  1  0.22539542  0.19771467  0.56850749  1
  Al  Al12  1  0.78003177  0.08221831  0.33781168  1
  Al  Al13  1  0.90239256  0.19995227  0.16253862  1
  Al  Al14  1  0.43528771  0.10265616  0.82802846  1
  Al  Al15  1  0.55753741  0.19703028  0.58018531  1
  Al  Al16  1  0.10236595  0.43957450  0.39520995  1
  Al  Al17  1  0.23101830  0.55052488  0.15569261  1
  Al  Al18  1  0.77423968  0.42508813  0.90803466  1
  Al  Al19  1  0.89177347  0.53341083  0.65779156  1
  Al  Al20  1  0.44508767  0.43046300  0.40144571  1
  Al  Al21  1  0.10633371  0.43715096  0.90933258  1
  Al  Al22  1  0.22242358  0.53798548  0.65212766  1
  Al  Al23  1  0.78532725  0.42741478  0.40308981  1
  Al  Al24  1  0.86156492  0.56149320  0.15651354  1
  Al  Al25  1  0.44865758  0.43360012  0.90586375  1
  Al  Al26  1  0.55561031  0.54043616  0.65380439  1
  Al  Al27  1  0.11655364  0.76516761  0.39182519  1
  Al  Al28  1  0.76532904  0.76314210  0.89240425  1
  Al  Al29  1  0.88565183  0.86417643  0.57888550  1
  Al  Al30  1  0.45255334  0.76003427  0.38364915  1
  Al  Al31  1  0.12413410  0.76183546  0.90596419  1
  Al  Al32  1  0.22534777  0.86819652  0.64253215  1
  Al  Al33  1  0.88736364  0.87557460  0.09035732  1
  Al  Al34  1  0.44024680  0.77061144  0.91196922  1
  Al  Al35  1  0.55762472  0.86229477  0.64087506  1
  N  N36  1  0.21411208  0.19339071  0.37463518  1
  N  N37  1  0.11703687  0.07486359  0.09657438  1
  N  N38  1  0.89345391  0.20686141  0.83844505  1
  N  N39  1  0.77730270  0.08434313  0.63978742  1
  N  N40  1  0.55676902  0.19819966  0.39104052  1
  N  N41  1  0.45643050  0.07544658  0.14169376  1
  N  N42  1  0.22394565  0.20694443  0.90062101  1
  N  N43  1  0.10968453  0.07997174  0.56363390  1
  N  N44  1  0.91847757  0.19353013  0.35141151  1
  N  N45  1  0.77875924  0.09153455  0.15108354  1
  N  N46  1  0.55912771  0.19979472  0.89564638  1
  N  N47  1  0.43652079  0.09954409  0.63900345  1
  N  N48  1  0.22664376  0.53962013  0.33960358  1
  N  N49  1  0.09925282  0.44803406  0.10167157  1
  N  N50  1  0.88763878  0.53430903  0.84904959  1
  N  N51  1  0.77845705  0.42369462  0.58953324  1
  N  N52  1  0.56654316  0.52287253  0.31820159  1
  N  N53  1  0.46488432  0.43373028  0.10274374  1
  N  N54  1  0.22549899  0.53854232  0.84481034  1
  N  N55  1  0.10987557  0.42857600  0.58762297  1
  N  N56  1  0.87166161  0.56941185  0.34583057  1
  N  N57  1  0.75713819  0.42825849  0.10492790  1
  N  N58  1  0.55426096  0.54531367  0.84421675  1
  N  N59  1  0.44504830  0.43042607  0.59182336  1
  N  N60  1  0.21501352  0.89806682  0.32481393  1
  N  N61  1  0.13622459  0.77525169  0.10125889  1
  N  N62  1  0.89156983  0.87157793  0.89917015  1
  N  N63  1  0.78174210  0.74970913  0.61254240  1
  N  N64  1  0.58896047  0.85417457  0.36563692  1
  N  N65  1  0.42093388  0.81320182  0.10120881  1
  N  N66  1  0.22407093  0.87370240  0.83177881  1
  N  N67  1  0.11846574  0.75456125  0.58339259  1
  N  N68  1  0.87708331  0.85544928  0.38151518  1
  N  N69  1  0.73091037  0.78082380  0.08897309  1
  N  N70  1  0.54832241  0.87122507  0.83374393  1
  N  N71  1  0.44521444  0.75217392  0.57593267  1
