# generated using pymatgen
data_Al31B5N36
_symmetry_space_group_name_H-M   'P 1'
_cell_length_a   9.12321485
_cell_length_b   9.20734966
_cell_length_c   10.09168672
_cell_angle_alpha   89.58870392
_cell_angle_beta   89.85200565
_cell_angle_gamma   60.32793168
_symmetry_Int_Tables_number   1
_chemical_formula_structural   Al31B5N36
_chemical_formula_sum   'Al31 B5 N36'
_cell_volume   736.53114108
_cell_formula_units_Z   1
loop_
 _symmetry_equiv_pos_site_id
 _symmetry_equiv_pos_as_xyz
  1  'x, y, z'
loop_
 _atom_site_type_symbol
 _atom_site_label
 _atom_site_symmetry_multiplicity
 _atom_site_fract_x
 _atom_site_fract_y
 _atom_site_fract_z
 _atom_site_occupancy
  B  B0  1  0.11093132  0.09381898  0.31327407  1
  B  B1  1  0.58955072  0.47286071  0.04883155  1
  B  B2  1  0.22830844  0.89018403  0.10602024  1
  B  B3  1  0.54166123  0.88512020  0.10432074  1
  B  B4  1  0.77335962  0.76526907  0.35317225  1
  Al  Al5  1  0.22301019  0.20163743  0.06907874  1
  Al  Al6  1  0.78310560  0.08880243  0.80877232  1
  Al  Al7  1  0.89262326  0.20524104  0.55609956  1
  Al  Al8  1  0.45107981  0.08547459  0.31486342  1
  Al  Al9  1  0.56297005  0.19282426  0.05878383  1
  Al  Al10  1  0.11712422  0.08708835  0.81294125  1
  Al  Al11  1  0.21920853  0.20441120  0.55419525  1
  Al  Al12  1  0.78184299  0.08792024  0.31117200  1
  Al  Al13  1  0.89834846  0.19169988  0.06431989  1
  Al  Al14  1  0.43942204  0.09575462  0.81173431  1
  Al  Al15  1  0.55473202  0.20547512  0.56002808  1
  Al  Al16  1  0.10443164  0.43497603  0.30883117  1
  Al  Al17  1  0.22957796  0.55117468  0.05816136  1
  Al  Al18  1  0.78129822  0.42190794  0.81514117  1
  Al  Al19  1  0.88566929  0.54228010  0.56280295  1
  Al  Al20  1  0.45042215  0.42817885  0.30409588  1
  Al  Al21  1  0.11276078  0.42392839  0.81130137  1
  Al  Al22  1  0.22428781  0.53812383  0.55882345  1
  Al  Al23  1  0.77570566  0.43316781  0.30480420  1
  Al  Al24  1  0.86657273  0.55257791  0.05728087  1
  Al  Al25  1  0.44636595  0.42540302  0.81549874  1
  Al  Al26  1  0.55764294  0.53230612  0.55875876  1
  Al  Al27  1  0.11202430  0.76815767  0.31095358  1
  Al  Al28  1  0.77960289  0.75749340  0.82051267  1
  Al  Al29  1  0.88580674  0.86843470  0.56003060  1
  Al  Al30  1  0.44978674  0.76984326  0.37482592  1
  Al  Al31  1  0.11515707  0.75942518  0.80706568  1
  Al  Al32  1  0.21246804  0.88169950  0.56596894  1
  Al  Al33  1  0.88356182  0.87177800  0.05975321  1
  Al  Al34  1  0.44203858  0.76494686  0.90796102  1
  Al  Al35  1  0.55056586  0.86612715  0.62807812  1
  N  N36  1  0.20964223  0.19643300  0.36110946  1
  N  N37  1  0.11914421  0.07970019  0.14354096  1
  N  N38  1  0.89322248  0.19958462  0.87621346  1
  N  N39  1  0.78040176  0.09211280  0.61708472  1
  N  N40  1  0.55560774  0.20810103  0.37024394  1
  N  N41  1  0.45371580  0.07855418  0.12369469  1
  N  N42  1  0.22111897  0.20457413  0.88056345  1
  N  N43  1  0.10818048  0.09990621  0.62544570  1
  N  N44  1  0.91149206  0.19816460  0.36206716  1
  N  N45  1  0.78128861  0.08785700  0.12495361  1
  N  N46  1  0.55885283  0.19962740  0.87185991  1
  N  N47  1  0.43834748  0.10109664  0.61949504  1
  N  N48  1  0.22649748  0.53990659  0.36701424  1
  N  N49  1  0.10394172  0.43982983  0.12071724  1
  N  N50  1  0.89116843  0.53326399  0.87177757  1
  N  N51  1  0.77706961  0.42542733  0.62443414  1
  N  N52  1  0.55954505  0.53370610  0.36966647  1
  N  N53  1  0.46597700  0.42662450  0.11231689  1
  N  N54  1  0.22299508  0.53782802  0.87167189  1
  N  N55  1  0.11195111  0.42530372  0.61790736  1
  N  N56  1  0.87273411  0.56804063  0.36679834  1
  N  N57  1  0.75784248  0.42718535  0.11417880  1
  N  N58  1  0.56578160  0.52096405  0.90324087  1
  N  N59  1  0.44630210  0.42607343  0.62697227  1
  N  N60  1  0.20204439  0.90647465  0.36948566  1
  N  N61  1  0.13381107  0.77904002  0.12184413  1
  N  N62  1  0.89360929  0.86892620  0.87248947  1
  N  N63  1  0.78499824  0.75524789  0.62853980  1
  N  N64  1  0.59056161  0.86061843  0.35824004  1
  N  N65  1  0.41880981  0.81606999  0.09453110  1
  N  N66  1  0.22401431  0.86783252  0.85754311  1
  N  N67  1  0.10932200  0.75897940  0.61611281  1
  N  N68  1  0.87892862  0.85603757  0.36619945  1
  N  N69  1  0.72997129  0.78368205  0.08609396  1
  N  N70  1  0.54727405  0.86524060  0.82132913  1
  N  N71  1  0.44212363  0.75986861  0.56780645  1
