# generated using pymatgen
data_Al31B5N36
_symmetry_space_group_name_H-M   'P 1'
_cell_length_a   9.16093451
_cell_length_b   9.24122934
_cell_length_c   9.76851641
_cell_angle_alpha   90.22904321
_cell_angle_beta   90.01667705
_cell_angle_gamma   60.22566626
_symmetry_Int_Tables_number   1
_chemical_formula_structural   Al31B5N36
_chemical_formula_sum   'Al31 B5 N36'
_cell_volume   717.80678043
_cell_formula_units_Z   1
loop_
 _symmetry_equiv_pos_site_id
 _symmetry_equiv_pos_as_xyz
  1  'x, y, z'
loop_
 _atom_site_type_symbol
 _atom_site_label
 _atom_site_symmetry_multiplicity
 _atom_site_fract_x
 _atom_site_fract_y
 _atom_site_fract_z
 _atom_site_occupancy
  B  B0  1  0.11227193  0.09458423  0.40218867  1
  B  B1  1  0.58293461  0.48559514  0.16922111  1
  B  B2  1  0.22831757  0.89408113  0.16372986  1
  B  B3  1  0.55189809  0.87503968  0.16159827  1
  B  B4  1  0.77799237  0.76110413  0.40010612  1
  Al  Al5  1  0.22376392  0.19717905  0.15778250  1
  Al  Al6  1  0.78130457  0.09061938  0.90198228  1
  Al  Al7  1  0.89357421  0.20273589  0.64666066  1
  Al  Al8  1  0.44686263  0.08515709  0.39761153  1
  Al  Al9  1  0.56148261  0.19781623  0.15450305  1
  Al  Al10  1  0.11571000  0.08809260  0.90421823  1
  Al  Al11  1  0.22181635  0.20283425  0.64594215  1
  Al  Al12  1  0.78288279  0.08564979  0.40452553  1
  Al  Al13  1  0.89917402  0.19278117  0.15919618  1
  Al  Al14  1  0.44610002  0.08792505  0.90613417  1
  Al  Al15  1  0.55513721  0.20387430  0.65399745  1
  Al  Al16  1  0.10630604  0.43076913  0.40193732  1
  Al  Al17  1  0.22927744  0.54581292  0.15336914  1
  Al  Al18  1  0.77375541  0.42836446  0.90560662  1
  Al  Al19  1  0.88520724  0.54305115  0.64749656  1
  Al  Al20  1  0.44675979  0.42424214  0.40272406  1
  Al  Al21  1  0.11018834  0.42721566  0.90371730  1
  Al  Al22  1  0.22288869  0.54021783  0.65416296  1
  Al  Al23  1  0.78407000  0.42642054  0.40089584  1
  Al  Al24  1  0.87092219  0.55137021  0.15809180  1
  Al  Al25  1  0.44992865  0.42949538  0.90642197  1
  Al  Al26  1  0.55358633  0.54387276  0.65261633  1
  Al  Al27  1  0.10908698  0.76569963  0.39464209  1
  Al  Al28  1  0.76950649  0.76362082  0.90421053  1
  Al  Al29  1  0.88891294  0.86766627  0.64651855  1
  Al  Al30  1  0.44867826  0.75998121  0.37150437  1
  Al  Al31  1  0.11452137  0.76466948  0.90733085  1
  Al  Al32  1  0.22681175  0.87046816  0.64197936  1
  Al  Al33  1  0.88559339  0.86734723  0.15513249  1
  Al  Al34  1  0.44130291  0.76784773  0.92068289  1
  Al  Al35  1  0.55452947  0.86810901  0.64173088  1
  N  N36  1  0.20816247  0.19570404  0.35137930  1
  N  N37  1  0.12167930  0.07516811  0.09736022  1
  N  N38  1  0.89173476  0.20537824  0.84346266  1
  N  N39  1  0.77899407  0.09165299  0.59621640  1
  N  N40  1  0.55774935  0.20257853  0.34562288  1
  N  N41  1  0.45454903  0.07648488  0.10443620  1
  N  N42  1  0.22202332  0.20428260  0.84301931  1
  N  N43  1  0.11409146  0.08992571  0.56959289  1
  N  N44  1  0.91448221  0.19140781  0.35240193  1
  N  N45  1  0.78334615  0.08831140  0.09619017  1
  N  N46  1  0.55460230  0.20574337  0.84923681  1
  N  N47  1  0.44578479  0.09172183  0.59006414  1
  N  N48  1  0.22485990  0.53800647  0.34410860  1
  N  N49  1  0.10763671  0.42926105  0.09964902  1
  N  N50  1  0.88552323  0.54090695  0.84481035  1
  N  N51  1  0.77691243  0.42655944  0.59227464  1
  N  N52  1  0.56429988  0.52404046  0.32134223  1
  N  N53  1  0.46586056  0.43120930  0.10309652  1
  N  N54  1  0.22435195  0.53933751  0.85063748  1
  N  N55  1  0.11110768  0.42800901  0.59524982  1
  N  N56  1  0.87529455  0.56473070  0.35050910  1
  N  N57  1  0.75794521  0.42817010  0.10604905  1
  N  N58  1  0.55234506  0.54761811  0.84668689  1
  N  N59  1  0.44708011  0.42631824  0.59512582  1
  N  N60  1  0.20891448  0.90035686  0.33018757  1
  N  N61  1  0.12268274  0.77351339  0.10338638  1
  N  N62  1  0.88987655  0.86694850  0.84317668  1
  N  N63  1  0.77514204  0.76138337  0.56885378  1
  N  N64  1  0.57998075  0.86151813  0.32985263  1
  N  N65  1  0.42419034  0.80483514  0.11630848  1
  N  N66  1  0.22577207  0.87149886  0.83665749  1
  N  N67  1  0.11288929  0.75955948  0.58855970  1
  N  N68  1  0.87710582  0.85757786  0.34888130  1
  N  N69  1  0.74534376  0.77415627  0.09640823  1
  N  N70  1  0.55278794  0.87075917  0.83582309  1
  N  N71  1  0.44681667  0.75549872  0.57203940  1
