# generated using pymatgen
data_Al31B5N36
_symmetry_space_group_name_H-M   'P 1'
_cell_length_a   9.14697311
_cell_length_b   9.22946602
_cell_length_c   9.92314783
_cell_angle_alpha   89.93389899
_cell_angle_beta   90.31430499
_cell_angle_gamma   60.38167894
_symmetry_Int_Tables_number   1
_chemical_formula_structural   Al31B5N36
_chemical_formula_sum   'Al31 B5 N36'
_cell_volume   728.25042543
_cell_formula_units_Z   1
loop_
 _symmetry_equiv_pos_site_id
 _symmetry_equiv_pos_as_xyz
  1  'x, y, z'
loop_
 _atom_site_type_symbol
 _atom_site_label
 _atom_site_symmetry_multiplicity
 _atom_site_fract_x
 _atom_site_fract_y
 _atom_site_fract_z
 _atom_site_occupancy
  B  B0  1  0.11162928  0.08951353  0.30591864  1
  B  B1  1  0.58775502  0.47392605  0.04918347  1
  B  B2  1  0.21713050  0.88955045  0.07143372  1
  B  B3  1  0.53851992  0.88331877  0.11570962  1
  B  B4  1  0.76891129  0.76721186  0.31546008  1
  Al  Al5  1  0.22367881  0.19884873  0.06995533  1
  Al  Al6  1  0.78043896  0.08955988  0.80969900  1
  Al  Al7  1  0.89499083  0.20375657  0.55790084  1
  Al  Al8  1  0.44929584  0.08625449  0.31935551  1
  Al  Al9  1  0.56167742  0.19183844  0.05918521  1
  Al  Al10  1  0.11632170  0.09048458  0.81941077  1
  Al  Al11  1  0.21799278  0.20459788  0.55539894  1
  Al  Al12  1  0.78252292  0.08793351  0.31164167  1
  Al  Al13  1  0.89490632  0.19421995  0.06429955  1
  Al  Al14  1  0.44149572  0.09133542  0.80795911  1
  Al  Al15  1  0.55532214  0.20805638  0.55990588  1
  Al  Al16  1  0.10550483  0.43270957  0.31017541  1
  Al  Al17  1  0.22852636  0.54704579  0.05956045  1
  Al  Al18  1  0.78002256  0.42543946  0.81492249  1
  Al  Al19  1  0.88589843  0.54352563  0.55504270  1
  Al  Al20  1  0.44945303  0.42816251  0.30492660  1
  Al  Al21  1  0.11019559  0.42769360  0.81265055  1
  Al  Al22  1  0.22388989  0.54177351  0.56264919  1
  Al  Al23  1  0.77747601  0.42911196  0.30539341  1
  Al  Al24  1  0.87029687  0.54991362  0.06558861  1
  Al  Al25  1  0.44569667  0.42534596  0.81559127  1
  Al  Al26  1  0.55731319  0.53567891  0.55788930  1
  Al  Al27  1  0.11077243  0.76794510  0.30684241  1
  Al  Al28  1  0.77803896  0.75866983  0.81088240  1
  Al  Al29  1  0.88958109  0.86783436  0.55563296  1
  Al  Al30  1  0.44674588  0.76815113  0.35683145  1
  Al  Al31  1  0.11328591  0.76582968  0.81952533  1
  Al  Al32  1  0.21406231  0.88184208  0.55784197  1
  Al  Al33  1  0.88576721  0.86987711  0.06740332  1
  Al  Al34  1  0.45205115  0.76279952  0.91387666  1
  Al  Al35  1  0.55866448  0.86934673  0.58756036  1
  N  N36  1  0.20926270  0.19469504  0.35970632  1
  N  N37  1  0.11709236  0.07825604  0.13647537  1
  N  N38  1  0.89091767  0.20223974  0.87396661  1
  N  N39  1  0.78136584  0.09149513  0.61579531  1
  N  N40  1  0.55579930  0.20857082  0.36859207  1
  N  N41  1  0.45568711  0.07380557  0.12454849  1
  N  N42  1  0.22274694  0.20701733  0.87867521  1
  N  N43  1  0.11245877  0.09429971  0.62987322  1
  N  N44  1  0.91331504  0.19576533  0.36100887  1
  N  N45  1  0.77965091  0.08926085  0.12315742  1
  N  N46  1  0.55663288  0.20041498  0.86994831  1
  N  N47  1  0.43958695  0.10145314  0.61485493  1
  N  N48  1  0.22579041  0.54128041  0.36807441  1
  N  N49  1  0.10830950  0.43402407  0.12008433  1
  N  N50  1  0.88756151  0.53965649  0.87608294  1
  N  N51  1  0.77928292  0.42630390  0.62186330  1
  N  N52  1  0.56059808  0.53297948  0.36701207  1
  N  N53  1  0.46502317  0.42576240  0.11115760  1
  N  N54  1  0.22272246  0.54078192  0.87055620  1
  N  N55  1  0.11085694  0.42701041  0.61681676  1
  N  N56  1  0.87368221  0.56443956  0.35903005  1
  N  N57  1  0.75666190  0.42697054  0.11312410  1
  N  N58  1  0.56369987  0.52334210  0.90140308  1
  N  N59  1  0.44752431  0.42756163  0.62591785  1
  N  N60  1  0.20084154  0.90536269  0.36446425  1
  N  N61  1  0.12728854  0.77361882  0.11806142  1
  N  N62  1  0.88816297  0.86988174  0.87665359  1
  N  N63  1  0.78824441  0.75527542  0.62297280  1
  N  N64  1  0.58684359  0.86347861  0.37253655  1
  N  N65  1  0.42779513  0.80641970  0.10614428  1
  N  N66  1  0.21555564  0.87990259  0.90549542  1
  N  N67  1  0.11179174  0.76449583  0.62438831  1
  N  N68  1  0.88000688  0.85676259  0.36022658  1
  N  N69  1  0.74199357  0.77622041  0.13582264  1
  N  N70  1  0.55046334  0.86527107  0.82893468  1
  N  N71  1  0.44001804  0.76052488  0.56920510  1
