# generated using pymatgen
data_Al31B5N36
_symmetry_space_group_name_H-M   'P 1'
_cell_length_a   9.12219547
_cell_length_b   9.21706301
_cell_length_c   10.23750603
_cell_angle_alpha   90.26987364
_cell_angle_beta   89.92206719
_cell_angle_gamma   60.41476310
_symmetry_Int_Tables_number   1
_chemical_formula_structural   Al31B5N36
_chemical_formula_sum   'Al31 B5 N36'
_cell_volume   748.52788929
_cell_formula_units_Z   1
loop_
 _symmetry_equiv_pos_site_id
 _symmetry_equiv_pos_as_xyz
  1  'x, y, z'
loop_
 _atom_site_type_symbol
 _atom_site_label
 _atom_site_symmetry_multiplicity
 _atom_site_fract_x
 _atom_site_fract_y
 _atom_site_fract_z
 _atom_site_occupancy
  B  B0  1  0.11684130  0.08726631  0.35287276  1
  B  B1  1  0.58910596  0.48419896  0.16284322  1
  B  B2  1  0.22838635  0.89220440  0.09864929  1
  B  B3  1  0.54063761  0.88213691  0.09558394  1
  B  B4  1  0.77631562  0.76509343  0.35631264  1
  Al  Al5  1  0.22514082  0.19839956  0.06216001  1
  Al  Al6  1  0.78003263  0.08831933  0.80920937  1
  Al  Al7  1  0.89681912  0.19509427  0.55912833  1
  Al  Al8  1  0.45263947  0.07882830  0.31410278  1
  Al  Al9  1  0.56206004  0.19488263  0.06104238  1
  Al  Al10  1  0.11267584  0.09482954  0.81972886  1
  Al  Al11  1  0.21977230  0.20455079  0.56078850  1
  Al  Al12  1  0.78472427  0.08345916  0.31031555  1
  Al  Al13  1  0.89441918  0.19229947  0.06532555  1
  Al  Al14  1  0.44045098  0.09770745  0.80787789  1
  Al  Al15  1  0.55668823  0.20336196  0.55860155  1
  Al  Al16  1  0.10465105  0.43298141  0.30813679  1
  Al  Al17  1  0.23433520  0.54785043  0.06341550  1
  Al  Al18  1  0.77619691  0.42415227  0.85344708  1
  Al  Al19  1  0.89101937  0.54306076  0.56143112  1
  Al  Al20  1  0.44033294  0.42253956  0.31313538  1
  Al  Al21  1  0.11188219  0.42615935  0.81303737  1
  Al  Al22  1  0.22329944  0.53768746  0.55917283  1
  Al  Al23  1  0.78393633  0.42806536  0.35684451  1
  Al  Al24  1  0.86722924  0.55208170  0.06942736  1
  Al  Al25  1  0.44298934  0.42110863  0.81189806  1
  Al  Al26  1  0.55804584  0.54065379  0.63081828  1
  Al  Al27  1  0.11447838  0.77080569  0.31042496  1
  Al  Al28  1  0.77847475  0.75763757  0.82209148  1
  Al  Al29  1  0.88994040  0.86629383  0.56095930  1
  Al  Al30  1  0.44936568  0.76578901  0.37960148  1
  Al  Al31  1  0.11137761  0.75485850  0.81032251  1
  Al  Al32  1  0.22848518  0.86955486  0.62423069  1
  Al  Al33  1  0.88395458  0.87126616  0.06050231  1
  Al  Al34  1  0.44261344  0.76414442  0.89102154  1
  Al  Al35  1  0.55653773  0.86582415  0.62173945  1
  N  N36  1  0.20841755  0.19393108  0.36849623  1
  N  N37  1  0.12229349  0.07167880  0.09568950  1
  N  N38  1  0.88735725  0.20037345  0.87590393  1
  N  N39  1  0.77998565  0.08952778  0.62075678  1
  N  N40  1  0.55818316  0.20402418  0.37218160  1
  N  N41  1  0.45300947  0.07560836  0.12444215  1
  N  N42  1  0.22362121  0.20869800  0.87619999  1
  N  N43  1  0.10763866  0.10253426  0.63060295  1
  N  N44  1  0.92188828  0.18279717  0.36707828  1
  N  N45  1  0.78006557  0.08713771  0.12706777  1
  N  N46  1  0.55766039  0.20156127  0.87503418  1
  N  N47  1  0.44050744  0.09964804  0.61827675  1
  N  N48  1  0.22133897  0.54246067  0.37134710  1
  N  N49  1  0.10846741  0.43518594  0.12312641  1
  N  N50  1  0.89164644  0.53478429  0.87899609  1
  N  N51  1  0.77521409  0.42512272  0.56625272  1
  N  N52  1  0.55600434  0.54316428  0.30577209  1
  N  N53  1  0.46582301  0.42191853  0.12397949  1
  N  N54  1  0.22438598  0.53768118  0.87780941  1
  N  N55  1  0.11179210  0.42583113  0.62269793  1
  N  N56  1  0.87876640  0.57172049  0.36877275  1
  N  N57  1  0.76408540  0.42298259  0.11652772  1
  N  N58  1  0.55501163  0.54386529  0.82032416  1
  N  N59  1  0.44257612  0.42102316  0.62250049  1
  N  N60  1  0.21057333  0.90495130  0.36028764  1
  N  N61  1  0.13347482  0.77685527  0.12018073  1
  N  N62  1  0.89235502  0.87047882  0.87523416  1
  N  N63  1  0.78974073  0.75263446  0.63131063  1
  N  N64  1  0.59267861  0.85735075  0.36426771  1
  N  N65  1  0.42058482  0.81060126  0.07551730  1
  N  N66  1  0.23083638  0.86511147  0.81835775  1
  N  N67  1  0.10894421  0.75448206  0.62045484  1
  N  N68  1  0.88079987  0.85700051  0.36858891  1
  N  N69  1  0.72931132  0.78414651  0.08554900  1
  N  N70  1  0.54780073  0.87002024  0.81537999  1
  N  N71  1  0.44822722  0.75163758  0.56377651  1
