# generated using pymatgen
data_Al31B5N36
_symmetry_space_group_name_H-M   'P 1'
_cell_length_a   9.11688304
_cell_length_b   9.22471246
_cell_length_c   10.20126585
_cell_angle_alpha   90.28815260
_cell_angle_beta   89.70818127
_cell_angle_gamma   60.31511876
_symmetry_Int_Tables_number   1
_chemical_formula_structural   Al31B5N36
_chemical_formula_sum   'Al31 B5 N36'
_cell_volume   745.30180601
_cell_formula_units_Z   1
loop_
 _symmetry_equiv_pos_site_id
 _symmetry_equiv_pos_as_xyz
  1  'x, y, z'
loop_
 _atom_site_type_symbol
 _atom_site_label
 _atom_site_symmetry_multiplicity
 _atom_site_fract_x
 _atom_site_fract_y
 _atom_site_fract_z
 _atom_site_occupancy
  B  B0  1  0.11576464  0.09225378  0.30520694  1
  B  B1  1  0.58884744  0.48432421  0.15493580  1
  B  B2  1  0.23390361  0.88786327  0.13202779  1
  B  B3  1  0.53967413  0.88550055  0.09639458  1
  B  B4  1  0.77711667  0.76494778  0.35567903  1
  Al  Al5  1  0.22417770  0.20125681  0.06753339  1
  Al  Al6  1  0.78199190  0.08822910  0.80943976  1
  Al  Al7  1  0.90104000  0.19031577  0.55096044  1
  Al  Al8  1  0.45355476  0.08104602  0.31360235  1
  Al  Al9  1  0.56197883  0.19574302  0.05886063  1
  Al  Al10  1  0.10961010  0.09719002  0.81149246  1
  Al  Al11  1  0.22057418  0.20190756  0.55222262  1
  Al  Al12  1  0.78428617  0.08393136  0.30967081  1
  Al  Al13  1  0.89931847  0.18768857  0.07109308  1
  Al  Al14  1  0.43868152  0.09707671  0.80780738  1
  Al  Al15  1  0.55770507  0.20292568  0.55892217  1
  Al  Al16  1  0.10710048  0.43342289  0.30792494  1
  Al  Al17  1  0.23262607  0.55005611  0.06119813  1
  Al  Al18  1  0.76419092  0.42618313  0.89127404  1
  Al  Al19  1  0.89298571  0.54103524  0.56228048  1
  Al  Al20  1  0.44363967  0.42244512  0.31097524  1
  Al  Al21  1  0.10838781  0.42395743  0.81391200  1
  Al  Al22  1  0.22573526  0.53502206  0.55904472  1
  Al  Al23  1  0.78212015  0.42852193  0.36933746  1
  Al  Al24  1  0.86986800  0.55713313  0.06963537  1
  Al  Al25  1  0.44186957  0.42132121  0.81090317  1
  Al  Al26  1  0.56370044  0.53782577  0.63406572  1
  Al  Al27  1  0.11425611  0.76729996  0.30934935  1
  Al  Al28  1  0.77662818  0.75515643  0.82138464  1
  Al  Al29  1  0.88976181  0.86545059  0.56075407  1
  Al  Al30  1  0.45275574  0.76330756  0.37453260  1
  Al  Al31  1  0.10954559  0.75414726  0.80933704  1
  Al  Al32  1  0.23135793  0.86526199  0.62535259  1
  Al  Al33  1  0.88329302  0.87207902  0.05890426  1
  Al  Al34  1  0.43710407  0.76731060  0.89269353  1
  Al  Al35  1  0.55578062  0.86538086  0.61916798  1
  N  N36  1  0.21102931  0.19718534  0.36095804  1
  N  N37  1  0.11882794  0.08543928  0.14225705  1
  N  N38  1  0.89302615  0.19467469  0.88238183  1
  N  N39  1  0.78219476  0.08920207  0.61983496  1
  N  N40  1  0.55903493  0.20504466  0.37196391  1
  N  N41  1  0.45368526  0.07792577  0.12328173  1
  N  N42  1  0.22055858  0.20494569  0.88039806  1
  N  N43  1  0.11046736  0.09839421  0.62383811  1
  N  N44  1  0.92025359  0.18399294  0.35872965  1
  N  N45  1  0.77924958  0.08749453  0.12625670  1
  N  N46  1  0.55711241  0.20128908  0.87302238  1
  N  N47  1  0.43960542  0.09954414  0.61696935  1
  N  N48  1  0.22458802  0.54195556  0.37092758  1
  N  N49  1  0.10776113  0.43882598  0.12273064  1
  N  N50  1  0.88902018  0.53402493  0.87979332  1
  N  N51  1  0.77610747  0.42276620  0.55829662  1
  N  N52  1  0.56481161  0.53880664  0.29796087  1
  N  N53  1  0.46396081  0.42335224  0.12087800  1
  N  N54  1  0.22207084  0.53650384  0.87570834  1
  N  N55  1  0.11374621  0.42199987  0.62178667  1
  N  N56  1  0.87936575  0.57169274  0.36673947  1
  N  N57  1  0.75331758  0.43002825  0.08793959  1
  N  N58  1  0.55439123  0.54357779  0.82264535  1
  N  N59  1  0.44493277  0.42076249  0.62228495  1
  N  N60  1  0.22123634  0.89727109  0.33162790  1
  N  N61  1  0.12962152  0.77803031  0.11957567  1
  N  N62  1  0.88999118  0.86941186  0.87336729  1
  N  N63  1  0.78938240  0.75133759  0.63032431  1
  N  N64  1  0.59311011  0.85835323  0.36373694  1
  N  N65  1  0.41597099  0.81765965  0.07782183  1
  N  N66  1  0.22694191  0.86696961  0.81765539  1
  N  N67  1  0.10968957  0.75313312  0.61819704  1
  N  N68  1  0.88122992  0.85703385  0.36836541  1
  N  N69  1  0.72814680  0.78693142  0.08662914  1
  N  N70  1  0.54524619  0.86946816  0.81450441  1
  N  N71  1  0.44936393  0.74815132  0.56028953  1
