# generated using pymatgen
data_Al31B5N36
_symmetry_space_group_name_H-M   'P 1'
_cell_length_a   9.14930070
_cell_length_b   9.22769537
_cell_length_c   10.20413723
_cell_angle_alpha   91.03908534
_cell_angle_beta   90.03764223
_cell_angle_gamma   60.18328221
_symmetry_Int_Tables_number   1
_chemical_formula_structural   Al31B5N36
_chemical_formula_sum   'Al31 B5 N36'
_cell_volume   747.30107891
_cell_formula_units_Z   1
loop_
 _symmetry_equiv_pos_site_id
 _symmetry_equiv_pos_as_xyz
  1  'x, y, z'
loop_
 _atom_site_type_symbol
 _atom_site_label
 _atom_site_symmetry_multiplicity
 _atom_site_fract_x
 _atom_site_fract_y
 _atom_site_fract_z
 _atom_site_occupancy
  B  B0  1  0.11454121  0.09797204  0.30897198  1
  B  B1  1  0.58332449  0.48185590  0.15887002  1
  B  B2  1  0.23242740  0.88928663  0.15498693  1
  B  B3  1  0.53915255  0.88314052  0.10355717  1
  B  B4  1  0.77477052  0.76467815  0.35786362  1
  Al  Al5  1  0.22641215  0.19408096  0.07940852  1
  Al  Al6  1  0.77989539  0.09235820  0.81782875  1
  Al  Al7  1  0.89990839  0.19206452  0.56069474  1
  Al  Al8  1  0.45374506  0.08016950  0.31953287  1
  Al  Al9  1  0.56484177  0.18939558  0.07027969  1
  Al  Al10  1  0.10678712  0.10361240  0.82113861  1
  Al  Al11  1  0.22418258  0.19398800  0.55611107  1
  Al  Al12  1  0.78288263  0.08568076  0.31792270  1
  Al  Al13  1  0.89588243  0.19133117  0.07829861  1
  Al  Al14  1  0.43585174  0.10290120  0.81562092  1
  Al  Al15  1  0.56163971  0.19678851  0.56613747  1
  Al  Al16  1  0.10381265  0.43868454  0.38193891  1
  Al  Al17  1  0.23170833  0.54313988  0.14005939  1
  Al  Al18  1  0.76712299  0.43469988  0.90071283  1
  Al  Al19  1  0.89594903  0.52444439  0.64253290  1
  Al  Al20  1  0.44348880  0.43231508  0.38897995  1
  Al  Al21  1  0.10599200  0.43329704  0.90009667  1
  Al  Al22  1  0.22761726  0.52646962  0.63840743  1
  Al  Al23  1  0.78246636  0.43190540  0.38207730  1
  Al  Al24  1  0.85999552  0.56318969  0.14146786  1
  Al  Al25  1  0.44710905  0.43449319  0.89464444  1
  Al  Al26  1  0.55700928  0.53941632  0.64170565  1
  Al  Al27  1  0.10684438  0.77269727  0.31918256  1
  Al  Al28  1  0.77162089  0.76212662  0.83445007  1
  Al  Al29  1  0.89093576  0.86126417  0.56827580  1
  Al  Al30  1  0.45468779  0.75988759  0.37772108  1
  Al  Al31  1  0.10792181  0.76148925  0.82616860  1
  Al  Al32  1  0.23139488  0.86575119  0.63888584  1
  Al  Al33  1  0.88661074  0.86937198  0.06691974  1
  Al  Al34  1  0.43500033  0.77425407  0.90405316  1
  Al  Al35  1  0.55620421  0.86569271  0.62761246  1
  N  N36  1  0.21393214  0.18956049  0.36540571  1
  N  N37  1  0.11240389  0.09154859  0.15027180  1
  N  N38  1  0.89005049  0.20012922  0.89098949  1
  N  N39  1  0.78283908  0.08968117  0.62874582  1
  N  N40  1  0.56043832  0.19835104  0.37802106  1
  N  N41  1  0.45532743  0.07583148  0.13155788  1
  N  N42  1  0.22386469  0.20035968  0.89290405  1
  N  N43  1  0.11001713  0.10050793  0.63351562  1
  N  N44  1  0.92184010  0.18317551  0.36952087  1
  N  N45  1  0.78004857  0.08794223  0.13514234  1
  N  N46  1  0.55790285  0.20003506  0.88339527  1
  N  N47  1  0.43812255  0.10293927  0.62636104  1
  N  N48  1  0.22667972  0.53792299  0.32656742  1
  N  N49  1  0.09879140  0.44409633  0.08830448  1
  N  N50  1  0.89185589  0.52443125  0.83264831  1
  N  N51  1  0.77550252  0.42791529  0.56920561  1
  N  N52  1  0.56252009  0.52666760  0.30539715  1
  N  N53  1  0.46463970  0.43367202  0.08956540  1
  N  N54  1  0.22754558  0.52778402  0.83164974  1
  N  N55  1  0.11072170  0.42745416  0.56905633  1
  N  N56  1  0.87278693  0.57204267  0.33081908  1
  N  N57  1  0.75122385  0.43588300  0.09591044  1
  N  N58  1  0.55250814  0.54573100  0.83061324  1
  N  N59  1  0.44680620  0.43070252  0.57664392  1
  N  N60  1  0.22848585  0.89225203  0.31666976  1
  N  N61  1  0.12092085  0.77978189  0.12552853  1
  N  N62  1  0.88854199  0.87283295  0.88225433  1
  N  N63  1  0.78718419  0.75413166  0.63569132  1
  N  N64  1  0.59232322  0.85559730  0.36589336  1
  N  N65  1  0.41665101  0.81763511  0.08942425  1
  N  N66  1  0.22547864  0.87170972  0.82900583  1
  N  N67  1  0.11110784  0.75650735  0.62021250  1
  N  N68  1  0.87832891  0.85651110  0.37602071  1
  N  N69  1  0.72914220  0.78271913  0.08254297  1
  N  N70  1  0.54161193  0.87336060  0.82180149  1
  N  N71  1  0.44541574  0.75338061  0.56540654  1
