# generated using pymatgen
data_Al31B5N36
_symmetry_space_group_name_H-M   'P 1'
_cell_length_a   9.12566159
_cell_length_b   9.21224120
_cell_length_c   10.10517126
_cell_angle_alpha   89.59030440
_cell_angle_beta   89.88214532
_cell_angle_gamma   60.27167890
_symmetry_Int_Tables_number   1
_chemical_formula_structural   Al31B5N36
_chemical_formula_sum   'Al31 B5 N36'
_cell_volume   737.69130183
_cell_formula_units_Z   1
loop_
 _symmetry_equiv_pos_site_id
 _symmetry_equiv_pos_as_xyz
  1  'x, y, z'
loop_
 _atom_site_type_symbol
 _atom_site_label
 _atom_site_symmetry_multiplicity
 _atom_site_fract_x
 _atom_site_fract_y
 _atom_site_fract_z
 _atom_site_occupancy
  B  B0  1  0.11141630  0.09465037  0.31218365  1
  B  B1  1  0.58871455  0.47351920  0.04849343  1
  B  B2  1  0.22913711  0.89127758  0.12304663  1
  B  B3  1  0.53964040  0.88685943  0.10147499  1
  B  B4  1  0.77202513  0.76562288  0.35373183  1
  Al  Al5  1  0.22228828  0.20280214  0.06979374  1
  Al  Al6  1  0.78324683  0.08829576  0.80868007  1
  Al  Al7  1  0.89456650  0.20283436  0.55432366  1
  Al  Al8  1  0.45090076  0.08550119  0.31486673  1
  Al  Al9  1  0.56250497  0.19334448  0.05893979  1
  Al  Al10  1  0.11451988  0.09183168  0.81212548  1
  Al  Al11  1  0.21973994  0.20313802  0.55245791  1
  Al  Al12  1  0.78161057  0.08850274  0.31131940  1
  Al  Al13  1  0.89704617  0.19318913  0.06591345  1
  Al  Al14  1  0.43996309  0.09554830  0.81127267  1
  Al  Al15  1  0.55531037  0.20524278  0.55988468  1
  Al  Al16  1  0.10371105  0.43590387  0.30866604  1
  Al  Al17  1  0.22916290  0.55138102  0.05945469  1
  Al  Al18  1  0.78116194  0.42144964  0.81481499  1
  Al  Al19  1  0.88647867  0.54126171  0.56307909  1
  Al  Al20  1  0.45034820  0.42887148  0.30434290  1
  Al  Al21  1  0.11311989  0.42262288  0.81082965  1
  Al  Al22  1  0.22467307  0.53644285  0.55722153  1
  Al  Al23  1  0.77394151  0.43483274  0.30536678  1
  Al  Al24  1  0.86556248  0.55313616  0.05711965  1
  Al  Al25  1  0.44650239  0.42488405  0.81522172  1
  Al  Al26  1  0.55950760  0.53049988  0.55844156  1
  Al  Al27  1  0.11282686  0.76981867  0.31262168  1
  Al  Al28  1  0.77972560  0.75697527  0.82086490  1
  Al  Al29  1  0.88697199  0.86797956  0.55853813  1
  Al  Al30  1  0.44350656  0.77413493  0.38099269  1
  Al  Al31  1  0.11142466  0.75421124  0.80671561  1
  Al  Al32  1  0.22519394  0.87106153  0.61438463  1
  Al  Al33  1  0.88279154  0.87224923  0.06121677  1
  Al  Al34  1  0.43876647  0.76627389  0.90312840  1
  Al  Al35  1  0.55407108  0.86629216  0.62691741  1
  N  N36  1  0.20958029  0.19812525  0.36049042  1
  N  N37  1  0.11664887  0.08452298  0.14419912  1
  N  N38  1  0.89370972  0.19833352  0.87772745  1
  N  N39  1  0.78123989  0.09122455  0.61735653  1
  N  N40  1  0.55539195  0.20846237  0.37031679  1
  N  N41  1  0.45323662  0.07921270  0.12371840  1
  N  N42  1  0.22188205  0.20328276  0.88138640  1
  N  N43  1  0.10745848  0.10250966  0.62483599  1
  N  N44  1  0.91048690  0.19898076  0.36173204  1
  N  N45  1  0.78058894  0.08853151  0.12525557  1
  N  N46  1  0.55911162  0.19938011  0.87199650  1
  N  N47  1  0.43878095  0.10111734  0.61935742  1
  N  N48  1  0.22620652  0.54030036  0.36599826  1
  N  N49  1  0.10267639  0.44123071  0.12067876  1
  N  N50  1  0.89144813  0.53240033  0.87172719  1
  N  N51  1  0.77848610  0.42351876  0.62448335  1
  N  N52  1  0.55763239  0.53594292  0.37010633  1
  N  N53  1  0.46569043  0.42718022  0.11236811  1
  N  N54  1  0.22354123  0.53586690  0.87314237  1
  N  N55  1  0.11305550  0.42371684  0.61784126  1
  N  N56  1  0.87210010  0.56854887  0.36712224  1
  N  N57  1  0.75630254  0.42870043  0.11424132  1
  N  N58  1  0.56495131  0.52140446  0.90277821  1
  N  N59  1  0.44650107  0.42598961  0.62696963  1
  N  N60  1  0.20588796  0.90633057  0.35672552  1
  N  N61  1  0.13299565  0.78044812  0.12016175  1
  N  N62  1  0.89358365  0.86881212  0.87408780  1
  N  N63  1  0.78728848  0.75435100  0.62898297  1
  N  N64  1  0.58905553  0.86057262  0.35916922  1
  N  N65  1  0.41285035  0.82130446  0.08732921  1
  N  N66  1  0.23284428  0.86140857  0.81954115  1
  N  N67  1  0.10792073  0.75453201  0.61568937  1
  N  N68  1  0.87808459  0.85646082  0.36546786  1
  N  N69  1  0.72785872  0.78456529  0.08491335  1
  N  N70  1  0.54798191  0.86542756  0.82071523  1
  N  N71  1  0.44625115  0.75814745  0.56957325  1
