# generated using pymatgen
data_Al31B5N36
_symmetry_space_group_name_H-M   'P 1'
_cell_length_a   9.15261903
_cell_length_b   9.19282820
_cell_length_c   10.31288033
_cell_angle_alpha   91.40597419
_cell_angle_beta   90.70858478
_cell_angle_gamma   60.22568020
_symmetry_Int_Tables_number   1
_chemical_formula_structural   Al31B5N36
_chemical_formula_sum   'Al31 B5 N36'
_cell_volume   752.93503355
_cell_formula_units_Z   1
loop_
 _symmetry_equiv_pos_site_id
 _symmetry_equiv_pos_as_xyz
  1  'x, y, z'
loop_
 _atom_site_type_symbol
 _atom_site_label
 _atom_site_symmetry_multiplicity
 _atom_site_fract_x
 _atom_site_fract_y
 _atom_site_fract_z
 _atom_site_occupancy
  B  B0  1  0.11692443  0.08628406  0.34975688  1
  B  B1  1  0.58375161  0.48107483  0.15898786  1
  B  B2  1  0.22908513  0.88900372  0.09320380  1
  B  B3  1  0.53819105  0.88227141  0.09783327  1
  B  B4  1  0.77186658  0.76382933  0.35776725  1
  Al  Al5  1  0.22812368  0.19437740  0.06937455  1
  Al  Al6  1  0.77533116  0.08819227  0.82084953  1
  Al  Al7  1  0.88564087  0.20883570  0.63339419  1
  Al  Al8  1  0.45135796  0.07787906  0.31801447  1
  Al  Al9  1  0.56244666  0.19072280  0.07179174  1
  Al  Al10  1  0.11419578  0.09771562  0.82952890  1
  Al  Al11  1  0.22240458  0.19656072  0.55992198  1
  Al  Al12  1  0.78338062  0.07969845  0.31991529  1
  Al  Al13  1  0.90083661  0.19389643  0.12953364  1
  Al  Al14  1  0.43664254  0.10604076  0.81189418  1
  Al  Al15  1  0.55772265  0.19873643  0.56320510  1
  Al  Al16  1  0.10264140  0.43968864  0.38242631  1
  Al  Al17  1  0.22998300  0.55389905  0.14337555  1
  Al  Al18  1  0.77174222  0.42910488  0.89993910  1
  Al  Al19  1  0.89805249  0.52415829  0.64282450  1
  Al  Al20  1  0.44408141  0.43197037  0.38717861  1
  Al  Al21  1  0.10619708  0.43842742  0.89757139  1
  Al  Al22  1  0.22316434  0.53758022  0.64010909  1
  Al  Al23  1  0.78626345  0.42554119  0.38516752  1
  Al  Al24  1  0.86096931  0.56215016  0.14241712  1
  Al  Al25  1  0.44789595  0.43497830  0.89569393  1
  Al  Al26  1  0.55617406  0.53920893  0.64177392  1
  Al  Al27  1  0.11451958  0.76675777  0.38986138  1
  Al  Al28  1  0.77561654  0.76107479  0.82908168  1
  Al  Al29  1  0.88258755  0.86592593  0.56994946  1
  Al  Al30  1  0.44784961  0.76363579  0.38258980  1
  Al  Al31  1  0.12340642  0.76148837  0.88929421  1
  Al  Al32  1  0.22700883  0.86628460  0.63411638  1
  Al  Al33  1  0.87848845  0.87222702  0.06595442  1
  Al  Al34  1  0.44444597  0.76850541  0.89100862  1
  Al  Al35  1  0.55573960  0.86652074  0.62754699  1
  N  N36  1  0.21202945  0.18693027  0.36887393  1
  N  N37  1  0.12262945  0.07046596  0.08982340  1
  N  N38  1  0.88296734  0.20946873  0.84481123  1
  N  N39  1  0.77400720  0.08751800  0.63187454  1
  N  N40  1  0.55914890  0.19755822  0.37687093  1
  N  N41  1  0.45302420  0.07478988  0.13110268  1
  N  N42  1  0.22737474  0.20700563  0.88612332  1
  N  N43  1  0.11389912  0.10033171  0.63613517  1
  N  N44  1  0.92303870  0.18882156  0.33566215  1
  N  N45  1  0.77778182  0.08552888  0.13695951  1
  N  N46  1  0.55710185  0.20049152  0.88736142  1
  N  N47  1  0.43819400  0.10370789  0.62524397  1
  N  N48  1  0.22406789  0.54326993  0.32505827  1
  N  N49  1  0.09891090  0.44846115  0.08615339  1
  N  N50  1  0.89180984  0.52558822  0.83163240  1
  N  N51  1  0.77657109  0.42547724  0.57037754  1
  N  N52  1  0.56429582  0.52559560  0.30491450  1
  N  N53  1  0.46373869  0.43474381  0.09102357  1
  N  N54  1  0.22601187  0.53614426  0.82945028  1
  N  N55  1  0.11066497  0.43098751  0.56859398  1
  N  N56  1  0.87175926  0.57004324  0.33105835  1
  N  N57  1  0.75453318  0.43035618  0.09420428  1
  N  N58  1  0.55599479  0.54171513  0.82875106  1
  N  N59  1  0.44341192  0.43312264  0.57448379  1
  N  N60  1  0.20987249  0.90256863  0.35443464  1
  N  N61  1  0.13954825  0.77580408  0.07910460  1
  N  N62  1  0.89017166  0.87084356  0.88324850  1
  N  N63  1  0.78746163  0.75327663  0.63602739  1
  N  N64  1  0.58899683  0.85423095  0.36561094  1
  N  N65  1  0.42101167  0.81111804  0.07432778  1
  N  N66  1  0.22937881  0.86379640  0.81992709  1
  N  N67  1  0.11518131  0.75638070  0.57569046  1
  N  N68  1  0.87358044  0.85548224  0.37729045  1
  N  N69  1  0.72762206  0.78192295  0.08432474  1
  N  N70  1  0.54527498  0.87560391  0.81877598  1
  N  N71  1  0.44761863  0.75158126  0.56898120  1
