# generated using pymatgen
data_Al31B5N36
_symmetry_space_group_name_H-M   'P 1'
_cell_length_a   9.18703156
_cell_length_b   9.29107226
_cell_length_c   9.90192412
_cell_angle_alpha   90.58038729
_cell_angle_beta   90.10213890
_cell_angle_gamma   60.14062244
_symmetry_Int_Tables_number   1
_chemical_formula_structural   Al31B5N36
_chemical_formula_sum   'Al31 B5 N36'
_cell_volume   732.95882022
_cell_formula_units_Z   1
loop_
 _symmetry_equiv_pos_site_id
 _symmetry_equiv_pos_as_xyz
  1  'x, y, z'
loop_
 _atom_site_type_symbol
 _atom_site_label
 _atom_site_symmetry_multiplicity
 _atom_site_fract_x
 _atom_site_fract_y
 _atom_site_fract_z
 _atom_site_occupancy
  B  B0  1  0.11010410  0.09148892  0.40094239  1
  B  B1  1  0.58531480  0.48005186  0.16899830  1
  B  B2  1  0.23356268  0.89984715  0.16494373  1
  B  B3  1  0.55430437  0.87057306  0.16173677  1
  B  B4  1  0.77719108  0.75818560  0.39891062  1
  Al  Al5  1  0.23296556  0.19738921  0.09367307  1
  Al  Al6  1  0.77576241  0.09297533  0.83116563  1
  Al  Al7  1  0.89483554  0.20632017  0.64267636  1
  Al  Al8  1  0.44542514  0.08777894  0.33234916  1
  Al  Al9  1  0.56856497  0.18915849  0.08571147  1
  Al  Al10  1  0.11198863  0.08534144  0.90452415  1
  Al  Al11  1  0.22270164  0.20071784  0.57361313  1
  Al  Al12  1  0.78012944  0.08600890  0.34547949  1
  Al  Al13  1  0.90396994  0.19703197  0.16000626  1
  Al  Al14  1  0.43853335  0.09931871  0.82943047  1
  Al  Al15  1  0.55624561  0.20018778  0.58172589  1
  Al  Al16  1  0.10305174  0.43772829  0.39345819  1
  Al  Al17  1  0.22995411  0.54698864  0.15276937  1
  Al  Al18  1  0.77393497  0.42927542  0.90554197  1
  Al  Al19  1  0.88552692  0.54243091  0.64790424  1
  Al  Al20  1  0.44377158  0.43115329  0.39986729  1
  Al  Al21  1  0.10584521  0.43591883  0.90477270  1
  Al  Al22  1  0.22317941  0.53817450  0.65307674  1
  Al  Al23  1  0.78496891  0.42642759  0.40102951  1
  Al  Al24  1  0.86894631  0.55287666  0.15758699  1
  Al  Al25  1  0.44774900  0.43540377  0.90551195  1
  Al  Al26  1  0.55319456  0.54394354  0.65343751  1
  Al  Al27  1  0.10901502  0.76670290  0.39431784  1
  Al  Al28  1  0.76690276  0.76673547  0.90381589  1
  Al  Al29  1  0.89090758  0.86117769  0.63855856  1
  Al  Al30  1  0.44937414  0.75881568  0.37480641  1
  Al  Al31  1  0.11299065  0.76485671  0.90682103  1
  Al  Al32  1  0.22576924  0.86807360  0.64343512  1
  Al  Al33  1  0.89004153  0.85968419  0.15315333  1
  Al  Al34  1  0.44092038  0.77211266  0.91999048  1
  Al  Al35  1  0.55570488  0.86348187  0.63866123  1
  N  N36  1  0.21155969  0.19487199  0.37666831  1
  N  N37  1  0.12223334  0.07247538  0.09847351  1
  N  N38  1  0.89350643  0.20921560  0.84105173  1
  N  N39  1  0.77636268  0.09212339  0.63338588  1
  N  N40  1  0.55494418  0.19987474  0.39090021  1
  N  N41  1  0.45830891  0.07738556  0.14281817  1
  N  N42  1  0.22328002  0.20581269  0.89418167  1
  N  N43  1  0.10995803  0.08137808  0.56762876  1
  N  N44  1  0.91775886  0.19410279  0.35339091  1
  N  N45  1  0.78285647  0.08932511  0.14719108  1
  N  N46  1  0.55723231  0.20188559  0.89345217  1
  N  N47  1  0.43836712  0.09795428  0.63616291  1
  N  N48  1  0.22509566  0.54067920  0.34084874  1
  N  N49  1  0.10303336  0.43886915  0.10119020  1
  N  N50  1  0.88415384  0.54248515  0.84320872  1
  N  N51  1  0.77598338  0.42817197  0.59028517  1
  N  N52  1  0.56644933  0.52190533  0.31906067  1
  N  N53  1  0.46568183  0.43302383  0.10303700  1
  N  N54  1  0.22492175  0.53920250  0.84671253  1
  N  N55  1  0.10844277  0.43140298  0.58988228  1
  N  N56  1  0.87363018  0.56376140  0.34767372  1
  N  N57  1  0.75870926  0.42750799  0.10428881  1
  N  N58  1  0.55264267  0.54884686  0.84589819  1
  N  N59  1  0.44458091  0.43236505  0.59335622  1
  N  N60  1  0.21066544  0.90044579  0.32765450  1
  N  N61  1  0.12025740  0.76961652  0.09877053  1
  N  N62  1  0.89187307  0.86168465  0.84046940  1
  N  N63  1  0.77378519  0.75939541  0.56569362  1
  N  N64  1  0.58502167  0.85188555  0.33249223  1
  N  N65  1  0.42376986  0.81012948  0.11368259  1
  N  N66  1  0.22508065  0.87100813  0.83563603  1
  N  N67  1  0.11446227  0.75681200  0.58579882  1
  N  N68  1  0.87964756  0.85045808  0.34954931  1
  N  N69  1  0.74337658  0.77492330  0.09483371  1
  N  N70  1  0.55435089  0.86672420  0.83231060  1
  N  N71  1  0.44510091  0.75500198  0.57153255  1
