# generated using pymatgen
data_Al31B5N36
_symmetry_space_group_name_H-M   'P 1'
_cell_length_a   9.24568604
_cell_length_b   9.35177228
_cell_length_c   9.75438854
_cell_angle_alpha   90.19966483
_cell_angle_beta   89.71312411
_cell_angle_gamma   59.97622766
_symmetry_Int_Tables_number   1
_chemical_formula_structural   Al31B5N36
_chemical_formula_sum   'Al31 B5 N36'
_cell_volume   730.20335794
_cell_formula_units_Z   1
loop_
 _symmetry_equiv_pos_site_id
 _symmetry_equiv_pos_as_xyz
  1  'x, y, z'
loop_
 _atom_site_type_symbol
 _atom_site_label
 _atom_site_symmetry_multiplicity
 _atom_site_fract_x
 _atom_site_fract_y
 _atom_site_fract_z
 _atom_site_occupancy
  B  B0  1  0.11269059  0.09985091  0.40309947  1
  B  B1  1  0.58642166  0.47529332  0.16896824  1
  B  B2  1  0.24762825  0.91671383  0.17182826  1
  B  B3  1  0.55627767  0.87451629  0.16360084  1
  B  B4  1  0.78003213  0.75663701  0.40054654  1
  Al  Al5  1  0.22243202  0.20223629  0.15475906  1
  Al  Al6  1  0.77901277  0.09056236  0.84547854  1
  Al  Al7  1  0.89542027  0.20596427  0.64067287  1
  Al  Al8  1  0.45190579  0.08515797  0.34726355  1
  Al  Al9  1  0.56499774  0.19094822  0.09011529  1
  Al  Al10  1  0.11613895  0.08705979  0.90220466  1
  Al  Al11  1  0.21414334  0.20866851  0.63682700  1
  Al  Al12  1  0.78737322  0.08394489  0.36795214  1
  Al  Al13  1  0.90245582  0.19228943  0.15772218  1
  Al  Al14  1  0.44471212  0.09454654  0.82895480  1
  Al  Al15  1  0.55674053  0.20382357  0.58196517  1
  Al  Al16  1  0.10532277  0.43304557  0.39909965  1
  Al  Al17  1  0.22436952  0.54058711  0.14896772  1
  Al  Al18  1  0.77234603  0.42861369  0.90467848  1
  Al  Al19  1  0.88463911  0.54352227  0.64830329  1
  Al  Al20  1  0.44291291  0.43227207  0.39651460  1
  Al  Al21  1  0.10865133  0.42710895  0.90066831  1
  Al  Al22  1  0.22273158  0.54139976  0.65008553  1
  Al  Al23  1  0.78567172  0.42718701  0.39897150  1
  Al  Al24  1  0.86931950  0.55130997  0.15441788  1
  Al  Al25  1  0.44538815  0.43594894  0.90331380  1
  Al  Al26  1  0.55297032  0.54486844  0.65254341  1
  Al  Al27  1  0.11108134  0.76528612  0.38583842  1
  Al  Al28  1  0.76592128  0.76577037  0.90248349  1
  Al  Al29  1  0.89177071  0.86265207  0.63540948  1
  Al  Al30  1  0.45288448  0.75744053  0.37280705  1
  Al  Al31  1  0.10790778  0.76204906  0.90572504  1
  Al  Al32  1  0.22575733  0.87002805  0.64109541  1
  Al  Al33  1  0.88124762  0.86164596  0.15358466  1
  Al  Al34  1  0.43800653  0.77284082  0.92038333  1
  Al  Al35  1  0.55700637  0.86251670  0.63446681  1
  N  N36  1  0.20668164  0.19903017  0.35382984  1
  N  N37  1  0.12633150  0.07581785  0.09724322  1
  N  N38  1  0.89290792  0.20724943  0.84183078  1
  N  N39  1  0.78251612  0.09123033  0.61500592  1
  N  N40  1  0.55757517  0.20376931  0.38620229  1
  N  N41  1  0.45745534  0.07802603  0.14600221  1
  N  N42  1  0.21270366  0.20786568  0.83746206  1
  N  N43  1  0.11562501  0.08898563  0.56775959  1
  N  N44  1  0.91912422  0.19405334  0.35341991  1
  N  N45  1  0.78514085  0.08681302  0.13269171  1
  N  N46  1  0.55408528  0.20319432  0.89043168  1
  N  N47  1  0.44568822  0.09355475  0.62455353  1
  N  N48  1  0.22411025  0.53743832  0.34027190  1
  N  N49  1  0.10627897  0.42348453  0.09655865  1
  N  N50  1  0.88321747  0.54171124  0.84575333  1
  N  N51  1  0.77654581  0.42896807  0.59113332  1
  N  N52  1  0.56630209  0.52309442  0.31872516  1
  N  N53  1  0.46416604  0.43282775  0.10349646  1
  N  N54  1  0.22370465  0.53681735  0.84523811  1
  N  N55  1  0.10881680  0.43219898  0.59212710  1
  N  N56  1  0.87671898  0.56271803  0.34726171  1
  N  N57  1  0.75815743  0.42540779  0.10464210  1
  N  N58  1  0.55092016  0.54984420  0.84730282  1
  N  N59  1  0.44496117  0.43391713  0.59310971  1
  N  N60  1  0.21514525  0.90438180  0.32666841  1
  N  N61  1  0.09950735  0.75342951  0.09385687  1
  N  N62  1  0.88783657  0.86235077  0.83441710  1
  N  N63  1  0.77681986  0.75773254  0.56677526  1
  N  N64  1  0.58830291  0.85144262  0.33607359  1
  N  N65  1  0.42367104  0.81748353  0.11686887  1
  N  N66  1  0.22200162  0.87011037  0.83751149  1
  N  N67  1  0.11594684  0.75948117  0.58167560  1
  N  N68  1  0.87924071  0.85206582  0.35081647  1
  N  N69  1  0.73939209  0.77553142  0.09532681  1
  N  N70  1  0.55287744  0.86556903  0.83161612  1
  N  N71  1  0.44586573  0.75489852  0.57109162  1
