# generated using pymatgen
data_Al31B5N36
_symmetry_space_group_name_H-M   'P 1'
_cell_length_a   9.14185236
_cell_length_b   9.18533508
_cell_length_c   10.35942710
_cell_angle_alpha   91.44127330
_cell_angle_beta   90.84002926
_cell_angle_gamma   60.22242811
_symmetry_Int_Tables_number   1
_chemical_formula_structural   Al31B5N36
_chemical_formula_sum   'Al31 B5 N36'
_cell_volume   754.78948754
_cell_formula_units_Z   1
loop_
 _symmetry_equiv_pos_site_id
 _symmetry_equiv_pos_as_xyz
  1  'x, y, z'
loop_
 _atom_site_type_symbol
 _atom_site_label
 _atom_site_symmetry_multiplicity
 _atom_site_fract_x
 _atom_site_fract_y
 _atom_site_fract_z
 _atom_site_occupancy
  B  B0  1  0.11854520  0.08566584  0.35541611  1
  B  B1  1  0.58538183  0.47898777  0.16363557  1
  B  B2  1  0.22774828  0.89017040  0.09493222  1
  B  B3  1  0.53746635  0.88321116  0.10168808  1
  B  B4  1  0.77195101  0.76290139  0.36211921  1
  Al  Al5  1  0.22742865  0.19469694  0.07237709  1
  Al  Al6  1  0.77418092  0.08777168  0.82388830  1
  Al  Al7  1  0.88453928  0.21083229  0.64682145  1
  Al  Al8  1  0.45072543  0.07771198  0.32185504  1
  Al  Al9  1  0.56332841  0.19069701  0.07675493  1
  Al  Al10  1  0.11499156  0.09714940  0.83382841  1
  Al  Al11  1  0.22215807  0.19633531  0.56456155  1
  Al  Al12  1  0.78156894  0.07794774  0.32589089  1
  Al  Al13  1  0.90348836  0.19361121  0.14744742  1
  Al  Al14  1  0.43654656  0.10686316  0.81611485  1
  Al  Al15  1  0.55781338  0.19847674  0.56753552  1
  Al  Al16  1  0.10283924  0.43986873  0.38741123  1
  Al  Al17  1  0.23012244  0.55412511  0.14800649  1
  Al  Al18  1  0.77297322  0.42723785  0.90495907  1
  Al  Al19  1  0.89845603  0.52381979  0.64781095  1
  Al  Al20  1  0.44431278  0.43185441  0.39195280  1
  Al  Al21  1  0.10613781  0.43913970  0.90218038  1
  Al  Al22  1  0.22374933  0.53724414  0.64451576  1
  Al  Al23  1  0.78669529  0.42526997  0.39192235  1
  Al  Al24  1  0.86073298  0.56202312  0.14680808  1
  Al  Al25  1  0.44802519  0.43540645  0.90075800  1
  Al  Al26  1  0.55684241  0.53896070  0.64653409  1
  Al  Al27  1  0.11475877  0.76637531  0.39497759  1
  Al  Al28  1  0.77588755  0.76108565  0.83345831  1
  Al  Al29  1  0.88280298  0.86562868  0.57453900  1
  Al  Al30  1  0.44839675  0.76300784  0.38754895  1
  Al  Al31  1  0.12334966  0.76140525  0.89362469  1
  Al  Al32  1  0.22707930  0.86638822  0.63858266  1
  Al  Al33  1  0.87855129  0.87337049  0.07044318  1
  Al  Al34  1  0.44498472  0.76838141  0.89498179  1
  Al  Al35  1  0.55565043  0.86688230  0.63308340  1
  N  N36  1  0.21244907  0.18675856  0.37381570  1
  N  N37  1  0.11933682  0.07201591  0.09002381  1
  N  N38  1  0.88110900  0.21245192  0.83777837  1
  N  N39  1  0.77376528  0.08674891  0.63578420  1
  N  N40  1  0.55800157  0.19738629  0.38206941  1
  N  N41  1  0.45218788  0.07574258  0.13562206  1
  N  N42  1  0.22737283  0.20754065  0.89017128  1
  N  N43  1  0.11438671  0.09963436  0.63975895  1
  N  N44  1  0.92389251  0.18905278  0.33838197  1
  N  N45  1  0.77815341  0.08546012  0.14394405  1
  N  N46  1  0.55762270  0.20057836  0.89289130  1
  N  N47  1  0.43803586  0.10420144  0.63026678  1
  N  N48  1  0.22416935  0.54335675  0.32919118  1
  N  N49  1  0.09888237  0.44886396  0.09007645  1
  N  N50  1  0.89168638  0.52568883  0.83641532  1
  N  N51  1  0.77747163  0.42428653  0.57560859  1
  N  N52  1  0.56567748  0.52399088  0.30929006  1
  N  N53  1  0.46388939  0.43491419  0.09558835  1
  N  N54  1  0.22616782  0.53615654  0.83345584  1
  N  N55  1  0.11066336  0.43110453  0.57274605  1
  N  N56  1  0.87192621  0.56918598  0.33532803  1
  N  N57  1  0.75648051  0.42728358  0.09893463  1
  N  N58  1  0.55653300  0.54150498  0.83348299  1
  N  N59  1  0.44378596  0.43315151  0.57862388  1
  N  N60  1  0.21006990  0.90226309  0.35853728  1
  N  N61  1  0.13961259  0.77582744  0.08269057  1
  N  N62  1  0.88970185  0.87191234  0.88840889  1
  N  N63  1  0.78781886  0.75310369  0.64124440  1
  N  N64  1  0.58896816  0.85378497  0.36912226  1
  N  N65  1  0.41961599  0.81309702  0.07692850  1
  N  N66  1  0.22943252  0.86329999  0.82387733  1
  N  N67  1  0.11585262  0.75585445  0.57975512  1
  N  N68  1  0.87383865  0.85426675  0.38273437  1
  N  N69  1  0.72725827  0.78232541  0.08879605  1
  N  N70  1  0.54523672  0.87609789  0.82299070  1
  N  N71  1  0.44810020  0.75149758  0.57336634  1
