# generated using pymatgen
data_Al31B5N36
_symmetry_space_group_name_H-M   'P 1'
_cell_length_a   9.23084877
_cell_length_b   9.32849386
_cell_length_c   9.71045613
_cell_angle_alpha   90.12353660
_cell_angle_beta   89.70782180
_cell_angle_gamma   59.99122210
_symmetry_Int_Tables_number   1
_chemical_formula_structural   Al31B5N36
_chemical_formula_sum   'Al31 B5 N36'
_cell_volume   724.05731506
_cell_formula_units_Z   1
loop_
 _symmetry_equiv_pos_site_id
 _symmetry_equiv_pos_as_xyz
  1  'x, y, z'
loop_
 _atom_site_type_symbol
 _atom_site_label
 _atom_site_symmetry_multiplicity
 _atom_site_fract_x
 _atom_site_fract_y
 _atom_site_fract_z
 _atom_site_occupancy
  B  B0  1  0.11093004  0.09846357  0.40174193  1
  B  B1  1  0.58622510  0.47826539  0.16747486  1
  B  B2  1  0.24698962  0.91573365  0.17086470  1
  B  B3  1  0.55492592  0.87795628  0.16276268  1
  B  B4  1  0.77891937  0.75921740  0.39904062  1
  Al  Al5  1  0.22521014  0.19995417  0.15637938  1
  Al  Al6  1  0.78116611  0.08923271  0.89806737  1
  Al  Al7  1  0.89326305  0.20266056  0.64529779  1
  Al  Al8  1  0.44917843  0.08538579  0.38177001  1
  Al  Al9  1  0.56351743  0.19746892  0.15175947  1
  Al  Al10  1  0.11695271  0.08651006  0.90064452  1
  Al  Al11  1  0.21721541  0.20594201  0.63367010  1
  Al  Al12  1  0.78756126  0.08416917  0.39903914  1
  Al  Al13  1  0.90167324  0.18966528  0.15546131  1
  Al  Al14  1  0.44434988  0.09222461  0.86204454  1
  Al  Al15  1  0.55745875  0.20690139  0.63647083  1
  Al  Al16  1  0.10450567  0.43390505  0.39818622  1
  Al  Al17  1  0.22391226  0.54087407  0.14767534  1
  Al  Al18  1  0.77260171  0.42817219  0.90320753  1
  Al  Al19  1  0.88470180  0.54316556  0.64636402  1
  Al  Al20  1  0.44570348  0.42767513  0.39694994  1
  Al  Al21  1  0.10941049  0.42673020  0.89899020  1
  Al  Al22  1  0.22218009  0.54167181  0.64838071  1
  Al  Al23  1  0.78577549  0.42565316  0.39795089  1
  Al  Al24  1  0.86986857  0.55112304  0.15333730  1
  Al  Al25  1  0.44851501  0.43048454  0.90235307  1
  Al  Al26  1  0.55310684  0.54458225  0.65113910  1
  Al  Al27  1  0.10989260  0.76603428  0.38422133  1
  Al  Al28  1  0.76665970  0.76568854  0.90097009  1
  Al  Al29  1  0.88947483  0.86734784  0.64034826  1
  Al  Al30  1  0.45293335  0.75725452  0.37017887  1
  Al  Al31  1  0.10912965  0.76144034  0.90456643  1
  Al  Al32  1  0.22566803  0.86961647  0.63974814  1
  Al  Al33  1  0.87993565  0.86391893  0.15099936  1
  Al  Al34  1  0.43846593  0.77115070  0.91957294  1
  Al  Al35  1  0.55577460  0.86506645  0.63207236  1
  N  N36  1  0.20499309  0.19939890  0.35301115  1
  N  N37  1  0.12646977  0.07550602  0.09616549  1
  N  N38  1  0.89202780  0.20448868  0.84337021  1
  N  N39  1  0.78318873  0.09071569  0.59137893  1
  N  N40  1  0.56193838  0.20514829  0.34780740  1
  N  N41  1  0.45720313  0.07555204  0.12633327  1
  N  N42  1  0.21618405  0.20590345  0.83352729  1
  N  N43  1  0.11291392  0.08923925  0.56758348  1
  N  N44  1  0.91659842  0.19142504  0.34931428  1
  N  N45  1  0.78531028  0.08645437  0.09417538  1
  N  N46  1  0.55622267  0.20842659  0.84202704  1
  N  N47  1  0.44579743  0.09197686  0.59001625  1
  N  N48  1  0.22489655  0.53715744  0.33995128  1
  N  N49  1  0.10723931  0.42222730  0.09563648  1
  N  N50  1  0.88358887  0.54160966  0.84463013  1
  N  N51  1  0.77736740  0.42648148  0.59130608  1
  N  N52  1  0.56571613  0.52388156  0.31806227  1
  N  N53  1  0.46584329  0.43024963  0.10112825  1
  N  N54  1  0.22457753  0.53663587  0.84476134  1
  N  N55  1  0.10914193  0.43141153  0.59176640  1
  N  N56  1  0.87574708  0.56383505  0.34694836  1
  N  N57  1  0.75838611  0.42539244  0.10392389  1
  N  N58  1  0.55075394  0.54956568  0.84664365  1
  N  N59  1  0.44626287  0.43078458  0.58993991  1
  N  N60  1  0.21440379  0.90459043  0.32651037  1
  N  N61  1  0.09998557  0.75492060  0.09392364  1
  N  N62  1  0.88580381  0.86787981  0.83654218  1
  N  N63  1  0.77757530  0.75908919  0.56661865  1
  N  N64  1  0.58589922  0.85563001  0.33383601  1
  N  N65  1  0.42376620  0.81483336  0.11689933  1
  N  N66  1  0.22311494  0.86954685  0.83652012  1
  N  N67  1  0.11373085  0.76039307  0.58165457  1
  N  N68  1  0.87676539  0.85752137  0.34645319  1
  N  N69  1  0.73961059  0.77507076  0.09413756  1
  N  N70  1  0.55190474  0.86803175  0.82877651  1
  N  N71  1  0.44602375  0.75442778  0.56987358  1
