# generated using pymatgen
data_Al31B5N36
_symmetry_space_group_name_H-M   'P 1'
_cell_length_a   9.11648699
_cell_length_b   9.19390614
_cell_length_c   10.19636821
_cell_angle_alpha   89.69345332
_cell_angle_beta   89.98315243
_cell_angle_gamma   60.31331697
_symmetry_Int_Tables_number   1
_chemical_formula_structural   Al31B5N36
_chemical_formula_sum   'Al31 B5 N36'
_cell_volume   742.43497402
_cell_formula_units_Z   1
loop_
 _symmetry_equiv_pos_site_id
 _symmetry_equiv_pos_as_xyz
  1  'x, y, z'
loop_
 _atom_site_type_symbol
 _atom_site_label
 _atom_site_symmetry_multiplicity
 _atom_site_fract_x
 _atom_site_fract_y
 _atom_site_fract_z
 _atom_site_occupancy
  B  B0  1  0.11243555  0.09345103  0.35986484  1
  B  B1  1  0.58751284  0.47497411  0.05541467  1
  B  B2  1  0.22568424  0.89454774  0.10905763  1
  B  B3  1  0.54004164  0.88314187  0.10684860  1
  B  B4  1  0.77338812  0.76509284  0.36078139  1
  Al  Al5  1  0.22339505  0.20014243  0.06785819  1
  Al  Al6  1  0.78079430  0.08850439  0.81328143  1
  Al  Al7  1  0.89459440  0.20304436  0.56847758  1
  Al  Al8  1  0.45113725  0.08342126  0.32044094  1
  Al  Al9  1  0.56170009  0.19179401  0.06550173  1
  Al  Al10  1  0.11379824  0.09225430  0.82723638  1
  Al  Al11  1  0.22137517  0.20339663  0.56614049  1
  Al  Al12  1  0.78331756  0.08710945  0.31721820  1
  Al  Al13  1  0.89370587  0.19266673  0.06400816  1
  Al  Al14  1  0.44193719  0.09486021  0.81483149  1
  Al  Al15  1  0.55611692  0.20556139  0.56427453  1
  Al  Al16  1  0.10398860  0.43459500  0.31484361  1
  Al  Al17  1  0.22908425  0.54890665  0.06561894  1
  Al  Al18  1  0.77876833  0.42414886  0.81933864  1
  Al  Al19  1  0.88770805  0.54139795  0.56823989  1
  Al  Al20  1  0.45048911  0.42879510  0.30941594  1
  Al  Al21  1  0.11316766  0.42439941  0.81499768  1
  Al  Al22  1  0.22555078  0.53807330  0.56312676  1
  Al  Al23  1  0.77552195  0.43437471  0.31122516  1
  Al  Al24  1  0.86638919  0.55126696  0.06252539  1
  Al  Al25  1  0.44686400  0.42409141  0.82189993  1
  Al  Al26  1  0.55961566  0.53080132  0.56382171  1
  Al  Al27  1  0.11313818  0.77093232  0.31553177  1
  Al  Al28  1  0.78098831  0.75644105  0.82547756  1
  Al  Al29  1  0.89020066  0.86745552  0.56469015  1
  Al  Al30  1  0.44306699  0.77470361  0.38811886  1
  Al  Al31  1  0.11101594  0.75353914  0.81540467  1
  Al  Al32  1  0.22981481  0.86888921  0.63422183  1
  Al  Al33  1  0.88305697  0.87156807  0.06699862  1
  Al  Al34  1  0.44311924  0.76395034  0.90925769  1
  Al  Al35  1  0.55673607  0.86536542  0.63132056  1
  N  N36  1  0.20841390  0.19492774  0.37400592  1
  N  N37  1  0.11949509  0.07451594  0.10139818  1
  N  N38  1  0.88667494  0.20241059  0.87777317  1
  N  N39  1  0.78072042  0.09067196  0.62366079  1
  N  N40  1  0.55583134  0.20795552  0.37582705  1
  N  N41  1  0.45169501  0.07745310  0.13097070  1
  N  N42  1  0.22505203  0.20654363  0.88154869  1
  N  N43  1  0.10901774  0.10169954  0.63699020  1
  N  N44  1  0.91486984  0.19661862  0.37466319  1
  N  N45  1  0.78006234  0.08841420  0.13241715  1
  N  N46  1  0.55888208  0.19858163  0.87935694  1
  N  N47  1  0.44213452  0.10012166  0.62507129  1
  N  N48  1  0.22645602  0.54049485  0.37247778  1
  N  N49  1  0.10412567  0.43666675  0.12774833  1
  N  N50  1  0.89198743  0.53224051  0.87790380  1
  N  N51  1  0.77792593  0.42617369  0.63053763  1
  N  N52  1  0.55868538  0.53521214  0.37660459  1
  N  N53  1  0.46545525  0.42648471  0.11867881  1
  N  N54  1  0.22397837  0.53557186  0.88036756  1
  N  N55  1  0.11353121  0.42568054  0.62395436  1
  N  N56  1  0.87346454  0.56762647  0.37389090  1
  N  N57  1  0.75683120  0.42707295  0.12080611  1
  N  N58  1  0.56515164  0.52069958  0.90962588  1
  N  N59  1  0.44750226  0.42590310  0.63372786  1
  N  N60  1  0.20338847  0.91027185  0.36499911  1
  N  N61  1  0.13229029  0.77735644  0.12525929  1
  N  N62  1  0.89284166  0.86978714  0.88074129  1
  N  N63  1  0.78980154  0.75401540  0.63472788  1
  N  N64  1  0.59037620  0.85955201  0.36693140  1
  N  N65  1  0.41815908  0.81378473  0.09212267  1
  N  N66  1  0.23514566  0.85935918  0.82791610  1
  N  N67  1  0.10975440  0.75484264  0.62522714  1
  N  N68  1  0.87981830  0.85600856  0.37267981  1
  N  N69  1  0.72877211  0.78316243  0.09117726  1
  N  N70  1  0.54927272  0.86399067  0.82383525  1
  N  N71  1  0.44534146  0.75937966  0.57485627  1
