# generated using pymatgen
data_Al31B5N36
_symmetry_space_group_name_H-M   'P 1'
_cell_length_a   9.15916106
_cell_length_b   9.22769413
_cell_length_c   9.78608771
_cell_angle_alpha   89.87990896
_cell_angle_beta   90.01009406
_cell_angle_gamma   60.27406118
_symmetry_Int_Tables_number   1
_chemical_formula_structural   Al31B5N36
_chemical_formula_sum   'Al31 B5 N36'
_cell_volume   718.25719910
_cell_formula_units_Z   1
loop_
 _symmetry_equiv_pos_site_id
 _symmetry_equiv_pos_as_xyz
  1  'x, y, z'
loop_
 _atom_site_type_symbol
 _atom_site_label
 _atom_site_symmetry_multiplicity
 _atom_site_fract_x
 _atom_site_fract_y
 _atom_site_fract_z
 _atom_site_occupancy
  B  B0  1  0.11603162  0.08814205  0.29004455  1
  B  B1  1  0.58068749  0.48936959  0.03221145  1
  B  B2  1  0.22856431  0.87957059  0.04942362  1
  B  B3  1  0.53397151  0.88440461  0.04665821  1
  B  B4  1  0.76788072  0.76449522  0.28933900  1
  Al  Al5  1  0.22288753  0.19984146  0.05399270  1
  Al  Al6  1  0.78134170  0.09083106  0.79572484  1
  Al  Al7  1  0.89543345  0.20252711  0.54186140  1
  Al  Al8  1  0.44926626  0.08302872  0.29303377  1
  Al  Al9  1  0.56080861  0.19671328  0.04469828  1
  Al  Al10  1  0.11353031  0.09244494  0.80381519  1
  Al  Al11  1  0.21999799  0.20182632  0.54179080  1
  Al  Al12  1  0.78148128  0.08794315  0.29776045  1
  Al  Al13  1  0.89400563  0.19731340  0.05305574  1
  Al  Al14  1  0.44382023  0.09018842  0.80171281  1
  Al  Al15  1  0.55454792  0.20498493  0.54647871  1
  Al  Al16  1  0.10519881  0.43115463  0.29551317  1
  Al  Al17  1  0.22896377  0.54718560  0.04595853  1
  Al  Al18  1  0.78112284  0.42451768  0.79997523  1
  Al  Al19  1  0.88394431  0.54506919  0.54195700  1
  Al  Al20  1  0.44818343  0.43056052  0.29249721  1
  Al  Al21  1  0.10949699  0.42855141  0.79802655  1
  Al  Al22  1  0.22286222  0.54049834  0.54633111  1
  Al  Al23  1  0.77316194  0.43231305  0.29359116  1
  Al  Al24  1  0.87341113  0.54938940  0.05278298  1
  Al  Al25  1  0.44550953  0.42505356  0.79930585  1
  Al  Al26  1  0.55287485  0.54391661  0.54850622  1
  Al  Al27  1  0.11120982  0.76867920  0.29391724  1
  Al  Al28  1  0.77454137  0.76291473  0.80559590  1
  Al  Al29  1  0.88754276  0.86738710  0.54225232  1
  Al  Al30  1  0.44351626  0.77046759  0.28184832  1
  Al  Al31  1  0.11182795  0.76558449  0.80375669  1
  Al  Al32  1  0.22417895  0.87600480  0.54751919  1
  Al  Al33  1  0.88923545  0.86958387  0.05561081  1
  Al  Al34  1  0.44557326  0.75860290  0.82823011  1
  Al  Al35  1  0.55833821  0.86691082  0.54705652  1
  N  N36  1  0.21120725  0.19273826  0.34410379  1
  N  N37  1  0.11839167  0.07805547  0.12073103  1
  N  N38  1  0.89050787  0.20339715  0.85999981  1
  N  N39  1  0.78092364  0.09144775  0.60005753  1
  N  N40  1  0.55266550  0.20747795  0.35230054  1
  N  N41  1  0.45422493  0.07596744  0.09983136  1
  N  N42  1  0.22085250  0.20757449  0.86070428  1
  N  N43  1  0.11221779  0.09284673  0.61291833  1
  N  N44  1  0.91281086  0.19543221  0.34490302  1
  N  N45  1  0.77878916  0.09114371  0.10791471  1
  N  N46  1  0.55742980  0.20235115  0.85313761  1
  N  N47  1  0.44387311  0.09054261  0.60554541  1
  N  N48  1  0.22370807  0.54097964  0.35141222  1
  N  N49  1  0.11023632  0.43238813  0.10393101  1
  N  N50  1  0.88666965  0.54057749  0.86036045  1
  N  N51  1  0.77840357  0.42602730  0.60461893  1
  N  N52  1  0.54986874  0.54863653  0.35565314  1
  N  N53  1  0.46437351  0.43135169  0.09590187  1
  N  N54  1  0.22250532  0.54070601  0.85448992  1
  N  N55  1  0.10996261  0.42660476  0.60051101  1
  N  N56  1  0.87284435  0.56392332  0.34422398  1
  N  N57  1  0.75243832  0.43313700  0.09835175  1
  N  N58  1  0.56166226  0.52734388  0.87915134  1
  N  N59  1  0.44633693  0.42706616  0.60733255  1
  N  N60  1  0.21259119  0.89868348  0.35260623  1
  N  N61  1  0.12982872  0.77394563  0.10193520  1
  N  N62  1  0.88889622  0.87135194  0.86193229  1
  N  N63  1  0.77668587  0.76076735  0.61369388  1
  N  N64  1  0.57969151  0.85830174  0.35264006  1
  N  N65  1  0.42274270  0.80352208  0.09295194  1
  N  N66  1  0.21900847  0.87810868  0.88292407  1
  N  N67  1  0.11164728  0.76347534  0.60646632  1
  N  N68  1  0.87825354  0.85704934  0.34546903  1
  N  N69  1  0.75405865  0.77164707  0.12236444  1
  N  N70  1  0.55658952  0.87399644  0.88312419  1
  N  N71  1  0.44467967  0.76030958  0.62337741  1
