# generated using pymatgen
data_Al31B5N36
_symmetry_space_group_name_H-M   'P 1'
_cell_length_a   9.12721991
_cell_length_b   9.17288859
_cell_length_c   10.27155571
_cell_angle_alpha   90.13296326
_cell_angle_beta   90.03713796
_cell_angle_gamma   60.23028331
_symmetry_Int_Tables_number   1
_chemical_formula_structural   Al31B5N36
_chemical_formula_sum   'Al31 B5 N36'
_cell_volume   746.47171019
_cell_formula_units_Z   1
loop_
 _symmetry_equiv_pos_site_id
 _symmetry_equiv_pos_as_xyz
  1  'x, y, z'
loop_
 _atom_site_type_symbol
 _atom_site_label
 _atom_site_symmetry_multiplicity
 _atom_site_fract_x
 _atom_site_fract_y
 _atom_site_fract_z
 _atom_site_occupancy
  B  B0  1  0.11458692  0.09093686  0.35716595  1
  B  B1  1  0.57330081  0.50613478  0.15708958  1
  B  B2  1  0.22780381  0.88497163  0.10079182  1
  B  B3  1  0.54617125  0.87497866  0.09894311  1
  B  B4  1  0.77428544  0.76522164  0.35882315  1
  Al  Al5  1  0.22676716  0.19408295  0.06176083  1
  Al  Al6  1  0.78027783  0.09013336  0.80980341  1
  Al  Al7  1  0.89468780  0.20150967  0.56285421  1
  Al  Al8  1  0.45201229  0.07952540  0.31388792  1
  Al  Al9  1  0.56170454  0.19622160  0.06194043  1
  Al  Al10  1  0.11342527  0.09359088  0.82154671  1
  Al  Al11  1  0.22118831  0.20392059  0.56221404  1
  Al  Al12  1  0.78338535  0.08653464  0.31158550  1
  Al  Al13  1  0.89288032  0.19525990  0.06023213  1
  Al  Al14  1  0.44184030  0.09668183  0.80942048  1
  Al  Al15  1  0.55629692  0.20425864  0.55866727  1
  Al  Al16  1  0.10489753  0.43270988  0.31008609  1
  Al  Al17  1  0.23097300  0.54622516  0.06302064  1
  Al  Al18  1  0.78643864  0.42072858  0.81199400  1
  Al  Al19  1  0.88943519  0.54074641  0.56395085  1
  Al  Al20  1  0.44017391  0.42510617  0.31109407  1
  Al  Al21  1  0.11337242  0.42530103  0.81168039  1
  Al  Al22  1  0.22337062  0.53788724  0.55933422  1
  Al  Al23  1  0.78883696  0.42952561  0.31365346  1
  Al  Al24  1  0.86886197  0.54801016  0.05981134  1
  Al  Al25  1  0.44377974  0.42125561  0.81546690  1
  Al  Al26  1  0.55206701  0.54434971  0.63689573  1
  Al  Al27  1  0.11233227  0.77118150  0.31180453  1
  Al  Al28  1  0.78063759  0.75697092  0.82070323  1
  Al  Al29  1  0.88973057  0.86778630  0.56151859  1
  Al  Al30  1  0.44667037  0.76813493  0.38193063  1
  Al  Al31  1  0.11138491  0.75464847  0.81100429  1
  Al  Al32  1  0.22880006  0.86942205  0.62700834  1
  Al  Al33  1  0.88357069  0.87188680  0.06149939  1
  Al  Al34  1  0.44590897  0.75901339  0.89339743  1
  Al  Al35  1  0.55679880  0.86568254  0.62448584  1
  N  N36  1  0.20893058  0.19389434  0.36995787  1
  N  N37  1  0.12428842  0.06600679  0.09220766  1
  N  N38  1  0.88698120  0.20352654  0.87503195  1
  N  N39  1  0.77973488  0.09157117  0.62065349  1
  N  N40  1  0.55651334  0.20567287  0.37182028  1
  N  N41  1  0.45482125  0.07081519  0.12454932  1
  N  N42  1  0.22521276  0.20718688  0.87680810  1
  N  N43  1  0.10891029  0.10200919  0.63134102  1
  N  N44  1  0.91633496  0.19352084  0.37121427  1
  N  N45  1  0.78035766  0.08945949  0.12830876  1
  N  N46  1  0.55858380  0.19996990  0.87691081  1
  N  N47  1  0.44164818  0.09976909  0.62003176  1
  N  N48  1  0.22119055  0.54239770  0.37177605  1
  N  N49  1  0.10742161  0.43172358  0.12433046  1
  N  N50  1  0.89285943  0.53262373  0.87561222  1
  N  N51  1  0.78471275  0.42265373  0.61898393  1
  N  N52  1  0.55090499  0.54941337  0.30579667  1
  N  N53  1  0.46145964  0.42735641  0.12222193  1
  N  N54  1  0.22362244  0.53677089  0.87855533  1
  N  N55  1  0.11300002  0.42597550  0.62195890  1
  N  N56  1  0.87614651  0.56786908  0.37323406  1
  N  N57  1  0.76353287  0.42639281  0.12526637  1
  N  N58  1  0.55522658  0.54193580  0.82560664  1
  N  N59  1  0.44202364  0.42157822  0.62396268  1
  N  N60  1  0.20583667  0.90791691  0.36133378  1
  N  N61  1  0.13201005  0.77477824  0.12210261  1
  N  N62  1  0.89267840  0.87075685  0.87656781  1
  N  N63  1  0.78973923  0.75399442  0.63077649  1
  N  N64  1  0.59131047  0.85782312  0.36477059  1
  N  N65  1  0.42759189  0.79508019  0.08193561  1
  N  N66  1  0.23305386  0.86282635  0.82011733  1
  N  N67  1  0.10882045  0.75520096  0.62155425  1
  N  N68  1  0.87940316  0.85716514  0.36958847  1
  N  N69  1  0.73324678  0.78002303  0.08754486  1
  N  N70  1  0.54931471  0.86758010  0.81760392  1
  N  N71  1  0.44803328  0.75275875  0.56460269  1
