# generated using pymatgen
data_Al31B5N36
_symmetry_space_group_name_H-M   'P 1'
_cell_length_a   9.24103370
_cell_length_b   9.35020270
_cell_length_c   9.80068407
_cell_angle_alpha   90.31219771
_cell_angle_beta   89.87476441
_cell_angle_gamma   59.89534008
_symmetry_Int_Tables_number   1
_chemical_formula_structural   Al31B5N36
_chemical_formula_sum   'Al31 B5 N36'
_cell_volume   732.58184331
_cell_formula_units_Z   1
loop_
 _symmetry_equiv_pos_site_id
 _symmetry_equiv_pos_as_xyz
  1  'x, y, z'
loop_
 _atom_site_type_symbol
 _atom_site_label
 _atom_site_symmetry_multiplicity
 _atom_site_fract_x
 _atom_site_fract_y
 _atom_site_fract_z
 _atom_site_occupancy
  B  B0  1  0.11118502  0.09673520  0.40180806  1
  B  B1  1  0.58593510  0.47575825  0.16947191  1
  B  B2  1  0.24723617  0.91594716  0.17250109  1
  B  B3  1  0.55640173  0.87339215  0.16342654  1
  B  B4  1  0.77911418  0.75714277  0.40059090  1
  Al  Al5  1  0.22471830  0.20198255  0.14509127  1
  Al  Al6  1  0.77621101  0.09190069  0.83128912  1
  Al  Al7  1  0.89641116  0.20630429  0.64273994  1
  Al  Al8  1  0.45187167  0.08567632  0.34303414  1
  Al  Al9  1  0.56702558  0.18990526  0.08667785  1
  Al  Al10  1  0.11594678  0.08710700  0.90291678  1
  Al  Al11  1  0.21861512  0.20561397  0.61286363  1
  Al  Al12  1  0.78270947  0.08552716  0.34714791  1
  Al  Al13  1  0.90291699  0.19479137  0.15733216  1
  Al  Al14  1  0.44142209  0.09713905  0.82825353  1
  Al  Al15  1  0.55930775  0.20210296  0.58123643  1
  Al  Al16  1  0.10392273  0.43619470  0.39574912  1
  Al  Al17  1  0.22523445  0.54253513  0.14971158  1
  Al  Al18  1  0.77299725  0.42849419  0.90503257  1
  Al  Al19  1  0.88580009  0.54269584  0.64887546  1
  Al  Al20  1  0.44309035  0.43228214  0.39798376  1
  Al  Al21  1  0.10851392  0.42794557  0.90211541  1
  Al  Al22  1  0.22346293  0.53988985  0.65111326  1
  Al  Al23  1  0.78598289  0.42625676  0.40007167  1
  Al  Al24  1  0.86785418  0.55205737  0.15548156  1
  Al  Al25  1  0.44607721  0.43553385  0.90368334  1
  Al  Al26  1  0.55358010  0.54423800  0.65349950  1
  Al  Al27  1  0.10985136  0.76648709  0.38840293  1
  Al  Al28  1  0.76568266  0.76626545  0.90245606  1
  Al  Al29  1  0.89166910  0.86174000  0.63604792  1
  Al  Al30  1  0.45288060  0.75750579  0.37477386  1
  Al  Al31  1  0.10763426  0.76242427  0.90546854  1
  Al  Al32  1  0.22611362  0.86855753  0.64300714  1
  Al  Al33  1  0.88318280  0.85881152  0.15282748  1
  Al  Al34  1  0.43804170  0.77354600  0.92036019  1
  Al  Al35  1  0.55760780  0.86203136  0.63648126  1
  N  N36  1  0.20853538  0.19805137  0.35860896  1
  N  N37  1  0.12564204  0.07502541  0.09857092  1
  N  N38  1  0.89279117  0.20727865  0.84405156  1
  N  N39  1  0.77992263  0.09277052  0.62980384  1
  N  N40  1  0.55756751  0.20273416  0.38881044  1
  N  N41  1  0.45889637  0.07854640  0.14562140  1
  N  N42  1  0.21438389  0.20771242  0.84926960  1
  N  N43  1  0.11407917  0.08536995  0.56654395  1
  N  N44  1  0.91868764  0.19393953  0.35299040  1
  N  N45  1  0.78298175  0.08825510  0.14535101  1
  N  N46  1  0.55594551  0.20193869  0.89167141  1
  N  N47  1  0.44705345  0.09352297  0.62688342  1
  N  N48  1  0.22450525  0.53926727  0.34010146  1
  N  N49  1  0.10446745  0.42749871  0.09912123  1
  N  N50  1  0.88324282  0.54194060  0.84551371  1
  N  N51  1  0.77725047  0.42847867  0.59143096  1
  N  N52  1  0.56630085  0.52262225  0.31912440  1
  N  N53  1  0.46460196  0.43269748  0.10342935  1
  N  N54  1  0.22405978  0.53667018  0.84537785  1
  N  N55  1  0.10886082  0.43283858  0.58934475  1
  N  N56  1  0.87477660  0.56334059  0.34728017  1
  N  N57  1  0.75758539  0.42623152  0.10476427  1
  N  N58  1  0.55113489  0.54978320  0.84751007  1
  N  N59  1  0.44560609  0.43327041  0.59342306  1
  N  N60  1  0.21481061  0.90391077  0.32696588  1
  N  N61  1  0.10075506  0.75520049  0.09309849  1
  N  N62  1  0.88795871  0.86156218  0.83565023  1
  N  N63  1  0.77652091  0.75760025  0.56661974  1
  N  N64  1  0.58747835  0.85163795  0.33548569  1
  N  N65  1  0.42348513  0.81799298  0.11665972  1
  N  N66  1  0.22196273  0.86991082  0.83788049  1
  N  N67  1  0.11584527  0.75864761  0.58284187  1
  N  N68  1  0.87884801  0.85139246  0.35081311  1
  N  N69  1  0.73927232  0.77556443  0.09510428  1
  N  N70  1  0.55237188  0.86643935  0.83196050  1
  N  N71  1  0.44612466  0.75477406  0.57202039  1
