# generated using pymatgen
data_Al31B5N36
_symmetry_space_group_name_H-M   'P 1'
_cell_length_a   9.14746830
_cell_length_b   9.21069367
_cell_length_c   10.19701362
_cell_angle_alpha   91.30099217
_cell_angle_beta   90.76094502
_cell_angle_gamma   60.26534562
_symmetry_Int_Tables_number   1
_chemical_formula_structural   Al31B5N36
_chemical_formula_sum   'Al31 B5 N36'
_cell_volume   745.82812471
_cell_formula_units_Z   1
loop_
 _symmetry_equiv_pos_site_id
 _symmetry_equiv_pos_as_xyz
  1  'x, y, z'
loop_
 _atom_site_type_symbol
 _atom_site_label
 _atom_site_symmetry_multiplicity
 _atom_site_fract_x
 _atom_site_fract_y
 _atom_site_fract_z
 _atom_site_occupancy
  B  B0  1  0.11753642  0.09227244  0.36358601  1
  B  B1  1  0.58387001  0.48146884  0.16905261  1
  B  B2  1  0.22630999  0.88911050  0.14637780  1
  B  B3  1  0.53938410  0.88086474  0.11484107  1
  B  B4  1  0.77389829  0.76368851  0.36885071  1
  Al  Al5  1  0.22859522  0.19866491  0.08878503  1
  Al  Al6  1  0.77465158  0.08665567  0.83099907  1
  Al  Al7  1  0.89371671  0.20501820  0.65337161  1
  Al  Al8  1  0.45431557  0.07861549  0.33068901  1
  Al  Al9  1  0.56366223  0.19070501  0.08295787  1
  Al  Al10  1  0.10983644  0.08655376  0.89793010  1
  Al  Al11  1  0.22168003  0.19598934  0.56921087  1
  Al  Al12  1  0.78225380  0.08041649  0.33391431  1
  Al  Al13  1  0.90048204  0.19792147  0.15336800  1
  Al  Al14  1  0.43292785  0.10382211  0.82390782  1
  Al  Al15  1  0.55838425  0.19862432  0.57794819  1
  Al  Al16  1  0.10334066  0.44093924  0.39320615  1
  Al  Al17  1  0.23001012  0.55116295  0.15515947  1
  Al  Al18  1  0.77194211  0.42768838  0.90987464  1
  Al  Al19  1  0.89757557  0.52526441  0.65540327  1
  Al  Al20  1  0.44586697  0.43182322  0.40050919  1
  Al  Al21  1  0.10616628  0.43642346  0.90911575  1
  Al  Al22  1  0.22290888  0.53875345  0.65039684  1
  Al  Al23  1  0.78750620  0.42594556  0.40042110  1
  Al  Al24  1  0.86067137  0.56193714  0.15321614  1
  Al  Al25  1  0.44738992  0.43414729  0.90555042  1
  Al  Al26  1  0.55556555  0.54124025  0.65292584  1
  Al  Al27  1  0.11674816  0.76731523  0.39422105  1
  Al  Al28  1  0.77385118  0.76239606  0.84393981  1
  Al  Al29  1  0.88564173  0.86567573  0.58134148  1
  Al  Al30  1  0.45273952  0.76036044  0.38546832  1
  Al  Al31  1  0.12367474  0.75997991  0.90685555  1
  Al  Al32  1  0.22533844  0.86971364  0.64949239  1
  Al  Al33  1  0.87916396  0.87267129  0.08230654  1
  Al  Al34  1  0.44303143  0.76917952  0.91091284  1
  Al  Al35  1  0.55548909  0.86572402  0.63601084  1
  N  N36  1  0.21428874  0.18972710  0.37283612  1
  N  N37  1  0.11713207  0.07296677  0.09125902  1
  N  N38  1  0.88627916  0.20920213  0.84594696  1
  N  N39  1  0.77556449  0.08633579  0.64252267  1
  N  N40  1  0.55976018  0.19866021  0.38981081  1
  N  N41  1  0.45524240  0.07435231  0.14328813  1
  N  N42  1  0.22453830  0.20611301  0.89968685  1
  N  N43  1  0.11010242  0.08721296  0.60142981  1
  N  N44  1  0.92513512  0.19131137  0.34354351  1
  N  N45  1  0.77803392  0.08786919  0.14962727  1
  N  N46  1  0.55577709  0.20011075  0.89676014  1
  N  N47  1  0.43687830  0.10269261  0.63561697  1
  N  N48  1  0.22672173  0.54190960  0.33778197  1
  N  N49  1  0.09922569  0.44683704  0.10023455  1
  N  N50  1  0.89046876  0.52735097  0.84569609  1
  N  N51  1  0.77785203  0.42358964  0.58567803  1
  N  N52  1  0.56697033  0.52379440  0.31681692  1
  N  N53  1  0.46356414  0.43438152  0.10191591  1
  N  N54  1  0.22417017  0.53729618  0.84203139  1
  N  N55  1  0.11100161  0.42974927  0.58098987  1
  N  N56  1  0.87199062  0.57055214  0.34364052  1
  N  N57  1  0.75535268  0.42901343  0.10457187  1
  N  N58  1  0.55406364  0.54408695  0.84204470  1
  N  N59  1  0.44445513  0.43216805  0.58877541  1
  N  N60  1  0.21514651  0.90061564  0.32125315  1
  N  N61  1  0.13420593  0.77452215  0.09891120  1
  N  N62  1  0.89023783  0.87181914  0.89688351  1
  N  N63  1  0.78811872  0.75400135  0.64749648  1
  N  N64  1  0.59105177  0.85496173  0.37794679  1
  N  N65  1  0.42177264  0.81036639  0.09836830  1
  N  N66  1  0.22619777  0.86727271  0.83587163  1
  N  N67  1  0.11915672  0.75633669  0.58248746  1
  N  N68  1  0.87594193  0.85513051  0.38622749  1
  N  N69  1  0.72845124  0.78206759  0.09707264  1
  N  N70  1  0.54331692  0.87373009  0.83102575  1
  N  N71  1  0.44391604  0.75300532  0.57511773  1
