# generated using pymatgen
data_Al31B5N36
_symmetry_space_group_name_H-M   'P 1'
_cell_length_a   9.15915820
_cell_length_b   9.22769414
_cell_length_c   9.78608780
_cell_angle_alpha   89.87989840
_cell_angle_beta   90.01015441
_cell_angle_gamma   60.27405371
_symmetry_Int_Tables_number   1
_chemical_formula_structural   Al31B5N36
_chemical_formula_sum   'Al31 B5 N36'
_cell_volume   718.25692702
_cell_formula_units_Z   1
loop_
 _symmetry_equiv_pos_site_id
 _symmetry_equiv_pos_as_xyz
  1  'x, y, z'
loop_
 _atom_site_type_symbol
 _atom_site_label
 _atom_site_symmetry_multiplicity
 _atom_site_fract_x
 _atom_site_fract_y
 _atom_site_fract_z
 _atom_site_occupancy
  B  B0  1  0.11613766  0.08800933  0.29671925  1
  B  B1  1  0.58079319  0.48923787  0.03888628  1
  B  B2  1  0.22867004  0.87943891  0.05609900  1
  B  B3  1  0.53408034  0.88427148  0.05333438  1
  B  B4  1  0.76798555  0.76436405  0.29601373  1
  Al  Al5  1  0.22299368  0.19970948  0.06066961  1
  Al  Al6  1  0.78144715  0.09069982  0.80240308  1
  Al  Al7  1  0.89553905  0.20239422  0.54853569  1
  Al  Al8  1  0.44937188  0.08289683  0.29971144  1
  Al  Al9  1  0.56091309  0.19658230  0.05137561  1
  Al  Al10  1  0.11363571  0.09231341  0.81049095  1
  Al  Al11  1  0.22010372  0.20169412  0.54846567  1
  Al  Al12  1  0.78158698  0.08781042  0.30443280  1
  Al  Al13  1  0.89411148  0.19718247  0.05973332  1
  Al  Al14  1  0.44392597  0.09005657  0.80839000  1
  Al  Al15  1  0.55465446  0.20485241  0.55315429  1
  Al  Al16  1  0.10530488  0.43102283  0.30218892  1
  Al  Al17  1  0.22906937  0.54705353  0.05263337  1
  Al  Al18  1  0.78122881  0.42438565  0.80664895  1
  Al  Al19  1  0.88405014  0.54493712  0.54863016  1
  Al  Al20  1  0.44828850  0.43042875  0.29917247  1
  Al  Al21  1  0.10960228  0.42841923  0.80470113  1
  Al  Al22  1  0.22296777  0.54036670  0.55300777  1
  Al  Al23  1  0.77326737  0.43218079  0.30026774  1
  Al  Al24  1  0.87351645  0.54925744  0.05946001  1
  Al  Al25  1  0.44561566  0.42492148  0.80597998  1
  Al  Al26  1  0.55298012  0.54378526  0.55517923  1
  Al  Al27  1  0.11131524  0.76854696  0.30059414  1
  Al  Al28  1  0.77464727  0.76278193  0.81226828  1
  Al  Al29  1  0.88764834  0.86725600  0.54892776  1
  Al  Al30  1  0.44362184  0.77033552  0.28852223  1
  Al  Al31  1  0.11193397  0.76545262  0.81043376  1
  Al  Al32  1  0.22428492  0.87587273  0.55419410  1
  Al  Al33  1  0.88934111  0.86945133  0.06228397  1
  Al  Al34  1  0.44567936  0.75847091  0.83490765  1
  Al  Al35  1  0.55844332  0.86677884  0.55373129  1
  N  N36  1  0.21131263  0.19260643  0.35077928  1
  N  N37  1  0.11849810  0.07792283  0.12740706  1
  N  N38  1  0.89061382  0.20326591  0.86667736  1
  N  N39  1  0.78102943  0.09131589  0.60673535  1
  N  N40  1  0.55277210  0.20734581  0.35897609  1
  N  N41  1  0.45433099  0.07583524  0.10650904  1
  N  N42  1  0.22095809  0.20744260  0.86738129  1
  N  N43  1  0.11232338  0.09271474  0.61959403  1
  N  N44  1  0.91291646  0.19529930  0.35157735  1
  N  N45  1  0.77889523  0.09101114  0.11458853  1
  N  N46  1  0.55753486  0.20221988  0.85981496  1
  N  N47  1  0.44397895  0.09041064  0.61222172  1
  N  N48  1  0.22381370  0.54084765  0.35808930  1
  N  N49  1  0.11034214  0.43225648  0.11060737  1
  N  N50  1  0.88677508  0.54044560  0.86703688  1
  N  N51  1  0.77850937  0.42589516  0.61129253  1
  N  N52  1  0.54997387  0.54850503  0.36232741  1
  N  N53  1  0.46447896  0.43122036  0.10257746  1
  N  N54  1  0.22261137  0.54057356  0.86116519  1
  N  N55  1  0.11006808  0.42647262  0.60718631  1
  N  N56  1  0.87294992  0.56379149  0.35089810  1
  N  N57  1  0.75254342  0.43300541  0.10502839  1
  N  N58  1  0.56176839  0.52721157  0.88582640  1
  N  N59  1  0.44644331  0.42693404  0.61400713  1
  N  N60  1  0.21269711  0.89855141  0.35928153  1
  N  N61  1  0.12993411  0.77381331  0.10861177  1
  N  N62  1  0.88900175  0.87121911  0.86860695  1
  N  N63  1  0.77679175  0.76063492  0.62036747  1
  N  N64  1  0.57979692  0.85816941  0.35931557  1
  N  N65  1  0.42284906  0.80338952  0.09962691  1
  N  N66  1  0.21911395  0.87797712  0.88960033  1
  N  N67  1  0.11175303  0.76334373  0.61314300  1
  N  N68  1  0.87835861  0.85691768  0.35214446  1
  N  N69  1  0.75416213  0.77151648  0.12903954  1
  N  N70  1  0.55669657  0.87386421  0.88979985  1
  N  N71  1  0.44478557  0.76017726  0.63005314  1
