# generated using pymatgen
data_Al31B5N36
_symmetry_space_group_name_H-M   'P 1'
_cell_length_a   9.17827811
_cell_length_b   9.29082951
_cell_length_c   10.17977942
_cell_angle_alpha   90.59231602
_cell_angle_beta   89.48665006
_cell_angle_gamma   59.87062153
_symmetry_Int_Tables_number   1
_chemical_formula_structural   Al31B5N36
_chemical_formula_sum   'Al31 B5 N36'
_cell_volume   750.64691263
_cell_formula_units_Z   1
loop_
 _symmetry_equiv_pos_site_id
 _symmetry_equiv_pos_as_xyz
  1  'x, y, z'
loop_
 _atom_site_type_symbol
 _atom_site_label
 _atom_site_symmetry_multiplicity
 _atom_site_fract_x
 _atom_site_fract_y
 _atom_site_fract_z
 _atom_site_occupancy
  B  B0  1  0.11150850  0.10447973  0.31393759  1
  B  B1  1  0.59034426  0.48085162  0.16623261  1
  B  B2  1  0.25491709  0.91711296  0.16520191  1
  B  B3  1  0.53912467  0.89227277  0.10694271  1
  B  B4  1  0.77524039  0.75873098  0.40417584  1
  Al  Al5  1  0.22744233  0.20389619  0.07335115  1
  Al  Al6  1  0.78100507  0.09065370  0.81958817  1
  Al  Al7  1  0.90090727  0.19090385  0.56325533  1
  Al  Al8  1  0.45734178  0.07950721  0.32388580  1
  Al  Al9  1  0.56384846  0.19917782  0.06863061  1
  Al  Al10  1  0.10722642  0.09966326  0.82228652  1
  Al  Al11  1  0.22127472  0.19989775  0.56192089  1
  Al  Al12  1  0.78759819  0.08372767  0.32020611  1
  Al  Al13  1  0.89915125  0.19176227  0.07938704  1
  Al  Al14  1  0.44221368  0.09486716  0.81257702  1
  Al  Al15  1  0.55819905  0.20322474  0.56859501  1
  Al  Al16  1  0.11167439  0.42882173  0.31999943  1
  Al  Al17  1  0.22394901  0.54113703  0.07136168  1
  Al  Al18  1  0.76436232  0.43550797  0.90160107  1
  Al  Al19  1  0.88432350  0.53610424  0.63906270  1
  Al  Al20  1  0.44377588  0.42214795  0.32208308  1
  Al  Al21  1  0.11623514  0.42001037  0.82192384  1
  Al  Al22  1  0.22322741  0.53505314  0.56952233  1
  Al  Al23  1  0.78664493  0.43217450  0.38731167  1
  Al  Al24  1  0.85744253  0.56709315  0.14987397  1
  Al  Al25  1  0.44192639  0.42229194  0.82228857  1
  Al  Al26  1  0.55776369  0.54058680  0.64378551  1
  Al  Al27  1  0.10776491  0.76287453  0.30806689  1
  Al  Al28  1  0.76097522  0.76177376  0.88507357  1
  Al  Al29  1  0.89422825  0.86758054  0.56647395  1
  Al  Al30  1  0.45595375  0.76043924  0.38023667  1
  Al  Al31  1  0.10597472  0.75373856  0.82573616  1
  Al  Al32  1  0.22939014  0.86267055  0.64335350  1
  Al  Al33  1  0.88419963  0.87268779  0.07067160  1
  Al  Al34  1  0.43287315  0.77217639  0.90257511  1
  Al  Al35  1  0.55658819  0.86422150  0.61771878  1
  N  N36  1  0.21267279  0.19433561  0.37163314  1
  N  N37  1  0.11816082  0.09764535  0.15074389  1
  N  N38  1  0.88969398  0.20095335  0.89183317  1
  N  N39  1  0.78210035  0.09052107  0.63098510  1
  N  N40  1  0.56012107  0.20479335  0.38151799  1
  N  N41  1  0.45747647  0.08157581  0.13179917  1
  N  N42  1  0.22330989  0.20218658  0.88718749  1
  N  N43  1  0.11183728  0.09562105  0.63375754  1
  N  N44  1  0.92302931  0.18564057  0.37059450  1
  N  N45  1  0.78089928  0.09096589  0.13529756  1
  N  N46  1  0.55569548  0.20151199  0.88214838  1
  N  N47  1  0.44145015  0.09842276  0.62381879  1
  N  N48  1  0.22373741  0.54140887  0.38182081  1
  N  N49  1  0.10897041  0.42733167  0.13127368  1
  N  N50  1  0.87988627  0.53754532  0.83199244  1
  N  N51  1  0.77606602  0.42536821  0.57308025  1
  N  N52  1  0.56902273  0.53261664  0.31028208  1
  N  N53  1  0.46320829  0.42557460  0.13091217  1
  N  N54  1  0.22138659  0.53373841  0.88548873  1
  N  N55  1  0.11906173  0.41786172  0.63000594  1
  N  N56  1  0.87353009  0.57081192  0.33743903  1
  N  N57  1  0.75245085  0.43733039  0.09659803  1
  N  N58  1  0.55012571  0.54715196  0.83531768  1
  N  N59  1  0.44394273  0.42161650  0.63268095  1
  N  N60  1  0.23213054  0.89311515  0.31126258  1
  N  N61  1  0.09861595  0.75395976  0.12881364  1
  N  N62  1  0.88342176  0.87280975  0.88182765  1
  N  N63  1  0.78307487  0.74641514  0.56577264  1
  N  N64  1  0.58795717  0.85886996  0.36636253  1
  N  N65  1  0.41761575  0.83125295  0.08816313  1
  N  N66  1  0.22159581  0.86942328  0.83311603  1
  N  N67  1  0.10776007  0.75184798  0.63440944  1
  N  N68  1  0.88576087  0.86413207  0.38074128  1
  N  N69  1  0.72756015  0.78379544  0.07614246  1
  N  N70  1  0.55077326  0.86384847  0.81376674  1
  N  N71  1  0.44159484  0.75031488  0.56684021  1
