# generated using pymatgen
data_Al31B5N36
_symmetry_space_group_name_H-M   'P 1'
_cell_length_a   9.15085197
_cell_length_b   9.24642796
_cell_length_c   10.15790129
_cell_angle_alpha   90.72958552
_cell_angle_beta   89.66533351
_cell_angle_gamma   60.21248215
_symmetry_Int_Tables_number   1
_chemical_formula_structural   Al31B5N36
_chemical_formula_sum   'Al31 B5 N36'
_cell_volume   745.79271840
_cell_formula_units_Z   1
loop_
 _symmetry_equiv_pos_site_id
 _symmetry_equiv_pos_as_xyz
  1  'x, y, z'
loop_
 _atom_site_type_symbol
 _atom_site_label
 _atom_site_symmetry_multiplicity
 _atom_site_fract_x
 _atom_site_fract_y
 _atom_site_fract_z
 _atom_site_occupancy
  B  B0  1  0.11497348  0.09810211  0.31047197  1
  B  B1  1  0.59150553  0.48324426  0.16578826  1
  B  B2  1  0.23529357  0.89283553  0.15714276  1
  B  B3  1  0.53594165  0.88734154  0.11029160  1
  B  B4  1  0.77449716  0.75717499  0.40324645  1
  Al  Al5  1  0.22736702  0.19727436  0.08198108  1
  Al  Al6  1  0.77985961  0.09080571  0.81901879  1
  Al  Al7  1  0.90028612  0.19131230  0.56352652  1
  Al  Al8  1  0.45809032  0.07710448  0.32233641  1
  Al  Al9  1  0.56298096  0.19666868  0.06778088  1
  Al  Al10  1  0.10600120  0.10106314  0.82148938  1
  Al  Al11  1  0.22103198  0.19883044  0.55765922  1
  Al  Al12  1  0.78726897  0.08440114  0.32035762  1
  Al  Al13  1  0.89672145  0.19450144  0.07905909  1
  Al  Al14  1  0.43824771  0.09687708  0.81262922  1
  Al  Al15  1  0.55660698  0.20276134  0.56853516  1
  Al  Al16  1  0.10971946  0.42968712  0.33447594  1
  Al  Al17  1  0.23461273  0.55115585  0.07626479  1
  Al  Al18  1  0.76181170  0.43620180  0.90059633  1
  Al  Al19  1  0.89127945  0.53307275  0.63912429  1
  Al  Al20  1  0.44725094  0.42052509  0.32122166  1
  Al  Al21  1  0.10592630  0.42775201  0.87372111  1
  Al  Al22  1  0.22347784  0.53560208  0.56566291  1
  Al  Al23  1  0.78684967  0.43112323  0.38921554  1
  Al  Al24  1  0.85662330  0.56731649  0.15101955  1
  Al  Al25  1  0.44043786  0.42228709  0.82038197  1
  Al  Al26  1  0.55761978  0.54088287  0.64293464  1
  Al  Al27  1  0.11110073  0.76699450  0.31517648  1
  Al  Al28  1  0.75935358  0.76461101  0.88815287  1
  Al  Al29  1  0.89311469  0.86715744  0.56468734  1
  Al  Al30  1  0.45425289  0.76163702  0.37913458  1
  Al  Al31  1  0.10606166  0.75503421  0.82125541  1
  Al  Al32  1  0.22976483  0.86416672  0.64113231  1
  Al  Al33  1  0.89237649  0.87492796  0.07183476  1
  Al  Al34  1  0.43253002  0.77123671  0.90281830  1
  Al  Al35  1  0.55703879  0.86337897  0.62017081  1
  N  N36  1  0.21605563  0.19002295  0.36519014  1
  N  N37  1  0.11347667  0.09215694  0.15020450  1
  N  N38  1  0.88832086  0.20222994  0.89060619  1
  N  N39  1  0.78106847  0.08938457  0.63044321  1
  N  N40  1  0.56013986  0.20380477  0.38123909  1
  N  N41  1  0.45737832  0.07782407  0.13157775  1
  N  N42  1  0.22319708  0.20009770  0.89334261  1
  N  N43  1  0.11126310  0.09650042  0.63324310  1
  N  N44  1  0.92304920  0.18521347  0.37119490  1
  N  N45  1  0.77942639  0.09193211  0.13515367  1
  N  N46  1  0.55449307  0.20188722  0.88133085  1
  N  N47  1  0.43947045  0.09777177  0.62391456  1
  N  N48  1  0.22719131  0.54435942  0.37572671  1
  N  N49  1  0.10626968  0.43778339  0.12067838  1
  N  N50  1  0.88082528  0.53877336  0.83387361  1
  N  N51  1  0.77541611  0.42538742  0.57513075  1
  N  N52  1  0.57083665  0.53269155  0.31037941  1
  N  N53  1  0.46662908  0.42383833  0.13023091  1
  N  N54  1  0.22312353  0.54013099  0.88981703  1
  N  N55  1  0.11388547  0.42060849  0.59879511  1
  N  N56  1  0.87353826  0.56966308  0.33679481  1
  N  N57  1  0.75275725  0.43830872  0.09535602  1
  N  N58  1  0.54936106  0.54739041  0.83384292  1
  N  N59  1  0.44233796  0.42186809  0.63153680  1
  N  N60  1  0.22930175  0.89276574  0.31650676  1
  N  N61  1  0.12415598  0.77696090  0.12788108  1
  N  N62  1  0.88650797  0.87222006  0.88375276  1
  N  N63  1  0.78139559  0.74654470  0.56591398  1
  N  N64  1  0.58934480  0.85682417  0.36301576  1
  N  N65  1  0.41674515  0.82120247  0.08886462  1
  N  N66  1  0.22192032  0.87058014  0.83117527  1
  N  N67  1  0.10738941  0.75258075  0.63136108  1
  N  N68  1  0.88631471  0.86179768  0.37712282  1
  N  N69  1  0.73028848  0.78317987  0.07838097  1
  N  N70  1  0.55061320  0.86498892  0.81539708  1
  N  N71  1  0.44191863  0.75031441  0.56633119  1
