# generated using pymatgen
data_Al31B5N36
_symmetry_space_group_name_H-M   'P 1'
_cell_length_a   9.23902457
_cell_length_b   9.34602287
_cell_length_c   9.80178835
_cell_angle_alpha   90.29700958
_cell_angle_beta   89.85070389
_cell_angle_gamma   59.89957174
_symmetry_Int_Tables_number   1
_chemical_formula_structural   Al31B5N36
_chemical_formula_sum   'Al31 B5 N36'
_cell_volume   732.20860532
_cell_formula_units_Z   1
loop_
 _symmetry_equiv_pos_site_id
 _symmetry_equiv_pos_as_xyz
  1  'x, y, z'
loop_
 _atom_site_type_symbol
 _atom_site_label
 _atom_site_symmetry_multiplicity
 _atom_site_fract_x
 _atom_site_fract_y
 _atom_site_fract_z
 _atom_site_occupancy
  B  B0  1  0.11172012  0.09814658  0.40196192  1
  B  B1  1  0.58588178  0.47589236  0.16941058  1
  B  B2  1  0.24745839  0.91585342  0.17196715  1
  B  B3  1  0.55614861  0.87387511  0.16342135  1
  B  B4  1  0.77944267  0.75689180  0.40041630  1
  Al  Al5  1  0.22337632  0.20244623  0.15179046  1
  Al  Al6  1  0.77625590  0.09197049  0.83129553  1
  Al  Al7  1  0.89635937  0.20626351  0.64202882  1
  Al  Al8  1  0.45187265  0.08543745  0.34481140  1
  Al  Al9  1  0.56666059  0.18983909  0.08723871  1
  Al  Al10  1  0.11604238  0.08740037  0.90245298  1
  Al  Al11  1  0.21624810  0.20711061  0.62787704  1
  Al  Al12  1  0.78294919  0.08555482  0.34681646  1
  Al  Al13  1  0.90316545  0.19469179  0.15692150  1
  Al  Al14  1  0.44321491  0.09613263  0.82833972  1
  Al  Al15  1  0.55917540  0.20213250  0.58094399  1
  Al  Al16  1  0.10476003  0.43455879  0.39729149  1
  Al  Al17  1  0.22518774  0.54195062  0.14954402  1
  Al  Al18  1  0.77280629  0.42858631  0.90500741  1
  Al  Al19  1  0.88553712  0.54298377  0.64867668  1
  Al  Al20  1  0.44297513  0.43235043  0.39782440  1
  Al  Al21  1  0.10862841  0.42744711  0.90143818  1
  Al  Al22  1  0.22337823  0.54017621  0.65087022  1
  Al  Al23  1  0.78600777  0.42631612  0.39987643  1
  Al  Al24  1  0.86833033  0.55169527  0.15530021  1
  Al  Al25  1  0.44598755  0.43562556  0.90382372  1
  Al  Al26  1  0.55346704  0.54426503  0.65334885  1
  Al  Al27  1  0.10992145  0.76636957  0.38803564  1
  Al  Al28  1  0.76586793  0.76606715  0.90253653  1
  Al  Al29  1  0.89163761  0.86181507  0.63591862  1
  Al  Al30  1  0.45278547  0.75749406  0.37458325  1
  Al  Al31  1  0.10762619  0.76241277  0.90537243  1
  Al  Al32  1  0.22595471  0.86919342  0.64239838  1
  Al  Al33  1  0.88317048  0.85874373  0.15276795  1
  Al  Al34  1  0.43801506  0.77330239  0.92034876  1
  Al  Al35  1  0.55746859  0.86218083  0.63596264  1
  N  N36  1  0.20748362  0.19850770  0.35470669  1
  N  N37  1  0.12629465  0.07557764  0.09753078  1
  N  N38  1  0.89281801  0.20738607  0.84394495  1
  N  N39  1  0.77980004  0.09288568  0.62993370  1
  N  N40  1  0.55790644  0.20280248  0.38856362  1
  N  N41  1  0.45843137  0.07850475  0.14582085  1
  N  N42  1  0.21276339  0.20823684  0.83968463  1
  N  N43  1  0.11497180  0.08701033  0.56656851  1
  N  N44  1  0.91876389  0.19399271  0.35285448  1
  N  N45  1  0.78310613  0.08821989  0.14504704  1
  N  N46  1  0.55576489  0.20194768  0.89201928  1
  N  N47  1  0.44706618  0.09339950  0.62603964  1
  N  N48  1  0.22426864  0.53874957  0.34001830  1
  N  N49  1  0.10544164  0.42564814  0.09755511  1
  N  N50  1  0.88322859  0.54183696  0.84541151  1
  N  N51  1  0.77708963  0.42864026  0.59127778  1
  N  N52  1  0.56628665  0.52267107  0.31901593  1
  N  N53  1  0.46458054  0.43268815  0.10341132  1
  N  N54  1  0.22411361  0.53646307  0.84523792  1
  N  N55  1  0.10904327  0.43239020  0.59001062  1
  N  N56  1  0.87554258  0.56291615  0.34718342  1
  N  N57  1  0.75756272  0.42627836  0.10462668  1
  N  N58  1  0.55106353  0.54973579  0.84738522  1
  N  N59  1  0.44551540  0.43334021  0.59327628  1
  N  N60  1  0.21491692  0.90394129  0.32656716  1
  N  N61  1  0.10081035  0.75484406  0.09299595  1
  N  N62  1  0.88795061  0.86154508  0.83556553  1
  N  N63  1  0.77660478  0.75759452  0.56648483  1
  N  N64  1  0.58764046  0.85143930  0.33552918  1
  N  N65  1  0.42364908  0.81766006  0.11642602  1
  N  N66  1  0.22195174  0.87010571  0.83761723  1
  N  N67  1  0.11578992  0.75899594  0.58257698  1
  N  N68  1  0.87888368  0.85141845  0.35068372  1
  N  N69  1  0.73937332  0.77550199  0.09507114  1
  N  N70  1  0.55246069  0.86616072  0.83193792  1
  N  N71  1  0.44609406  0.75473040  0.57185978  1
