# generated using pymatgen
data_Al31B5N36
_symmetry_space_group_name_H-M   'P 1'
_cell_length_a   9.12426201
_cell_length_b   9.15642120
_cell_length_c   10.22338715
_cell_angle_alpha   89.88378449
_cell_angle_beta   90.02691265
_cell_angle_gamma   60.16553116
_symmetry_Int_Tables_number   1
_chemical_formula_structural   Al31B5N36
_chemical_formula_sum   'Al31 B5 N36'
_cell_volume   740.91675283
_cell_formula_units_Z   1
loop_
 _symmetry_equiv_pos_site_id
 _symmetry_equiv_pos_as_xyz
  1  'x, y, z'
loop_
 _atom_site_type_symbol
 _atom_site_label
 _atom_site_symmetry_multiplicity
 _atom_site_fract_x
 _atom_site_fract_y
 _atom_site_fract_z
 _atom_site_occupancy
  B  B0  1  0.11351155  0.09081912  0.35674603  1
  B  B1  1  0.57466327  0.50245379  0.05560841  1
  B  B2  1  0.22732798  0.88140495  0.10356432  1
  B  B3  1  0.54985753  0.87139447  0.10217750  1
  B  B4  1  0.77471812  0.76302431  0.35750655  1
  Al  Al5  1  0.22791461  0.19136537  0.06220364  1
  Al  Al6  1  0.77937270  0.09213629  0.80962337  1
  Al  Al7  1  0.89396015  0.20386384  0.56362654  1
  Al  Al8  1  0.45258415  0.07951078  0.31347118  1
  Al  Al9  1  0.56080748  0.19662999  0.06217335  1
  Al  Al10  1  0.11172395  0.09498650  0.82240573  1
  Al  Al11  1  0.22204584  0.20253473  0.56162838  1
  Al  Al12  1  0.78274072  0.08748339  0.31259987  1
  Al  Al13  1  0.89365351  0.19538158  0.06060679  1
  Al  Al14  1  0.44175887  0.09897816  0.81086250  1
  Al  Al15  1  0.55517991  0.20604890  0.55875785  1
  Al  Al16  1  0.10591832  0.43068769  0.31104852  1
  Al  Al17  1  0.22887469  0.54508965  0.06172481  1
  Al  Al18  1  0.77675772  0.42727113  0.81581452  1
  Al  Al19  1  0.88817683  0.54121081  0.56470511  1
  Al  Al20  1  0.44921047  0.43003189  0.30558716  1
  Al  Al21  1  0.11341405  0.42481201  0.81036488  1
  Al  Al22  1  0.22494696  0.53791663  0.55926975  1
  Al  Al23  1  0.77503875  0.43609989  0.30732131  1
  Al  Al24  1  0.87257257  0.54655030  0.05861674  1
  Al  Al25  1  0.44654054  0.42786413  0.81819425  1
  Al  Al26  1  0.55972385  0.53053242  0.56170811  1
  Al  Al27  1  0.11197297  0.76903585  0.31278999  1
  Al  Al28  1  0.78196070  0.75752899  0.82217702  1
  Al  Al29  1  0.88899878  0.86855827  0.56106400  1
  Al  Al30  1  0.44360805  0.77318983  0.38685940  1
  Al  Al31  1  0.10974568  0.75487143  0.81117006  1
  Al  Al32  1  0.22844565  0.86956368  0.63027790  1
  Al  Al33  1  0.88369279  0.87299340  0.06255297  1
  Al  Al34  1  0.44193045  0.76663588  0.89906649  1
  Al  Al35  1  0.55672387  0.86629568  0.62968229  1
  N  N36  1  0.21045365  0.19119733  0.36969469  1
  N  N37  1  0.12542816  0.06302321  0.09156922  1
  N  N38  1  0.88577185  0.20537184  0.87466532  1
  N  N39  1  0.77920594  0.09289175  0.61972409  1
  N  N40  1  0.55449967  0.20683995  0.37000674  1
  N  N41  1  0.45636100  0.06829499  0.12363062  1
  N  N42  1  0.22515637  0.20666440  0.87704771  1
  N  N43  1  0.10786550  0.10304558  0.63224714  1
  N  N44  1  0.91577932  0.19558462  0.36999488  1
  N  N45  1  0.77970335  0.09088602  0.12857766  1
  N  N46  1  0.55799268  0.20240502  0.87643523  1
  N  N47  1  0.44187902  0.10132195  0.62155911  1
  N  N48  1  0.22576751  0.53898083  0.36963137  1
  N  N49  1  0.10891080  0.42859077  0.12422407  1
  N  N50  1  0.89313147  0.53265041  0.87401521  1
  N  N51  1  0.77789302  0.42714747  0.62715187  1
  N  N52  1  0.55952567  0.53322142  0.37546766  1
  N  N53  1  0.46197930  0.43398398  0.11599585  1
  N  N54  1  0.22317456  0.53657096  0.87661687  1
  N  N55  1  0.11360430  0.42554327  0.62018035  1
  N  N56  1  0.87579844  0.56569679  0.37125431  1
  N  N57  1  0.75502869  0.43340511  0.11808975  1
  N  N58  1  0.56268212  0.52721443  0.90290266  1
  N  N59  1  0.44635406  0.42678973  0.62992320  1
  N  N60  1  0.20445657  0.90697669  0.36085567  1
  N  N61  1  0.13053693  0.77347050  0.12217466  1
  N  N62  1  0.89207782  0.87258665  0.87697182  1
  N  N63  1  0.78946959  0.75486663  0.63170522  1
  N  N64  1  0.59154869  0.85609038  0.36197954  1
  N  N65  1  0.42972391  0.79057295  0.08786920  1
  N  N66  1  0.23302900  0.86160698  0.82242163  1
  N  N67  1  0.10838547  0.75572882  0.62142607  1
  N  N68  1  0.87904128  0.85612673  0.36941839  1
  N  N69  1  0.73663295  0.77824764  0.08845917  1
  N  N70  1  0.55015538  0.86754752  0.82130563  1
  N  N71  1  0.44503481  0.76063367  0.57295549  1
