# generated using pymatgen
data_Al31B5N36
_symmetry_space_group_name_H-M   'P 1'
_cell_length_a   9.19488376
_cell_length_b   9.27421759
_cell_length_c   9.91167334
_cell_angle_alpha   90.69838483
_cell_angle_beta   90.22323766
_cell_angle_gamma   60.16508597
_symmetry_Int_Tables_number   1
_chemical_formula_structural   Al31B5N36
_chemical_formula_sum   'Al31 B5 N36'
_cell_volume   733.14110778
_cell_formula_units_Z   1
loop_
 _symmetry_equiv_pos_site_id
 _symmetry_equiv_pos_as_xyz
  1  'x, y, z'
loop_
 _atom_site_type_symbol
 _atom_site_label
 _atom_site_symmetry_multiplicity
 _atom_site_fract_x
 _atom_site_fract_y
 _atom_site_fract_z
 _atom_site_occupancy
  B  B0  1  0.11020481  0.09084952  0.40074839  1
  B  B1  1  0.58502687  0.48178827  0.16848762  1
  B  B2  1  0.22925840  0.89154820  0.16204544  1
  B  B3  1  0.55421201  0.86805182  0.16280375  1
  B  B4  1  0.77225271  0.75548981  0.39807922  1
  Al  Al5  1  0.23249133  0.19693063  0.09392511  1
  Al  Al6  1  0.78024253  0.08481477  0.83258442  1
  Al  Al7  1  0.89412213  0.20532889  0.64412244  1
  Al  Al8  1  0.44500145  0.08822118  0.33235815  1
  Al  Al9  1  0.56745316  0.18952719  0.08406020  1
  Al  Al10  1  0.11105743  0.08622117  0.90425716  1
  Al  Al11  1  0.22159680  0.20104605  0.57400975  1
  Al  Al12  1  0.77857838  0.08713108  0.34031513  1
  Al  Al13  1  0.90450210  0.19810900  0.15972419  1
  Al  Al14  1  0.43809296  0.10020300  0.83005300  1
  Al  Al15  1  0.55515436  0.20055116  0.58391695  1
  Al  Al16  1  0.10274382  0.43766686  0.39418100  1
  Al  Al17  1  0.23386506  0.54549798  0.15357764  1
  Al  Al18  1  0.77419587  0.42856849  0.90535428  1
  Al  Al19  1  0.88498974  0.54224549  0.64939578  1
  Al  Al20  1  0.44479307  0.43022296  0.40108920  1
  Al  Al21  1  0.10546139  0.43730334  0.90510496  1
  Al  Al22  1  0.22116615  0.54012672  0.65399400  1
  Al  Al23  1  0.78488980  0.42565739  0.40144412  1
  Al  Al24  1  0.86899699  0.55319867  0.15814283  1
  Al  Al25  1  0.44908796  0.43472141  0.90464061  1
  Al  Al26  1  0.55295127  0.54408840  0.65366844  1
  Al  Al27  1  0.11551306  0.76443355  0.38833666  1
  Al  Al28  1  0.76604505  0.76637510  0.90690611  1
  Al  Al29  1  0.88519661  0.86867551  0.58065957  1
  Al  Al30  1  0.44848312  0.75920380  0.37539854  1
  Al  Al31  1  0.11922458  0.76463529  0.91003962  1
  Al  Al32  1  0.22464753  0.86834165  0.64346544  1
  Al  Al33  1  0.89118590  0.86595841  0.12451387  1
  Al  Al34  1  0.44241971  0.77180474  0.92035955  1
  Al  Al35  1  0.55356656  0.86389366  0.64057582  1
  N  N36  1  0.21134695  0.19494633  0.37714270  1
  N  N37  1  0.12151750  0.07197792  0.09752444  1
  N  N38  1  0.89288792  0.20864320  0.84020496  1
  N  N39  1  0.77667384  0.08722788  0.63705253  1
  N  N40  1  0.55592318  0.19882976  0.39291356  1
  N  N41  1  0.45760801  0.07808366  0.14322970  1
  N  N42  1  0.22283257  0.20680524  0.89471156  1
  N  N43  1  0.10855047  0.08176354  0.56775104  1
  N  N44  1  0.91797052  0.19374459  0.35297254  1
  N  N45  1  0.78049307  0.09226802  0.14893017  1
  N  N46  1  0.55831525  0.20170919  0.89203682  1
  N  N47  1  0.43690674  0.09832064  0.63684204  1
  N  N48  1  0.22674459  0.53794824  0.34065988  1
  N  N49  1  0.10269826  0.44209300  0.10100083  1
  N  N50  1  0.88393420  0.54306601  0.84349037  1
  N  N51  1  0.77556280  0.42711694  0.59047212  1
  N  N52  1  0.56641789  0.52169250  0.31939842  1
  N  N53  1  0.46685852  0.43240158  0.10236452  1
  N  N54  1  0.22506238  0.54052066  0.84781805  1
  N  N55  1  0.10727743  0.43235681  0.59041469  1
  N  N56  1  0.87339803  0.56359019  0.34759106  1
  N  N57  1  0.75909356  0.42767141  0.10417586  1
  N  N58  1  0.55324733  0.54886777  0.84563666  1
  N  N59  1  0.44338081  0.43275697  0.59453228  1
  N  N60  1  0.21106078  0.90037940  0.32833989  1
  N  N61  1  0.13473590  0.77268041  0.10656368  1
  N  N62  1  0.89181484  0.86844387  0.88763448  1
  N  N63  1  0.76813852  0.75560381  0.56508160  1
  N  N64  1  0.58421247  0.85165721  0.33276677  1
  N  N65  1  0.42553330  0.80663627  0.11350602  1
  N  N66  1  0.22681872  0.87138170  0.83518575  1
  N  N67  1  0.11546070  0.75619977  0.58372952  1
  N  N68  1  0.87904381  0.85480934  0.36605036  1
  N  N69  1  0.74131601  0.77391982  0.09846192  1
  N  N70  1  0.55516573  0.86725675  0.83304532  1
  N  N71  1  0.44375935  0.75524763  0.57200365  1
