# generated using pymatgen
data_Al31B5N36
_symmetry_space_group_name_H-M   'P 1'
_cell_length_a   9.16094389
_cell_length_b   9.24124452
_cell_length_c   9.76851266
_cell_angle_alpha   90.22901717
_cell_angle_beta   90.01662724
_cell_angle_gamma   60.22558625
_symmetry_Int_Tables_number   1
_chemical_formula_structural   Al31B5N36
_chemical_formula_sum   'Al31 B5 N36'
_cell_volume   717.80784656
_cell_formula_units_Z   1
loop_
 _symmetry_equiv_pos_site_id
 _symmetry_equiv_pos_as_xyz
  1  'x, y, z'
loop_
 _atom_site_type_symbol
 _atom_site_label
 _atom_site_symmetry_multiplicity
 _atom_site_fract_x
 _atom_site_fract_y
 _atom_site_fract_z
 _atom_site_occupancy
  B  B0  1  0.11233696  0.09450359  0.40622224  1
  B  B1  1  0.58299985  0.48551357  0.17325450  1
  B  B2  1  0.22838721  0.89400685  0.16776330  1
  B  B3  1  0.55196337  0.87495813  0.16562926  1
  B  B4  1  0.77805602  0.76102418  0.40413786  1
  Al  Al5  1  0.22382676  0.19710153  0.16181581  1
  Al  Al6  1  0.78136899  0.09053926  0.90601308  1
  Al  Al7  1  0.89363806  0.20265479  0.65068924  1
  Al  Al8  1  0.44692855  0.08507615  0.40163808  1
  Al  Al9  1  0.56154661  0.19773725  0.15852966  1
  Al  Al10  1  0.11577348  0.08801365  0.90824688  1
  Al  Al11  1  0.22188199  0.20275325  0.64996822  1
  Al  Al12  1  0.78294650  0.08556906  0.40855090  1
  Al  Al13  1  0.89923954  0.19270036  0.16323146  1
  Al  Al14  1  0.44616276  0.08784685  0.91016602  1
  Al  Al15  1  0.55520198  0.20379373  0.65802380  1
  Al  Al16  1  0.10636963  0.43069015  0.40597165  1
  Al  Al17  1  0.22933972  0.54573087  0.15739985  1
  Al  Al18  1  0.77381964  0.42828355  0.90963985  1
  Al  Al19  1  0.88527059  0.54297206  0.65152943  1
  Al  Al20  1  0.44682415  0.42416161  0.40675410  1
  Al  Al21  1  0.11025305  0.42713488  0.90774289  1
  Al  Al22  1  0.22295301  0.54013924  0.65818944  1
  Al  Al23  1  0.78413359  0.42634117  0.40493249  1
  Al  Al24  1  0.87098660  0.55128948  0.16212557  1
  Al  Al25  1  0.44999190  0.42941566  0.91045311  1
  Al  Al26  1  0.55365001  0.54379276  0.65664926  1
  Al  Al27  1  0.10915149  0.76562057  0.39866848  1
  Al  Al28  1  0.76957055  0.76354081  0.90823919  1
  Al  Al29  1  0.88897740  0.86758691  0.65054502  1
  Al  Al30  1  0.44874332  0.75990099  0.37553858  1
  Al  Al31  1  0.11458379  0.76458789  0.91136498  1
  Al  Al32  1  0.22687543  0.87038737  0.64601565  1
  Al  Al33  1  0.88565626  0.86726545  0.15915957  1
  Al  Al34  1  0.44136620  0.76776799  0.92471365  1
  Al  Al35  1  0.55459302  0.86803049  0.64576599  1
  N  N36  1  0.20822591  0.19562514  0.35541338  1
  N  N37  1  0.12174413  0.07508925  0.10139196  1
  N  N38  1  0.89179833  0.20529803  0.84749318  1
  N  N39  1  0.77905821  0.09157301  0.60024317  1
  N  N40  1  0.55781329  0.20249910  0.34965079  1
  N  N41  1  0.45461217  0.07640613  0.10846884  1
  N  N42  1  0.22208799  0.20420144  0.84704716  1
  N  N43  1  0.11415671  0.08984398  0.57362584  1
  N  N44  1  0.91454694  0.19132824  0.35643688  1
  N  N45  1  0.78341168  0.08823138  0.10022210  1
  N  N46  1  0.55466654  0.20566334  0.85326649  1
  N  N47  1  0.44585041  0.09164094  0.59409218  1
  N  N48  1  0.22492384  0.53792552  0.34814060  1
  N  N49  1  0.10770041  0.42917978  0.10367791  1
  N  N50  1  0.88558621  0.54082684  0.84884274  1
  N  N51  1  0.77697640  0.42647985  0.59631032  1
  N  N52  1  0.56436431  0.52396068  0.32537610  1
  N  N53  1  0.46592440  0.43113038  0.10712911  1
  N  N54  1  0.22441621  0.53925767  0.85466595  1
  N  N55  1  0.11117111  0.42792979  0.59928325  1
  N  N56  1  0.87535860  0.56465023  0.35454358  1
  N  N57  1  0.75800977  0.42808899  0.11008351  1
  N  N58  1  0.55240909  0.54753807  0.85072035  1
  N  N59  1  0.44714515  0.42623833  0.59915621  1
  N  N60  1  0.20898057  0.90027833  0.33421907  1
  N  N61  1  0.12274226  0.77342921  0.10741868  1
  N  N62  1  0.88994004  0.86686890  0.84720582  1
  N  N63  1  0.77520532  0.76130379  0.57288639  1
  N  N64  1  0.58004585  0.86143647  0.33388409  1
  N  N65  1  0.42425381  0.80475770  0.12034007  1
  N  N66  1  0.22583459  0.87141785  0.84069297  1
  N  N67  1  0.11295399  0.75948070  0.59258790  1
  N  N68  1  0.87716956  0.85749699  0.35291040  1
  N  N69  1  0.74540693  0.77407495  0.10043860  1
  N  N70  1  0.55285041  0.87068062  0.83985734  1
  N  N71  1  0.44688071  0.75541952  0.57607476  1
