# generated using pymatgen
data_Al31B5N36
_symmetry_space_group_name_H-M   'P 1'
_cell_length_a   9.15155032
_cell_length_b   9.19172400
_cell_length_c   10.30787519
_cell_angle_alpha   91.39722713
_cell_angle_beta   90.66613426
_cell_angle_gamma   60.23989847
_symmetry_Int_Tables_number   1
_chemical_formula_structural   Al31B5N36
_chemical_formula_sum   'Al31 B5 N36'
_cell_volume   752.50086352
_cell_formula_units_Z   1
loop_
 _symmetry_equiv_pos_site_id
 _symmetry_equiv_pos_as_xyz
  1  'x, y, z'
loop_
 _atom_site_type_symbol
 _atom_site_label
 _atom_site_symmetry_multiplicity
 _atom_site_fract_x
 _atom_site_fract_y
 _atom_site_fract_z
 _atom_site_occupancy
  B  B0  1  0.11584423  0.08611868  0.35097974  1
  B  B1  1  0.58365703  0.48147002  0.15943836  1
  B  B2  1  0.22957762  0.88897361  0.09458462  1
  B  B3  1  0.53832173  0.88209642  0.09792260  1
  B  B4  1  0.77191473  0.76411411  0.35784201  1
  Al  Al5  1  0.22819172  0.19421973  0.07013690  1
  Al  Al6  1  0.77687995  0.08968594  0.82153377  1
  Al  Al7  1  0.88902945  0.20351326  0.60720932  1
  Al  Al8  1  0.45160758  0.07779819  0.31818905  1
  Al  Al9  1  0.56219354  0.19061156  0.07186165  1
  Al  Al10  1  0.11195471  0.09911767  0.82897006  1
  Al  Al11  1  0.22280090  0.19680524  0.56006157  1
  Al  Al12  1  0.78532426  0.08107335  0.31919725  1
  Al  Al13  1  0.89727305  0.19249185  0.10056065  1
  Al  Al14  1  0.43672148  0.10579516  0.81236424  1
  Al  Al15  1  0.55743259  0.19895874  0.56332130  1
  Al  Al16  1  0.10271682  0.43937058  0.38236389  1
  Al  Al17  1  0.22994847  0.55393067  0.14339344  1
  Al  Al18  1  0.77055287  0.43137293  0.89990349  1
  Al  Al19  1  0.89798635  0.52419441  0.64304336  1
  Al  Al20  1  0.44406227  0.43180727  0.38707800  1
  Al  Al21  1  0.10634765  0.43811922  0.89769351  1
  Al  Al22  1  0.22302045  0.53768572  0.64025314  1
  Al  Al23  1  0.78583983  0.42626915  0.38390241  1
  Al  Al24  1  0.86109186  0.56210265  0.14271475  1
  Al  Al25  1  0.44783888  0.43477866  0.89581353  1
  Al  Al26  1  0.55584917  0.53931130  0.64196429  1
  Al  Al27  1  0.11452555  0.76681837  0.38974456  1
  Al  Al28  1  0.77558078  0.76126537  0.82915996  1
  Al  Al29  1  0.88257563  0.86578154  0.56990437  1
  Al  Al30  1  0.44772414  0.76366137  0.38258756  1
  Al  Al31  1  0.12331350  0.76160898  0.88936878  1
  Al  Al32  1  0.22716128  0.86601214  0.63445081  1
  Al  Al33  1  0.87840516  0.87171851  0.06601186  1
  Al  Al34  1  0.44395367  0.76890254  0.89116118  1
  Al  Al35  1  0.55582816  0.86630367  0.62758294  1
  N  N36  1  0.21226509  0.18669638  0.36936141  1
  N  N37  1  0.12442795  0.06993164  0.09491900  1
  N  N38  1  0.88558207  0.20480594  0.86895614  1
  N  N39  1  0.77497395  0.08897496  0.63308080  1
  N  N40  1  0.55993294  0.19724285  0.37696814  1
  N  N41  1  0.45332587  0.07461982  0.13117920  1
  N  N42  1  0.22711665  0.20655958  0.88634417  1
  N  N43  1  0.11216131  0.10193462  0.63808978  1
  N  N44  1  0.92292540  0.18668774  0.35039682  1
  N  N45  1  0.77826121  0.08581323  0.13682031  1
  N  N46  1  0.55725347  0.20034399  0.88703809  1
  N  N47  1  0.43836424  0.10351666  0.62550601  1
  N  N48  1  0.22403083  0.54313470  0.32516032  1
  N  N49  1  0.09890598  0.44848865  0.08613816  1
  N  N50  1  0.89197672  0.52528644  0.83131051  1
  N  N51  1  0.77504139  0.42806912  0.57040986  1
  N  N52  1  0.56373568  0.52599618  0.30524015  1
  N  N53  1  0.46386504  0.43454325  0.09113463  1
  N  N54  1  0.22601577  0.53612332  0.82950248  1
  N  N55  1  0.11055644  0.43102558  0.56881984  1
  N  N56  1  0.87195897  0.57022722  0.33108945  1
  N  N57  1  0.75293888  0.43308022  0.09504943  1
  N  N58  1  0.55579520  0.54164232  0.82854466  1
  N  N59  1  0.44329250  0.43313333  0.57456185  1
  N  N60  1  0.21054279  0.90185172  0.35511073  1
  N  N61  1  0.13948302  0.77588419  0.07913425  1
  N  N62  1  0.89008640  0.87080359  0.88295726  1
  N  N63  1  0.78740530  0.75351122  0.63610342  1
  N  N64  1  0.58907562  0.85414930  0.36582262  1
  N  N65  1  0.42134802  0.81083158  0.07443826  1
  N  N66  1  0.22896312  0.86446531  0.81996342  1
  N  N67  1  0.11491379  0.75667871  0.57594094  1
  N  N68  1  0.87335812  0.85600420  0.37733734  1
  N  N69  1  0.72777725  0.78186264  0.08432868  1
  N  N70  1  0.54532726  0.87538624  0.81882327  1
  N  N71  1  0.44738360  0.75181437  0.56928972  1
