# generated using pymatgen
data_Al31B5N36
_symmetry_space_group_name_H-M   'P 1'
_cell_length_a   9.19509545
_cell_length_b   9.30459467
_cell_length_c   10.14453306
_cell_angle_alpha   90.43785365
_cell_angle_beta   89.76524735
_cell_angle_gamma   59.90323755
_symmetry_Int_Tables_number   1
_chemical_formula_structural   Al31B5N36
_chemical_formula_sum   'Al31 B5 N36'
_cell_volume   750.86383918
_cell_formula_units_Z   1
loop_
 _symmetry_equiv_pos_site_id
 _symmetry_equiv_pos_as_xyz
  1  'x, y, z'
loop_
 _atom_site_type_symbol
 _atom_site_label
 _atom_site_symmetry_multiplicity
 _atom_site_fract_x
 _atom_site_fract_y
 _atom_site_fract_z
 _atom_site_occupancy
  B  B0  1  0.11146588  0.10352513  0.30464131  1
  B  B1  1  0.59005300  0.47928353  0.15728121  1
  B  B2  1  0.25710328  0.91606164  0.15804375  1
  B  B3  1  0.54293950  0.89004397  0.09506025  1
  B  B4  1  0.77837252  0.76320431  0.35169692  1
  Al  Al5  1  0.22964915  0.20056456  0.06433907  1
  Al  Al6  1  0.78159712  0.09062373  0.80938118  1
  Al  Al7  1  0.90218987  0.19015207  0.55258160  1
  Al  Al8  1  0.45657716  0.08070751  0.31570795  1
  Al  Al9  1  0.56409073  0.19762094  0.05975282  1
  Al  Al10  1  0.10850749  0.09831723  0.81376946  1
  Al  Al11  1  0.22183667  0.20025871  0.55408160  1
  Al  Al12  1  0.78621443  0.08255761  0.31068166  1
  Al  Al13  1  0.90045779  0.18602743  0.07014927  1
  Al  Al14  1  0.44043091  0.09691470  0.80603991  1
  Al  Al15  1  0.55884339  0.20359831  0.55960203  1
  Al  Al16  1  0.11014915  0.43078741  0.30689625  1
  Al  Al17  1  0.22508658  0.54133370  0.06141565  1
  Al  Al18  1  0.76376166  0.43125286  0.89447432  1
  Al  Al19  1  0.89030745  0.53187180  0.61703201  1
  Al  Al20  1  0.44348446  0.42192819  0.31324272  1
  Al  Al21  1  0.11449595  0.42069309  0.81875602  1
  Al  Al22  1  0.22445260  0.53557143  0.56100027  1
  Al  Al23  1  0.78694288  0.43303651  0.37148060  1
  Al  Al24  1  0.86618214  0.55931577  0.10618727  1
  Al  Al25  1  0.44283985  0.42292005  0.81248732  1
  Al  Al26  1  0.55981322  0.54102615  0.63427401  1
  Al  Al27  1  0.10821105  0.76005400  0.29887970  1
  Al  Al28  1  0.76943182  0.76130778  0.83005350  1
  Al  Al29  1  0.89014203  0.86373935  0.56256719  1
  Al  Al30  1  0.45839936  0.75846055  0.37144026  1
  Al  Al31  1  0.10676816  0.75468428  0.81581517  1
  Al  Al32  1  0.23140319  0.86296633  0.63409227  1
  Al  Al33  1  0.87858100  0.86911032  0.05761999  1
  Al  Al34  1  0.43358190  0.77198649  0.89735230  1
  Al  Al35  1  0.55510132  0.86586126  0.61534688  1
  N  N36  1  0.21142774  0.19517190  0.36289157  1
  N  N37  1  0.11938431  0.09563398  0.14211910  1
  N  N38  1  0.89118286  0.19807833  0.88207270  1
  N  N39  1  0.78335251  0.09051838  0.61893660  1
  N  N40  1  0.56051100  0.20425612  0.37206513  1
  N  N41  1  0.45769681  0.08038954  0.12404749  1
  N  N42  1  0.22349559  0.20162141  0.87867548  1
  N  N43  1  0.11261030  0.09593210  0.62444903  1
  N  N44  1  0.92303060  0.18405970  0.36000338  1
  N  N45  1  0.78144864  0.08698208  0.12616770  1
  N  N46  1  0.55656359  0.20228650  0.87245021  1
  N  N47  1  0.44189262  0.09961800  0.61473993  1
  N  N48  1  0.22415385  0.53959116  0.37258796  1
  N  N49  1  0.11301427  0.42388264  0.11989332  1
  N  N50  1  0.88744519  0.53163458  0.85676683  1
  N  N51  1  0.77726983  0.42578542  0.56041970  1
  N  N52  1  0.56756682  0.53350269  0.30114064  1
  N  N53  1  0.46311459  0.42440245  0.12193321  1
  N  N54  1  0.22348522  0.53415480  0.87511634  1
  N  N55  1  0.11988334  0.41807808  0.62401672  1
  N  N56  1  0.87441072  0.57431191  0.32883620  1
  N  N57  1  0.75270465  0.43034917  0.08920103  1
  N  N58  1  0.55163560  0.54724508  0.82552475  1
  N  N59  1  0.44596175  0.42202488  0.62202675  1
  N  N60  1  0.23210966  0.89158271  0.30432892  1
  N  N61  1  0.09351829  0.75200929  0.12024168  1
  N  N62  1  0.88493343  0.87379729  0.87094047  1
  N  N63  1  0.78643014  0.75449347  0.62946479  1
  N  N64  1  0.59398950  0.85700594  0.36383097  1
  N  N65  1  0.41870591  0.82917154  0.08319883  1
  N  N66  1  0.22282480  0.86826141  0.82448770  1
  N  N67  1  0.10999214  0.75323813  0.62132062  1
  N  N68  1  0.88009385  0.85701828  0.37126737  1
  N  N69  1  0.72570448  0.78705944  0.07515888  1
  N  N70  1  0.53960888  0.87074794  0.81257590  1
  N  N71  1  0.44407623  0.75142774  0.55803217  1
