# generated using pymatgen
data_Al31B5N36
_symmetry_space_group_name_H-M   'P 1'
_cell_length_a   9.15038996
_cell_length_b   9.18643660
_cell_length_c   10.21172797
_cell_angle_alpha   91.25682925
_cell_angle_beta   90.33932366
_cell_angle_gamma   60.16890690
_symmetry_Int_Tables_number   1
_chemical_formula_structural   Al31B5N36
_chemical_formula_sum   'Al31 B5 N36'
_cell_volume   744.46029006
_cell_formula_units_Z   1
loop_
 _symmetry_equiv_pos_site_id
 _symmetry_equiv_pos_as_xyz
  1  'x, y, z'
loop_
 _atom_site_type_symbol
 _atom_site_label
 _atom_site_symmetry_multiplicity
 _atom_site_fract_x
 _atom_site_fract_y
 _atom_site_fract_z
 _atom_site_occupancy
  B  B0  1  0.11432272  0.09323427  0.30714080  1
  B  B1  1  0.58249815  0.48209781  0.15780831  1
  B  B2  1  0.22985213  0.88396153  0.14903499  1
  B  B3  1  0.53680174  0.88360257  0.10338207  1
  B  B4  1  0.77397743  0.76357892  0.35628618  1
  Al  Al5  1  0.22510180  0.19546861  0.07946041  1
  Al  Al6  1  0.78173001  0.09020747  0.81926292  1
  Al  Al7  1  0.90034911  0.19152930  0.56072152  1
  Al  Al8  1  0.45384871  0.07930413  0.31990961  1
  Al  Al9  1  0.56199018  0.19212179  0.07081991  1
  Al  Al10  1  0.10746246  0.10349835  0.82037796  1
  Al  Al11  1  0.22438050  0.19463330  0.55669878  1
  Al  Al12  1  0.78442518  0.08257082  0.31782608  1
  Al  Al13  1  0.89536557  0.19111427  0.07859933  1
  Al  Al14  1  0.43662753  0.10289381  0.81532586  1
  Al  Al15  1  0.55961172  0.19946881  0.56743111  1
  Al  Al16  1  0.10447424  0.43658575  0.38065759  1
  Al  Al17  1  0.22785589  0.55234553  0.14261891  1
  Al  Al18  1  0.76840906  0.43374676  0.90023168  1
  Al  Al19  1  0.89757568  0.52243113  0.64134825  1
  Al  Al20  1  0.44446170  0.43076412  0.38823724  1
  Al  Al21  1  0.10684252  0.43539502  0.89867201  1
  Al  Al22  1  0.22126615  0.54004716  0.63887032  1
  Al  Al23  1  0.78296103  0.43011064  0.38113754  1
  Al  Al24  1  0.86009622  0.56231624  0.14128048  1
  Al  Al25  1  0.44669100  0.43522184  0.89329756  1
  Al  Al26  1  0.55698500  0.54001499  0.64056119  1
  Al  Al27  1  0.11683251  0.76394701  0.38045984  1
  Al  Al28  1  0.77528587  0.76099305  0.83082269  1
  Al  Al29  1  0.88403952  0.86640896  0.56806678  1
  Al  Al30  1  0.45320031  0.75886142  0.37549711  1
  Al  Al31  1  0.12235243  0.76372472  0.89675385  1
  Al  Al32  1  0.22842425  0.86434173  0.63879936  1
  Al  Al33  1  0.87625803  0.87223802  0.06946711  1
  Al  Al34  1  0.43854136  0.77360000  0.90067087  1
  Al  Al35  1  0.55630656  0.86570199  0.62588685  1
  N  N36  1  0.21469894  0.18556336  0.36605698  1
  N  N37  1  0.11190042  0.09094787  0.14966044  1
  N  N38  1  0.89237003  0.19810502  0.89177758  1
  N  N39  1  0.78170362  0.09144618  0.63055811  1
  N  N40  1  0.56171423  0.19688541  0.37928309  1
  N  N41  1  0.45387541  0.07701435  0.13207415  1
  N  N42  1  0.22497431  0.20070453  0.89280432  1
  N  N43  1  0.10993529  0.10154226  0.63427351  1
  N  N44  1  0.92301760  0.18000485  0.36979666  1
  N  N45  1  0.77793410  0.08959136  0.13599551  1
  N  N46  1  0.55846804  0.20024940  0.88367248  1
  N  N47  1  0.43834692  0.10341275  0.62661959  1
  N  N48  1  0.22642309  0.53837092  0.32478247  1
  N  N49  1  0.09795579  0.44788121  0.08723027  1
  N  N50  1  0.89297864  0.52277762  0.83102171  1
  N  N51  1  0.77500445  0.42791395  0.56789420  1
  N  N52  1  0.56334953  0.52490850  0.30457844  1
  N  N53  1  0.46211677  0.43588246  0.08930890  1
  N  N54  1  0.22347820  0.53806012  0.83053910  1
  N  N55  1  0.11182743  0.42993790  0.56862580  1
  N  N56  1  0.87325807  0.56951529  0.33004439  1
  N  N57  1  0.75045047  0.43576373  0.09494730  1
  N  N58  1  0.55426597  0.54443776  0.82926121  1
  N  N59  1  0.44312578  0.43399270  0.57675542  1
  N  N60  1  0.22417737  0.88313052  0.31007075  1
  N  N61  1  0.13065639  0.77883827  0.08763665  1
  N  N62  1  0.88949448  0.87150463  0.88344382  1
  N  N63  1  0.78879128  0.75349679  0.63555917  1
  N  N64  1  0.59110463  0.85400980  0.36579203  1
  N  N65  1  0.41584203  0.81733323  0.08607530  1
  N  N66  1  0.22567871  0.86801623  0.82422945  1
  N  N67  1  0.11752774  0.75981062  0.56886973  1
  N  N68  1  0.87515302  0.85525847  0.37339067  1
  N  N69  1  0.72617884  0.78280120  0.08461128  1
  N  N70  1  0.54447513  0.87245859  0.82006842  1
  N  N71  1  0.44381388  0.75489238  0.56451646  1
