# generated using pymatgen
data_Al31B5N36
_symmetry_space_group_name_H-M   'P 1'
_cell_length_a   9.15114525
_cell_length_b   9.23055491
_cell_length_c   9.90078099
_cell_angle_alpha   89.98214362
_cell_angle_beta   90.34706420
_cell_angle_gamma   60.37218906
_symmetry_Int_Tables_number   1
_chemical_formula_structural   Al31B5N36
_chemical_formula_sum   'Al31 B5 N36'
_cell_volume   726.95719100
_cell_formula_units_Z   1
loop_
 _symmetry_equiv_pos_site_id
 _symmetry_equiv_pos_as_xyz
  1  'x, y, z'
loop_
 _atom_site_type_symbol
 _atom_site_label
 _atom_site_symmetry_multiplicity
 _atom_site_fract_x
 _atom_site_fract_y
 _atom_site_fract_z
 _atom_site_occupancy
  B  B0  1  0.11116229  0.08951605  0.30615729  1
  B  B1  1  0.58835063  0.47267083  0.04956335  1
  B  B2  1  0.21397523  0.88992421  0.07261878  1
  B  B3  1  0.53937326  0.88437803  0.11112238  1
  B  B4  1  0.76836366  0.76720814  0.31042210  1
  Al  Al5  1  0.22347121  0.19886827  0.06928083  1
  Al  Al6  1  0.78063958  0.08932655  0.80977376  1
  Al  Al7  1  0.89512817  0.20354781  0.55832505  1
  Al  Al8  1  0.44791027  0.08771479  0.31795618  1
  Al  Al9  1  0.56154978  0.19178537  0.05824803  1
  Al  Al10  1  0.11662352  0.09031244  0.81938413  1
  Al  Al11  1  0.21842422  0.20393073  0.55623912  1
  Al  Al12  1  0.78231997  0.08797936  0.31181287  1
  Al  Al13  1  0.89455068  0.19444565  0.06424674  1
  Al  Al14  1  0.44313459  0.08866996  0.80870640  1
  Al  Al15  1  0.55537566  0.20800039  0.56081348  1
  Al  Al16  1  0.10532605  0.43240379  0.31046772  1
  Al  Al17  1  0.22887961  0.54668319  0.05976644  1
  Al  Al18  1  0.77987372  0.42599866  0.81475750  1
  Al  Al19  1  0.88541208  0.54388148  0.55495583  1
  Al  Al20  1  0.44935518  0.42782135  0.30554368  1
  Al  Al21  1  0.11007618  0.42795667  0.81285868  1
  Al  Al22  1  0.22402972  0.54187990  0.56274523  1
  Al  Al23  1  0.77740746  0.42853420  0.30614361  1
  Al  Al24  1  0.87095084  0.54953010  0.06623084  1
  Al  Al25  1  0.44569286  0.42563938  0.81515201  1
  Al  Al26  1  0.55602389  0.53896457  0.55764488  1
  Al  Al27  1  0.10992160  0.76800935  0.30782316  1
  Al  Al28  1  0.77612481  0.75987050  0.81145658  1
  Al  Al29  1  0.88974877  0.86767838  0.55570206  1
  Al  Al30  1  0.44459736  0.76815148  0.33732025  1
  Al  Al31  1  0.11365855  0.76586048  0.81945615  1
  Al  Al32  1  0.21735379  0.88049724  0.55769354  1
  Al  Al33  1  0.88638508  0.86982341  0.06765171  1
  Al  Al34  1  0.45148888  0.76151247  0.91771396  1
  Al  Al35  1  0.56047794  0.86964053  0.56944924  1
  N  N36  1  0.20904757  0.19464191  0.35987607  1
  N  N37  1  0.11660327  0.07834134  0.13657637  1
  N  N38  1  0.89101618  0.20241484  0.87375100  1
  N  N39  1  0.78154972  0.09125808  0.61564551  1
  N  N40  1  0.55553455  0.20822963  0.36884393  1
  N  N41  1  0.45529753  0.07424969  0.12385881  1
  N  N42  1  0.22297285  0.20706220  0.87788535  1
  N  N43  1  0.11252482  0.09388885  0.62971604  1
  N  N44  1  0.91319244  0.19541596  0.36114190  1
  N  N45  1  0.77931852  0.08940178  0.12287812  1
  N  N46  1  0.55655447  0.20094161  0.86890978  1
  N  N47  1  0.44162104  0.09796503  0.61493993  1
  N  N48  1  0.22549982  0.54114914  0.36785806  1
  N  N49  1  0.10887199  0.43357543  0.11998525  1
  N  N50  1  0.88752009  0.54014649  0.87628310  1
  N  N51  1  0.77913075  0.42641025  0.62130519  1
  N  N52  1  0.55934177  0.53463204  0.36635658  1
  N  N53  1  0.46522543  0.42525493  0.11143654  1
  N  N54  1  0.22292522  0.54093139  0.87052869  1
  N  N55  1  0.11077248  0.42723832  0.61664109  1
  N  N56  1  0.87358044  0.56394655  0.35841019  1
  N  N57  1  0.75684023  0.42678200  0.11346705  1
  N  N58  1  0.56367722  0.52319645  0.90213807  1
  N  N59  1  0.44770278  0.42794015  0.62520705  1
  N  N60  1  0.20113826  0.90487407  0.36427329  1
  N  N61  1  0.12728814  0.77371181  0.11860719  1
  N  N62  1  0.88898188  0.86945989  0.87668015  1
  N  N63  1  0.78486080  0.75722280  0.62288411  1
  N  N64  1  0.58497192  0.86341247  0.37015637  1
  N  N65  1  0.42782004  0.80424559  0.11448298  1
  N  N66  1  0.21588237  0.88000817  0.90726518  1
  N  N67  1  0.11191756  0.76472430  0.62390926  1
  N  N68  1  0.87934602  0.85697464  0.35975688  1
  N  N69  1  0.74355617  0.77572216  0.13982721  1
  N  N70  1  0.55439128  0.86813477  0.85181029  1
  N  N71  1  0.44145476  0.76158306  0.57733844  1
