# generated using pymatgen
data_Al31B5N36
_symmetry_space_group_name_H-M   'P 1'
_cell_length_a   9.12837776
_cell_length_b   9.20933035
_cell_length_c   10.04165453
_cell_angle_alpha   89.71003804
_cell_angle_beta   89.98498430
_cell_angle_gamma   60.36063605
_symmetry_Int_Tables_number   1
_chemical_formula_structural   Al31B5N36
_chemical_formula_sum   'Al31 B5 N36'
_cell_volume   733.69801730
_cell_formula_units_Z   1
loop_
 _symmetry_equiv_pos_site_id
 _symmetry_equiv_pos_as_xyz
  1  'x, y, z'
loop_
 _atom_site_type_symbol
 _atom_site_label
 _atom_site_symmetry_multiplicity
 _atom_site_fract_x
 _atom_site_fract_y
 _atom_site_fract_z
 _atom_site_occupancy
  B  B0  1  0.11238092  0.09077452  0.30774787  1
  B  B1  1  0.58796657  0.47463713  0.04946646  1
  B  B2  1  0.22169755  0.89002801  0.07545294  1
  B  B3  1  0.54165956  0.88304888  0.10497582  1
  B  B4  1  0.77432958  0.76513701  0.35368196  1
  Al  Al5  1  0.22259564  0.20099562  0.06973745  1
  Al  Al6  1  0.78168945  0.09008107  0.80875204  1
  Al  Al7  1  0.89434028  0.20408266  0.55678500  1
  Al  Al8  1  0.45155047  0.08482969  0.31513536  1
  Al  Al9  1  0.56254033  0.19223945  0.05946988  1
  Al  Al10  1  0.11639894  0.08921079  0.81782644  1
  Al  Al11  1  0.21952323  0.20355549  0.55451385  1
  Al  Al12  1  0.78236500  0.08733820  0.31163775  1
  Al  Al13  1  0.89639382  0.19318131  0.06456649  1
  Al  Al14  1  0.43925310  0.09592168  0.81075694  1
  Al  Al15  1  0.55501858  0.20597149  0.55954032  1
  Al  Al16  1  0.10517543  0.43422737  0.30958019  1
  Al  Al17  1  0.22792000  0.54926975  0.05903443  1
  Al  Al18  1  0.78098954  0.42268862  0.81462717  1
  Al  Al19  1  0.88609648  0.54238931  0.56230841  1
  Al  Al20  1  0.45023020  0.42803056  0.30425269  1
  Al  Al21  1  0.11233887  0.42563292  0.81116690  1
  Al  Al22  1  0.22458812  0.53984925  0.56078874  1
  Al  Al23  1  0.77673377  0.43194488  0.30486561  1
  Al  Al24  1  0.86694818  0.55222562  0.05817526  1
  Al  Al25  1  0.44659981  0.42485802  0.81558268  1
  Al  Al26  1  0.55779749  0.53295214  0.55793320  1
  Al  Al27  1  0.11198365  0.76763854  0.30712275  1
  Al  Al28  1  0.77861646  0.75833870  0.82041969  1
  Al  Al29  1  0.88820609  0.86830808  0.56210648  1
  Al  Al30  1  0.45027964  0.76876930  0.36766749  1
  Al  Al31  1  0.11553256  0.76366304  0.81529507  1
  Al  Al32  1  0.21240478  0.88226783  0.55788646  1
  Al  Al33  1  0.88333599  0.87072159  0.06075474  1
  Al  Al34  1  0.44951149  0.76261507  0.91199925  1
  Al  Al35  1  0.55157544  0.86643858  0.62332970  1
  N  N36  1  0.21013254  0.19502313  0.36043972  1
  N  N37  1  0.11757204  0.07948956  0.13830638  1
  N  N38  1  0.89164775  0.20109852  0.87550466  1
  N  N39  1  0.78057304  0.09264652  0.61684360  1
  N  N40  1  0.55587755  0.20801604  0.36971688  1
  N  N41  1  0.45367278  0.07746510  0.12355684  1
  N  N42  1  0.22157159  0.20638500  0.87994967  1
  N  N43  1  0.11150873  0.09500254  0.62914568  1
  N  N44  1  0.91291177  0.19692613  0.36153419  1
  N  N45  1  0.78075273  0.08785052  0.12488346  1
  N  N46  1  0.55824085  0.19975168  0.87167767  1
  N  N47  1  0.43882851  0.10143917  0.61837228  1
  N  N48  1  0.22643692  0.54069831  0.36816962  1
  N  N49  1  0.10425920  0.43787466  0.12086831  1
  N  N50  1  0.89091127  0.53402341  0.87161194  1
  N  N51  1  0.77802982  0.42514732  0.62345686  1
  N  N52  1  0.56054769  0.53288982  0.36879916  1
  N  N53  1  0.46512300  0.42673698  0.11192565  1
  N  N54  1  0.22337477  0.53944190  0.87127951  1
  N  N55  1  0.11232056  0.42543829  0.61742116  1
  N  N56  1  0.87327602  0.56771551  0.36638966  1
  N  N57  1  0.75679299  0.42788790  0.11386562  1
  N  N58  1  0.56517402  0.52176744  0.90202787  1
  N  N59  1  0.44714346  0.42624504  0.62683699  1
  N  N60  1  0.20226206  0.90538846  0.36600810  1
  N  N61  1  0.12727110  0.77540530  0.11948415  1
  N  N62  1  0.89184245  0.87087312  0.87214213  1
  N  N63  1  0.78620371  0.75522046  0.62831731  1
  N  N64  1  0.59158066  0.86047422  0.36084059  1
  N  N65  1  0.42354310  0.81157733  0.09694307  1
  N  N66  1  0.21548517  0.87764796  0.89802755  1
  N  N67  1  0.11273436  0.76191357  0.62253719  1
  N  N68  1  0.88034790  0.85550524  0.36758813  1
  N  N69  1  0.73069763  0.78305310  0.08649694  1
  N  N70  1  0.54525606  0.86531072  0.81848537  1
  N  N71  1  0.44084399  0.76020309  0.56707167  1
