# generated using pymatgen
data_Al31B5N36
_symmetry_space_group_name_H-M   'P 1'
_cell_length_a   9.14989935
_cell_length_b   9.14319522
_cell_length_c   10.26877344
_cell_angle_alpha   89.84109148
_cell_angle_beta   90.03368099
_cell_angle_gamma   60.00708397
_symmetry_Int_Tables_number   1
_chemical_formula_structural   Al31B5N36
_chemical_formula_sum   'Al31 B5 N36'
_cell_volume   744.03216612
_cell_formula_units_Z   1
loop_
 _symmetry_equiv_pos_site_id
 _symmetry_equiv_pos_as_xyz
  1  'x, y, z'
loop_
 _atom_site_type_symbol
 _atom_site_label
 _atom_site_symmetry_multiplicity
 _atom_site_fract_x
 _atom_site_fract_y
 _atom_site_fract_z
 _atom_site_occupancy
  B  B0  1  0.11443089  0.08964255  0.35774876  1
  B  B1  1  0.55430835  0.54400484  0.14039099  1
  B  B2  1  0.22203044  0.87456990  0.10318127  1
  B  B3  1  0.56023964  0.86513471  0.10257903  1
  B  B4  1  0.77495340  0.76375492  0.35868753  1
  Al  Al5  1  0.23013903  0.18735114  0.06132903  1
  Al  Al6  1  0.77897582  0.09319499  0.80976632  1
  Al  Al7  1  0.89419527  0.20283123  0.56094160  1
  Al  Al8  1  0.45236863  0.07755810  0.31335128  1
  Al  Al9  1  0.56089741  0.20139827  0.06280732  1
  Al  Al10  1  0.11202450  0.09498236  0.82234033  1
  Al  Al11  1  0.22136718  0.20365300  0.56228214  1
  Al  Al12  1  0.78260433  0.08747718  0.31164910  1
  Al  Al13  1  0.89126882  0.19903296  0.06134097  1
  Al  Al14  1  0.44160235  0.09902809  0.81123608  1
  Al  Al15  1  0.55522797  0.20520724  0.55641290  1
  Al  Al16  1  0.10568898  0.43022807  0.31006210  1
  Al  Al17  1  0.22983406  0.54323342  0.06202906  1
  Al  Al18  1  0.78587829  0.42260724  0.80999024  1
  Al  Al19  1  0.88918411  0.54169788  0.56230788  1
  Al  Al20  1  0.44312679  0.42818928  0.30861085  1
  Al  Al21  1  0.11304918  0.42564787  0.81022871  1
  Al  Al22  1  0.22294860  0.53823216  0.55735721  1
  Al  Al23  1  0.78166842  0.43404580  0.31114056  1
  Al  Al24  1  0.87442098  0.54407981  0.05901086  1
  Al  Al25  1  0.44254409  0.42335663  0.81299569  1
  Al  Al26  1  0.55271864  0.54354419  0.63105304  1
  Al  Al27  1  0.11145362  0.76942917  0.31420156  1
  Al  Al28  1  0.78185576  0.75759778  0.82106665  1
  Al  Al29  1  0.88860052  0.86920212  0.56170059  1
  Al  Al30  1  0.44629211  0.76864449  0.38855131  1
  Al  Al31  1  0.11010205  0.75524862  0.81075617  1
  Al  Al32  1  0.22713399  0.87099509  0.62955691  1
  Al  Al33  1  0.88442236  0.87365619  0.06138617  1
  Al  Al34  1  0.44707253  0.75629865  0.89077813  1
  Al  Al35  1  0.55643168  0.86772389  0.62881276  1
  N  N36  1  0.21016361  0.19104127  0.37006937  1
  N  N37  1  0.12976745  0.05617291  0.08947378  1
  N  N38  1  0.88642723  0.20522867  0.87600188  1
  N  N39  1  0.77848220  0.09392229  0.62008495  1
  N  N40  1  0.55502526  0.20508663  0.36907167  1
  N  N41  1  0.45878362  0.06159074  0.12274349  1
  N  N42  1  0.22495727  0.20680176  0.87707347  1
  N  N43  1  0.10723782  0.10388897  0.63206586  1
  N  N44  1  0.91659194  0.19366278  0.36931600  1
  N  N45  1  0.78000696  0.09149973  0.12837900  1
  N  N46  1  0.55788247  0.20223499  0.87775139  1
  N  N47  1  0.44123904  0.10183693  0.62181106  1
  N  N48  1  0.22195676  0.53984928  0.37018657  1
  N  N49  1  0.11119271  0.42492145  0.12398070  1
  N  N50  1  0.89359496  0.53255728  0.87492388  1
  N  N51  1  0.78535166  0.42367546  0.61813815  1
  N  N52  1  0.55023910  0.54978558  0.32369455  1
  N  N53  1  0.45753411  0.43767519  0.12001646  1
  N  N54  1  0.22282167  0.53656058  0.87753010  1
  N  N55  1  0.11261767  0.42676856  0.62093786  1
  N  N56  1  0.87729150  0.56669573  0.37179886  1
  N  N57  1  0.75717582  0.43662742  0.12318965  1
  N  N58  1  0.55533771  0.54173979  0.82145375  1
  N  N59  1  0.44105935  0.42254153  0.62226612  1
  N  N60  1  0.20585218  0.90584234  0.36108938  1
  N  N61  1  0.12782056  0.77226308  0.12295269  1
  N  N62  1  0.89219042  0.87235943  0.87666767  1
  N  N63  1  0.78898710  0.75516702  0.63174315  1
  N  N64  1  0.59204565  0.85593660  0.36437463  1
  N  N65  1  0.44598297  0.75936116  0.08781111  1
  N  N66  1  0.23187033  0.86309577  0.82264521  1
  N  N67  1  0.10826954  0.75621486  0.62148459  1
  N  N68  1  0.87885605  0.85712935  0.37031335  1
  N  N69  1  0.74279679  0.77601719  0.09011482  1
  N  N70  1  0.55025784  0.86879224  0.82247524  1
  N  N71  1  0.44538478  0.75950824  0.57043391  1
