# generated using pymatgen
data_Al31B5N36
_symmetry_space_group_name_H-M   'P 1'
_cell_length_a   9.16093066
_cell_length_b   9.24122836
_cell_length_c   9.76853058
_cell_angle_alpha   90.22905699
_cell_angle_beta   90.01667434
_cell_angle_gamma   60.22564938
_symmetry_Int_Tables_number   1
_chemical_formula_structural   Al31B5N36
_chemical_formula_sum   'Al31 B5 N36'
_cell_volume   717.80732212
_cell_formula_units_Z   1
loop_
 _symmetry_equiv_pos_site_id
 _symmetry_equiv_pos_as_xyz
  1  'x, y, z'
loop_
 _atom_site_type_symbol
 _atom_site_label
 _atom_site_symmetry_multiplicity
 _atom_site_fract_x
 _atom_site_fract_y
 _atom_site_fract_z
 _atom_site_occupancy
  B  B0  1  0.11217157  0.09470762  0.39590507  1
  B  B1  1  0.58283470  0.48571719  0.16293673  1
  B  B2  1  0.22821741  0.89420676  0.15744604  1
  B  B3  1  0.55179797  0.87516301  0.15531370  1
  B  B4  1  0.77789204  0.76122797  0.39382147  1
  Al  Al5  1  0.22366254  0.19730413  0.15149779  1
  Al  Al6  1  0.78120402  0.09074340  0.89570016  1
  Al  Al7  1  0.89347339  0.20285893  0.64037354  1
  Al  Al8  1  0.44676225  0.08528063  0.39132346  1
  Al  Al9  1  0.56138121  0.19794099  0.14821773  1
  Al  Al10  1  0.11560850  0.08821729  0.89793287  1
  Al  Al11  1  0.22171648  0.20295719  0.63965457  1
  Al  Al12  1  0.78278166  0.08577306  0.39823865  1
  Al  Al13  1  0.89907367  0.19290528  0.15291465  1
  Al  Al14  1  0.44599880  0.08804966  0.89984841  1
  Al  Al15  1  0.55503719  0.20399709  0.64771121  1
  Al  Al16  1  0.10620525  0.43089313  0.39565558  1
  Al  Al17  1  0.22917659  0.54593638  0.14708717  1
  Al  Al18  1  0.77365548  0.42848749  0.89932136  1
  Al  Al19  1  0.88510606  0.54317563  0.64121103  1
  Al  Al20  1  0.44665971  0.42436582  0.39644221  1
  Al  Al21  1  0.11008788  0.42733942  0.89743035  1
  Al  Al22  1  0.22278799  0.54034205  0.64787682  1
  Al  Al23  1  0.78396858  0.42654520  0.39461390  1
  Al  Al24  1  0.87082190  0.55149339  0.15180771  1
  Al  Al25  1  0.44982722  0.42961915  0.90013667  1
  Al  Al26  1  0.55348527  0.54399740  0.64633474  1
  Al  Al27  1  0.10898618  0.76582409  0.38835893  1
  Al  Al28  1  0.76940591  0.76374454  0.89792493  1
  Al  Al29  1  0.88881171  0.86779097  0.64023203  1
  Al  Al30  1  0.44857762  0.76010481  0.36521843  1
  Al  Al31  1  0.11442036  0.76479242  0.90104663  1
  Al  Al32  1  0.22671164  0.87059173  0.63569778  1
  Al  Al33  1  0.88549324  0.86746989  0.14884601  1
  Al  Al34  1  0.44120198  0.76797205  0.91439901  1
  Al  Al35  1  0.55442833  0.86823328  0.63544693  1
  N  N36  1  0.20806120  0.19582856  0.34509526  1
  N  N37  1  0.12157804  0.07529288  0.09107604  1
  N  N38  1  0.89163372  0.20550146  0.83717669  1
  N  N39  1  0.77889318  0.09177665  0.58992964  1
  N  N40  1  0.55764808  0.20270320  0.33933782  1
  N  N41  1  0.45444790  0.07660965  0.09815123  1
  N  N42  1  0.22192261  0.20440598  0.83673259  1
  N  N43  1  0.11399151  0.09004843  0.56330832  1
  N  N44  1  0.91438132  0.19153225  0.34611980  1
  N  N45  1  0.78324585  0.08843552  0.08990784  1
  N  N46  1  0.55450223  0.20586680  0.84295134  1
  N  N47  1  0.44568471  0.09184518  0.58377708  1
  N  N48  1  0.22475945  0.53813012  0.33782698  1
  N  N49  1  0.10753616  0.42938503  0.09336308  1
  N  N50  1  0.88542222  0.54103097  0.83852462  1
  N  N51  1  0.77681106  0.42668372  0.58599246  1
  N  N52  1  0.56419945  0.52416359  0.31505860  1
  N  N53  1  0.46575961  0.43133346  0.09681196  1
  N  N54  1  0.22425122  0.53946137  0.84435110  1
  N  N55  1  0.11100690  0.42813285  0.58896666  1
  N  N56  1  0.87519428  0.56485410  0.34422576  1
  N  N57  1  0.75784470  0.42829326  0.09976486  1
  N  N58  1  0.55224415  0.54774230  0.84040484  1
  N  N59  1  0.44698019  0.42644203  0.58884349  1
  N  N60  1  0.20881349  0.90048131  0.32390322  1
  N  N61  1  0.12258162  0.77363553  0.09710171  1
  N  N62  1  0.88977525  0.86707312  0.83689145  1
  N  N63  1  0.77504101  0.76150773  0.56256874  1
  N  N64  1  0.57988043  0.86164158  0.32356716  1
  N  N65  1  0.42408901  0.80496030  0.11002451  1
  N  N66  1  0.22567116  0.87162261  0.83037524  1
  N  N67  1  0.11278865  0.75968412  0.58227624  1
  N  N68  1  0.87700573  0.85770096  0.34259558  1
  N  N69  1  0.74524320  0.77427923  0.09012322  1
  N  N70  1  0.55268680  0.87088331  0.82953931  1
  N  N71  1  0.44671600  0.75562233  0.56575569  1
