# generated using pymatgen
data_Al31B5N36
_symmetry_space_group_name_H-M   'P 1'
_cell_length_a   9.11111033
_cell_length_b   9.21492788
_cell_length_c   10.22514729
_cell_angle_alpha   90.29688291
_cell_angle_beta   89.70998457
_cell_angle_gamma   60.36257833
_symmetry_Int_Tables_number   1
_chemical_formula_structural   Al31B5N36
_chemical_formula_sum   'Al31 B5 N36'
_cell_volume   746.13270161
_cell_formula_units_Z   1
loop_
 _symmetry_equiv_pos_site_id
 _symmetry_equiv_pos_as_xyz
  1  'x, y, z'
loop_
 _atom_site_type_symbol
 _atom_site_label
 _atom_site_symmetry_multiplicity
 _atom_site_fract_x
 _atom_site_fract_y
 _atom_site_fract_z
 _atom_site_occupancy
  B  B0  1  0.11756167  0.08715634  0.31910402  1
  B  B1  1  0.58953938  0.48354067  0.15515263  1
  B  B2  1  0.23075281  0.89033688  0.10999240  1
  B  B3  1  0.53954742  0.88593517  0.09480691  1
  B  B4  1  0.77691408  0.76478558  0.35557936  1
  Al  Al5  1  0.22424017  0.20039923  0.06639759  1
  Al  Al6  1  0.78177824  0.08823466  0.80916841  1
  Al  Al7  1  0.90015364  0.19110651  0.55247627  1
  Al  Al8  1  0.45343622  0.08021840  0.31338154  1
  Al  Al9  1  0.56186554  0.19568451  0.05876911  1
  Al  Al10  1  0.10983467  0.09703300  0.81150103  1
  Al  Al11  1  0.22049246  0.20243442  0.55375972  1
  Al  Al12  1  0.78449773  0.08372126  0.30974429  1
  Al  Al13  1  0.89985719  0.18651079  0.06981823  1
  Al  Al14  1  0.43872530  0.09752723  0.80755020  1
  Al  Al15  1  0.55750929  0.20284029  0.55858369  1
  Al  Al16  1  0.10668835  0.43324135  0.30793587  1
  Al  Al17  1  0.23360703  0.54980781  0.06117554  1
  Al  Al18  1  0.76432929  0.42608505  0.89114238  1
  Al  Al19  1  0.89291316  0.54125929  0.56226212  1
  Al  Al20  1  0.44349976  0.42247292  0.31068814  1
  Al  Al21  1  0.10845454  0.42455425  0.81365979  1
  Al  Al22  1  0.22570748  0.53541297  0.55872700  1
  Al  Al23  1  0.78168688  0.42892391  0.36997406  1
  Al  Al24  1  0.87001010  0.55675412  0.06930251  1
  Al  Al25  1  0.44165269  0.42126070  0.81079852  1
  Al  Al26  1  0.56397043  0.53730532  0.63455585  1
  Al  Al27  1  0.11582181  0.77008161  0.31150687  1
  Al  Al28  1  0.77770184  0.75502511  0.82102720  1
  Al  Al29  1  0.88997195  0.86531172  0.56018382  1
  Al  Al30  1  0.45088921  0.76425324  0.37729353  1
  Al  Al31  1  0.11034658  0.75464622  0.80792104  1
  Al  Al32  1  0.22895814  0.86784145  0.61735147  1
  Al  Al33  1  0.88240500  0.87271396  0.05874123  1
  Al  Al34  1  0.43823466  0.76617229  0.88906403  1
  Al  Al35  1  0.55613499  0.86503538  0.62043536  1
  N  N36  1  0.21066436  0.19585649  0.36215371  1
  N  N37  1  0.12213573  0.07845395  0.13444621  1
  N  N38  1  0.89231247  0.19510879  0.88151576  1
  N  N39  1  0.78171588  0.08899847  0.61992655  1
  N  N40  1  0.55876180  0.20490638  0.37178814  1
  N  N41  1  0.45342533  0.07752775  0.12304982  1
  N  N42  1  0.22088731  0.20571786  0.87972514  1
  N  N43  1  0.10873225  0.10125392  0.62564654  1
  N  N44  1  0.92012748  0.18431610  0.35982289  1
  N  N45  1  0.77899469  0.08754822  0.12656399  1
  N  N46  1  0.55717578  0.20137334  0.87333677  1
  N  N47  1  0.43982778  0.09926456  0.61722703  1
  N  N48  1  0.22443069  0.54223889  0.37049858  1
  N  N49  1  0.10792289  0.43859109  0.12292789  1
  N  N50  1  0.88921042  0.53420019  0.87997941  1
  N  N51  1  0.77573851  0.42310376  0.55826697  1
  N  N52  1  0.56470844  0.53915772  0.29765474  1
  N  N53  1  0.46426185  0.42295975  0.12104776  1
  N  N54  1  0.22205205  0.53732223  0.87616463  1
  N  N55  1  0.11361308  0.42279232  0.62189454  1
  N  N56  1  0.87941213  0.57149985  0.36704565  1
  N  N57  1  0.75376723  0.42939303  0.08771030  1
  N  N58  1  0.55506309  0.54269216  0.82229375  1
  N  N59  1  0.44470483  0.42049591  0.62247172  1
  N  N60  1  0.21344861  0.90199913  0.35762492  1
  N  N61  1  0.13386897  0.77984086  0.11915100  1
  N  N62  1  0.89088799  0.86931842  0.87388769  1
  N  N63  1  0.78966158  0.75146423  0.63049515  1
  N  N64  1  0.59283507  0.85789797  0.36318414  1
  N  N65  1  0.41579395  0.81662630  0.07427685  1
  N  N66  1  0.22751095  0.86725728  0.81619060  1
  N  N67  1  0.10922696  0.75288805  0.61855465  1
  N  N68  1  0.88123831  0.85674448  0.36778680  1
  N  N69  1  0.72776087  0.78676161  0.08654009  1
  N  N70  1  0.54643539  0.86987419  0.81485962  1
  N  N71  1  0.45197765  0.74662981  0.56231281  1
