# generated using pymatgen
data_Al31B5N36
_symmetry_space_group_name_H-M   'P 1'
_cell_length_a   9.17834266
_cell_length_b   9.29086829
_cell_length_c   10.17959679
_cell_angle_alpha   90.59209780
_cell_angle_beta   89.48663381
_cell_angle_gamma   59.87120429
_symmetry_Int_Tables_number   1
_chemical_formula_structural   Al31B5N36
_chemical_formula_sum   'Al31 B5 N36'
_cell_volume   750.64634357
_cell_formula_units_Z   1
loop_
 _symmetry_equiv_pos_site_id
 _symmetry_equiv_pos_as_xyz
  1  'x, y, z'
loop_
 _atom_site_type_symbol
 _atom_site_label
 _atom_site_symmetry_multiplicity
 _atom_site_fract_x
 _atom_site_fract_y
 _atom_site_fract_z
 _atom_site_occupancy
  B  B0  1  0.11198378  0.10404656  0.30788801  1
  B  B1  1  0.59081594  0.48040885  0.16018375  1
  B  B2  1  0.25539469  0.91668982  0.15914615  1
  B  B3  1  0.53957939  0.89186287  0.10085466  1
  B  B4  1  0.77574262  0.75827214  0.39816271  1
  Al  Al5  1  0.22791935  0.20345636  0.06730119  1
  Al  Al6  1  0.78148893  0.09019209  0.81354520  1
  Al  Al7  1  0.90139251  0.19044180  0.55721330  1
  Al  Al8  1  0.45782231  0.07906197  0.31786177  1
  Al  Al9  1  0.56432847  0.19872901  0.06259064  1
  Al  Al10  1  0.10771642  0.09919432  0.81624481  1
  Al  Al11  1  0.22174926  0.19944275  0.55587914  1
  Al  Al12  1  0.78808777  0.08327482  0.31416171  1
  Al  Al13  1  0.89962276  0.19132413  0.07333958  1
  Al  Al14  1  0.44270859  0.09438353  0.80650402  1
  Al  Al15  1  0.55869250  0.20276358  0.56254503  1
  Al  Al16  1  0.11213488  0.42838412  0.31395254  1
  Al  Al17  1  0.22442580  0.54068650  0.06531945  1
  Al  Al18  1  0.76483864  0.43505104  0.89554698  1
  Al  Al19  1  0.88480856  0.53562879  0.63303943  1
  Al  Al20  1  0.44424916  0.42170350  0.31603198  1
  Al  Al21  1  0.11672256  0.41954407  0.81589308  1
  Al  Al22  1  0.22371151  0.53458017  0.56348387  1
  Al  Al23  1  0.78711276  0.43173397  0.38126887  1
  Al  Al24  1  0.85790588  0.56666621  0.14381431  1
  Al  Al25  1  0.44241230  0.42181827  0.81624933  1
  Al  Al26  1  0.55823499  0.54012476  0.63773776  1
  Al  Al27  1  0.10824193  0.76242789  0.30202067  1
  Al  Al28  1  0.76144703  0.76132954  0.87899724  1
  Al  Al29  1  0.89473711  0.86710864  0.56044440  1
  Al  Al30  1  0.45641774  0.75998891  0.37418982  1
  Al  Al31  1  0.10647158  0.75326664  0.81969813  1
  Al  Al32  1  0.22988290  0.86220044  0.63731629  1
  Al  Al33  1  0.88467733  0.87224129  0.06461430  1
  Al  Al34  1  0.43337081  0.77171625  0.89650986  1
  Al  Al35  1  0.55707773  0.86376880  0.61155649  1
  N  N36  1  0.21314446  0.19389822  0.36558823  1
  N  N37  1  0.11862866  0.09721628  0.14468991  1
  N  N38  1  0.89017716  0.20049870  0.88578294  1
  N  N39  1  0.78259057  0.09005184  0.62494137  1
  N  N40  1  0.56061293  0.20434944  0.37546577  1
  N  N41  1  0.45794835  0.08114054  0.12577099  1
  N  N42  1  0.22380876  0.20171357  0.88113702  1
  N  N43  1  0.11232578  0.09514820  0.62771190  1
  N  N44  1  0.92350988  0.18519941  0.36454724  1
  N  N45  1  0.78138310  0.09051487  0.12924895  1
  N  N46  1  0.55618174  0.20103481  0.87610493  1
  N  N47  1  0.44193113  0.09797012  0.61774921  1
  N  N48  1  0.22421103  0.54095755  0.37577567  1
  N  N49  1  0.10943474  0.42688931  0.12522426  1
  N  N50  1  0.88037421  0.53708401  0.82596635  1
  N  N51  1  0.77654331  0.42490553  0.56704380  1
  N  N52  1  0.56949148  0.53217929  0.30423099  1
  N  N53  1  0.46368751  0.42513049  0.12485825  1
  N  N54  1  0.22187541  0.53327016  0.87944998  1
  N  N55  1  0.11954192  0.41739329  0.62397440  1
  N  N56  1  0.87398812  0.57038179  0.33138614  1
  N  N57  1  0.75292471  0.43689059  0.09054596  1
  N  N58  1  0.55060511  0.54668643  0.82927101  1
  N  N59  1  0.44442471  0.42114303  0.62663998  1
  N  N60  1  0.23260851  0.89267839  0.30520497  1
  N  N61  1  0.09907950  0.75350607  0.12276791  1
  N  N62  1  0.88391418  0.87234452  0.87577087  1
  N  N63  1  0.78361348  0.74592177  0.55974716  1
  N  N64  1  0.58841134  0.85845354  0.36044909  1
  N  N65  1  0.41808705  0.83083547  0.08210339  1
  N  N66  1  0.22208039  0.86896024  0.82708221  1
  N  N67  1  0.10826474  0.75136980  0.62837271  1
  N  N68  1  0.88624572  0.86368184  0.37470641  1
  N  N69  1  0.72801469  0.78337947  0.07008529  1
  N  N70  1  0.55126352  0.86337148  0.80767036  1
  N  N71  1  0.44206385  0.74983730  0.56078684  1
