# generated using pymatgen
data_Al31B5N36
_symmetry_space_group_name_H-M   'P 1'
_cell_length_a   9.15059797
_cell_length_b   9.14193623
_cell_length_c   10.27167708
_cell_angle_alpha   89.82205767
_cell_angle_beta   90.02953163
_cell_angle_gamma   60.00051456
_symmetry_Int_Tables_number   1
_chemical_formula_structural   Al31B5N36
_chemical_formula_sum   'Al31 B5 N36'
_cell_volume   744.14671850
_cell_formula_units_Z   1
loop_
 _symmetry_equiv_pos_site_id
 _symmetry_equiv_pos_as_xyz
  1  'x, y, z'
loop_
 _atom_site_type_symbol
 _atom_site_label
 _atom_site_symmetry_multiplicity
 _atom_site_fract_x
 _atom_site_fract_y
 _atom_site_fract_z
 _atom_site_occupancy
  B  B0  1  0.11454717  0.08940912  0.35770922  1
  B  B1  1  0.55426360  0.54403566  0.13106802  1
  B  B2  1  0.22079722  0.87439284  0.10304599  1
  B  B3  1  0.56127919  0.86480215  0.10250566  1
  B  B4  1  0.77500358  0.76354396  0.35865465  1
  Al  Al5  1  0.23028035  0.18707472  0.06119247  1
  Al  Al6  1  0.77885422  0.09344710  0.80969613  1
  Al  Al7  1  0.89413089  0.20304319  0.56066387  1
  Al  Al8  1  0.45235630  0.07723601  0.31345195  1
  Al  Al9  1  0.56107517  0.20117318  0.06278143  1
  Al  Al10  1  0.11173345  0.09534567  0.82219193  1
  Al  Al11  1  0.22141369  0.20359758  0.56225907  1
  Al  Al12  1  0.78251345  0.08756042  0.31179769  1
  Al  Al13  1  0.89125407  0.19885098  0.06125702  1
  Al  Al14  1  0.44152860  0.09940404  0.81124667  1
  Al  Al15  1  0.55509719  0.20536577  0.55607093  1
  Al  Al16  1  0.10572934  0.43003775  0.31017313  1
  Al  Al17  1  0.22948909  0.54342045  0.06195256  1
  Al  Al18  1  0.78560309  0.42292033  0.80942816  1
  Al  Al19  1  0.88919036  0.54169483  0.56212816  1
  Al  Al20  1  0.44429313  0.42909956  0.30954801  1
  Al  Al21  1  0.11300464  0.42572405  0.81010057  1
  Al  Al22  1  0.22302636  0.53819919  0.55709162  1
  Al  Al23  1  0.77951689  0.43519335  0.31196297  1
  Al  Al24  1  0.87468669  0.54419693  0.05891822  1
  Al  Al25  1  0.44252125  0.42366635  0.81236034  1
  Al  Al26  1  0.55298855  0.54309992  0.62816134  1
  Al  Al27  1  0.11149371  0.76931465  0.31446179  1
  Al  Al28  1  0.78198697  0.75758551  0.82101128  1
  Al  Al29  1  0.88856678  0.86925957  0.56168695  1
  Al  Al30  1  0.44668816  0.76793869  0.39000336  1
  Al  Al31  1  0.11001691  0.75523464  0.81070954  1
  Al  Al32  1  0.22687001  0.87128393  0.62992359  1
  Al  Al33  1  0.88443601  0.87379752  0.06128408  1
  Al  Al34  1  0.44700139  0.75642441  0.88954718  1
  Al  Al35  1  0.55640371  0.86806872  0.62931368  1
  N  N36  1  0.21029619  0.19081340  0.37005508  1
  N  N37  1  0.12993708  0.05584398  0.08945737  1
  N  N38  1  0.88623923  0.20555060  0.87619818  1
  N  N39  1  0.77839639  0.09408674  0.62001279  1
  N  N40  1  0.55473774  0.20479924  0.36853884  1
  N  N41  1  0.45889741  0.06109707  0.12259469  1
  N  N42  1  0.22488736  0.20684592  0.87709812  1
  N  N43  1  0.10700436  0.10411281  0.63212188  1
  N  N44  1  0.91683432  0.19356395  0.36892295  1
  N  N45  1  0.77996102  0.09161945  0.12840137  1
  N  N46  1  0.55774978  0.20260638  0.87795676  1
  N  N47  1  0.44124780  0.10208221  0.62194846  1
  N  N48  1  0.22201042  0.53963564  0.36973459  1
  N  N49  1  0.11135770  0.42459524  0.12396170  1
  N  N50  1  0.89357640  0.53253330  0.87504500  1
  N  N51  1  0.78595158  0.42348702  0.61854119  1
  N  N52  1  0.55205499  0.54622426  0.33663202  1
  N  N53  1  0.45809047  0.43931243  0.11962293  1
  N  N54  1  0.22288915  0.53652236  0.87764179  1
  N  N55  1  0.11262194  0.42683740  0.62087163  1
  N  N56  1  0.87752215  0.56655743  0.37146279  1
  N  N57  1  0.75501642  0.43826133  0.12273387  1
  N  N58  1  0.55527708  0.54183409  0.82091657  1
  N  N59  1  0.44078486  0.42236064  0.62246035  1
  N  N60  1  0.20613403  0.90551956  0.36091400  1
  N  N61  1  0.12737379  0.77228039  0.12290494  1
  N  N62  1  0.89212926  0.87250531  0.87666542  1
  N  N63  1  0.78899493  0.75518395  0.63180832  1
  N  N64  1  0.59211836  0.85552656  0.36405396  1
  N  N65  1  0.44748295  0.75670645  0.08722468  1
  N  N66  1  0.23131210  0.86347657  0.82300938  1
  N  N67  1  0.10828114  0.75620488  0.62151669  1
  N  N68  1  0.87883432  0.85712674  0.37035866  1
  N  N69  1  0.74339668  0.77591952  0.09015482  1
  N  N70  1  0.55044409  0.86920202  0.82292170  1
  N  N71  1  0.44462821  0.76125509  0.57188269  1
