# generated using pymatgen
data_Al31B5N36
_symmetry_space_group_name_H-M   'P 1'
_cell_length_a   9.14248922
_cell_length_b   9.22271775
_cell_length_c   10.23204263
_cell_angle_alpha   91.03792102
_cell_angle_beta   89.92009534
_cell_angle_gamma   60.16050716
_symmetry_Int_Tables_number   1
_chemical_formula_structural   Al31B5N36
_chemical_formula_sum   'Al31 B5 N36'
_cell_volume   748.19354968
_cell_formula_units_Z   1
loop_
 _symmetry_equiv_pos_site_id
 _symmetry_equiv_pos_as_xyz
  1  'x, y, z'
loop_
 _atom_site_type_symbol
 _atom_site_label
 _atom_site_symmetry_multiplicity
 _atom_site_fract_x
 _atom_site_fract_y
 _atom_site_fract_z
 _atom_site_occupancy
  B  B0  1  0.11495900  0.09904050  0.30950951  1
  B  B1  1  0.58444217  0.48137961  0.15937295  1
  B  B2  1  0.23295951  0.88999677  0.15557449  1
  B  B3  1  0.53686471  0.88439548  0.10313682  1
  B  B4  1  0.77605966  0.76444944  0.36172877  1
  Al  Al5  1  0.22631885  0.19459142  0.07863143  1
  Al  Al6  1  0.77933309  0.09128849  0.81712014  1
  Al  Al7  1  0.89960169  0.19257954  0.56104088  1
  Al  Al8  1  0.45411609  0.08042804  0.31787640  1
  Al  Al9  1  0.56624283  0.18916103  0.06984359  1
  Al  Al10  1  0.10568228  0.10306086  0.82046636  1
  Al  Al11  1  0.22458208  0.19299535  0.55618107  1
  Al  Al12  1  0.78402661  0.08598930  0.31812226  1
  Al  Al13  1  0.89622857  0.19281083  0.07812222  1
  Al  Al14  1  0.43474850  0.10360323  0.81574911  1
  Al  Al15  1  0.56220920  0.19508236  0.56562669  1
  Al  Al16  1  0.10396449  0.43923938  0.38363982  1
  Al  Al17  1  0.23295682  0.54230717  0.14069484  1
  Al  Al18  1  0.76599949  0.43436790  0.90013585  1
  Al  Al19  1  0.89270725  0.52992435  0.64410894  1
  Al  Al20  1  0.44415848  0.43204658  0.38894651  1
  Al  Al21  1  0.10514679  0.43349615  0.89955614  1
  Al  Al22  1  0.22880967  0.52286393  0.63838581  1
  Al  Al23  1  0.78314030  0.43281091  0.38382375  1
  Al  Al24  1  0.86118646  0.56289677  0.14227865  1
  Al  Al25  1  0.44599039  0.43447965  0.89468733  1
  Al  Al26  1  0.55684340  0.53921754  0.64131483  1
  Al  Al27  1  0.10773072  0.77346247  0.31774725  1
  Al  Al28  1  0.76373618  0.76251015  0.86834568  1
  Al  Al29  1  0.89090448  0.86080678  0.56718903  1
  Al  Al30  1  0.45606034  0.76071991  0.37776258  1
  Al  Al31  1  0.10440548  0.76052498  0.81780406  1
  Al  Al32  1  0.23142730  0.86533389  0.63820097  1
  Al  Al33  1  0.89404287  0.87106264  0.06668627  1
  Al  Al34  1  0.43073948  0.77439694  0.90346340  1
  Al  Al35  1  0.55807355  0.86371088  0.63315561  1
  N  N36  1  0.21489541  0.18990104  0.36549502  1
  N  N37  1  0.11253267  0.09247898  0.15077427  1
  N  N38  1  0.88892408  0.20006369  0.89095987  1
  N  N39  1  0.78313541  0.08931718  0.62880164  1
  N  N40  1  0.56093761  0.19774441  0.37776680  1
  N  N41  1  0.45587058  0.07598984  0.13007805  1
  N  N42  1  0.22225602  0.20019465  0.89270609  1
  N  N43  1  0.10989726  0.09971082  0.63325076  1
  N  N44  1  0.92229370  0.18404991  0.37005332  1
  N  N45  1  0.78121090  0.08834057  0.13541770  1
  N  N46  1  0.55752785  0.19957937  0.88382579  1
  N  N47  1  0.43820906  0.10195217  0.62744736  1
  N  N48  1  0.22701372  0.53829469  0.32684731  1
  N  N49  1  0.09948169  0.44463287  0.08751011  1
  N  N50  1  0.88901106  0.52802284  0.83427667  1
  N  N51  1  0.77585949  0.42785092  0.57047650  1
  N  N52  1  0.56359973  0.52623383  0.30546841  1
  N  N53  1  0.46568765  0.43325992  0.08974773  1
  N  N54  1  0.22747734  0.52635557  0.83065492  1
  N  N55  1  0.10983328  0.42645304  0.57005341  1
  N  N56  1  0.87409737  0.57188941  0.33008980  1
  N  N57  1  0.75140581  0.43694230  0.09541547  1
  N  N58  1  0.55115482  0.54585797  0.83036534  1
  N  N59  1  0.44740376  0.42977002  0.57592382  1
  N  N60  1  0.22961261  0.89306830  0.31679052  1
  N  N61  1  0.12375624  0.77968592  0.12690296  1
  N  N62  1  0.88870958  0.87244258  0.88262134  1
  N  N63  1  0.78432436  0.75287761  0.61913808  1
  N  N64  1  0.59341910  0.85466762  0.35577554  1
  N  N65  1  0.41605042  0.81871785  0.08830934  1
  N  N66  1  0.22276735  0.87122587  0.82811330  1
  N  N67  1  0.11040548  0.75491542  0.62337417  1
  N  N68  1  0.88033873  0.85759367  0.37511495  1
  N  N69  1  0.73079854  0.78078369  0.07185820  1
  N  N70  1  0.54116990  0.87272947  0.82326930  1
  N  N71  1  0.44583874  0.75407240  0.56516368  1
