# generated using pymatgen
data_Al31B5N36
_symmetry_space_group_name_H-M   'P 1'
_cell_length_a   9.13409949
_cell_length_b   9.14015239
_cell_length_c   10.23790271
_cell_angle_alpha   89.88984100
_cell_angle_beta   90.02836959
_cell_angle_gamma   60.07524467
_symmetry_Int_Tables_number   1
_chemical_formula_structural   Al31B5N36
_chemical_formula_sum   'Al31 B5 N36'
_cell_volume   740.77817732
_cell_formula_units_Z   1
loop_
 _symmetry_equiv_pos_site_id
 _symmetry_equiv_pos_as_xyz
  1  'x, y, z'
loop_
 _atom_site_type_symbol
 _atom_site_label
 _atom_site_symmetry_multiplicity
 _atom_site_fract_x
 _atom_site_fract_y
 _atom_site_fract_z
 _atom_site_occupancy
  B  B0  1  0.11406327  0.08998848  0.35680761  1
  B  B1  1  0.56310688  0.52597847  0.06334301  1
  B  B2  1  0.22453849  0.87645489  0.10300076  1
  B  B3  1  0.55606329  0.86660549  0.10196773  1
  B  B4  1  0.77514935  0.76255359  0.35788751  1
  Al  Al5  1  0.22916478  0.18884932  0.06167395  1
  Al  Al6  1  0.77882376  0.09338747  0.80986837  1
  Al  Al7  1  0.89449348  0.20309188  0.56280179  1
  Al  Al8  1  0.45272239  0.07824896  0.31265319  1
  Al  Al9  1  0.56025212  0.20027666  0.06224588  1
  Al  Al10  1  0.11078153  0.09625960  0.82211474  1
  Al  Al11  1  0.22219358  0.20233131  0.56166576  1
  Al  Al12  1  0.78247586  0.08762512  0.31217148  1
  Al  Al13  1  0.89210312  0.19814628  0.06078493  1
  Al  Al14  1  0.44146438  0.10045894  0.81114949  1
  Al  Al15  1  0.55514769  0.20523643  0.55789052  1
  Al  Al16  1  0.10620871  0.43000034  0.31078216  1
  Al  Al17  1  0.22898181  0.54402061  0.06168713  1
  Al  Al18  1  0.77605957  0.42813722  0.81428128  1
  Al  Al19  1  0.88877410  0.54106206  0.56436755  1
  Al  Al20  1  0.44844171  0.43072134  0.30686828  1
  Al  Al21  1  0.11324211  0.42519675  0.81038814  1
  Al  Al22  1  0.22440121  0.53778330  0.55893404  1
  Al  Al23  1  0.77501057  0.43680117  0.30869127  1
  Al  Al24  1  0.87418008  0.54502393  0.05860502  1
  Al  Al25  1  0.44650350  0.42889073  0.81660938  1
  Al  Al26  1  0.55988040  0.53014664  0.56342966  1
  Al  Al27  1  0.11132941  0.76881611  0.31350568  1
  Al  Al28  1  0.78231325  0.75753504  0.82220062  1
  Al  Al29  1  0.88880009  0.86867290  0.56149744  1
  Al  Al30  1  0.44395923  0.77258813  0.38855223  1
  Al  Al31  1  0.10940248  0.75501644  0.81125005  1
  Al  Al32  1  0.22819093  0.86953982  0.63118812  1
  Al  Al33  1  0.88368804  0.87402508  0.06191123  1
  Al  Al34  1  0.44220852  0.76583186  0.89402027  1
  Al  Al35  1  0.55669449  0.86648590  0.63102945  1
  N  N36  1  0.21085219  0.19037269  0.36965464  1
  N  N37  1  0.12802366  0.05866411  0.09033514  1
  N  N38  1  0.88563667  0.20626198  0.87503320  1
  N  N39  1  0.77883395  0.09341560  0.61980721  1
  N  N40  1  0.55421526  0.20592810  0.36921395  1
  N  N41  1  0.45780014  0.06399621  0.12247485  1
  N  N42  1  0.22499818  0.20667396  0.87709599  1
  N  N43  1  0.10779829  0.10317942  0.63203640  1
  N  N44  1  0.91646429  0.19464860  0.36954180  1
  N  N45  1  0.77934585  0.09210212  0.12844266  1
  N  N46  1  0.55750536  0.20357829  0.87677353  1
  N  N47  1  0.44167870  0.10145484  0.62182147  1
  N  N48  1  0.22487708  0.53894267  0.36999342  1
  N  N49  1  0.11032372  0.42631653  0.12419197  1
  N  N50  1  0.89331496  0.53242318  0.87406381  1
  N  N51  1  0.77931185  0.42641250  0.62558768  1
  N  N52  1  0.55977226  0.53255373  0.37742116  1
  N  N53  1  0.45943598  0.43900766  0.11800666  1
  N  N54  1  0.22324856  0.53645399  0.87668738  1
  N  N55  1  0.11357471  0.42556383  0.62047262  1
  N  N56  1  0.87674180  0.56546522  0.37174484  1
  N  N57  1  0.75312369  0.43803456  0.12022140  1
  N  N58  1  0.56113370  0.53055055  0.89540598  1
  N  N59  1  0.44555943  0.42604409  0.62835714  1
  N  N60  1  0.20537308  0.90571351  0.36025259  1
  N  N61  1  0.12835054  0.77290843  0.12237027  1
  N  N62  1  0.89182367  0.87311189  0.87684695  1
  N  N63  1  0.78923531  0.75497754  0.63201194  1
  N  N64  1  0.59194366  0.85480496  0.36149279  1
  N  N65  1  0.43889655  0.77272710  0.08680375  1
  N  N66  1  0.23127679  0.86304745  0.82265745  1
  N  N67  1  0.10821699  0.75585640  0.62167761  1
  N  N68  1  0.87871752  0.85639899  0.36987693  1
  N  N69  1  0.74050402  0.77689622  0.08900409  1
  N  N70  1  0.55053729  0.86910939  0.82225144  1
  N  N71  1  0.44485302  0.76114810  0.57424899  1
