# generated using pymatgen
data_Al31B5N36
_symmetry_space_group_name_H-M   'P 1'
_cell_length_a   9.16094742
_cell_length_b   9.24124264
_cell_length_c   9.76848155
_cell_angle_alpha   90.22906527
_cell_angle_beta   90.01672444
_cell_angle_gamma   60.22567865
_symmetry_Int_Tables_number   1
_chemical_formula_structural   Al31B5N36
_chemical_formula_sum   'Al31 B5 N36'
_cell_volume   717.80635133
_cell_formula_units_Z   1
loop_
 _symmetry_equiv_pos_site_id
 _symmetry_equiv_pos_as_xyz
  1  'x, y, z'
loop_
 _atom_site_type_symbol
 _atom_site_label
 _atom_site_symmetry_multiplicity
 _atom_site_fract_x
 _atom_site_fract_y
 _atom_site_fract_z
 _atom_site_occupancy
  B  B0  1  0.11239855  0.09442536  0.41016587  1
  B  B1  1  0.58306152  0.48543618  0.17719799  1
  B  B2  1  0.22844385  0.89392267  0.17170696  1
  B  B3  1  0.55202490  0.87488108  0.16957557  1
  B  B4  1  0.77811861  0.76094572  0.40808344  1
  Al  Al5  1  0.22389052  0.19702016  0.16575923  1
  Al  Al6  1  0.78143118  0.09046071  0.90995788  1
  Al  Al7  1  0.89370083  0.20257732  0.65463738  1
  Al  Al8  1  0.44698939  0.08499846  0.40558815  1
  Al  Al9  1  0.56160939  0.19765745  0.16247877  1
  Al  Al10  1  0.11583680  0.08793384  0.91219425  1
  Al  Al11  1  0.22194303  0.20267574  0.65391850  1
  Al  Al12  1  0.78300939  0.08549128  0.41250166  1
  Al  Al13  1  0.89930086  0.19262229  0.16717228  1
  Al  Al14  1  0.44622661  0.08776633  0.91411092  1
  Al  Al15  1  0.55526373  0.20371585  0.66197345  1
  Al  Al16  1  0.10643263  0.43061056  0.40991316  1
  Al  Al17  1  0.22940405  0.54565417  0.16134449  1
  Al  Al18  1  0.77388184  0.42820595  0.91358336  1
  Al  Al19  1  0.88533400  0.54289246  0.65547347  1
  Al  Al20  1  0.44688616  0.42408354  0.41069948  1
  Al  Al21  1  0.11031500  0.42705694  0.91169353  1
  Al  Al22  1  0.22301535  0.54005935  0.66213919  1
  Al  Al23  1  0.78419677  0.42626182  0.40887239  1
  Al  Al24  1  0.87104872  0.55121176  0.16606851  1
  Al  Al25  1  0.45005554  0.42933675  0.91439831  1
  Al  Al26  1  0.55371291  0.54371417  0.66059203  1
  Al  Al27  1  0.10921353  0.76554093  0.40261758  1
  Al  Al28  1  0.76963296  0.76346228  0.91218684  1
  Al  Al29  1  0.88903980  0.86750752  0.65449498  1
  Al  Al30  1  0.44880485  0.75982268  0.37948051  1
  Al  Al31  1  0.11464803  0.76451110  0.91530766  1
  Al  Al32  1  0.22693840  0.87030937  0.64995562  1
  Al  Al33  1  0.88571963  0.86718884  0.16310893  1
  Al  Al34  1  0.44142964  0.76768885  0.92865967  1
  Al  Al35  1  0.55465596  0.86795042  0.64970757  1
  N  N36  1  0.20828911  0.19554520  0.35935724  1
  N  N37  1  0.12180616  0.07500913  0.10533768  1
  N  N38  1  0.89186142  0.20521973  0.85144050  1
  N  N39  1  0.77912074  0.09149434  0.60419424  1
  N  N40  1  0.55787598  0.20241985  0.35360021  1
  N  N41  1  0.45467568  0.07632587  0.11241414  1
  N  N42  1  0.22215002  0.20412394  0.85099697  1
  N  N43  1  0.11421805  0.08976706  0.57757101  1
  N  N44  1  0.91460898  0.19124913  0.36037947  1
  N  N45  1  0.78347285  0.08815270  0.10416740  1
  N  N46  1  0.55472875  0.20558476  0.85721441  1
  N  N47  1  0.44591147  0.09156313  0.59804202  1
  N  N48  1  0.22498643  0.53784779  0.35208549  1
  N  N49  1  0.10776326  0.42910219  0.10762665  1
  N  N50  1  0.88564978  0.54074832  0.85278840  1
  N  N51  1  0.77703920  0.42640075  0.60025257  1
  N  N52  1  0.56442659  0.52388183  0.32932008  1
  N  N53  1  0.46598748  0.43105056  0.11107398  1
  N  N54  1  0.22447864  0.53917899  0.85861552  1
  N  N55  1  0.11123429  0.42785050  0.60322740  1
  N  N56  1  0.87542101  0.56457222  0.35848710  1
  N  N57  1  0.75807182  0.42801139  0.11402676  1
  N  N58  1  0.55247173  0.54745950  0.85466422  1
  N  N59  1  0.44720660  0.42615969  0.60310288  1
  N  N60  1  0.20904076  0.90019857  0.33816552  1
  N  N61  1  0.12280936  0.77335508  0.11136439  1
  N  N62  1  0.89000334  0.86678965  0.85115441  1
  N  N63  1  0.77526857  0.76122472  0.57683201  1
  N  N64  1  0.58010774  0.86135938  0.33783086  1
  N  N65  1  0.42431700  0.80467630  0.12428682  1
  N  N66  1  0.22589886  0.87134006  0.84463511  1
  N  N67  1  0.11301593  0.75940080  0.59653695  1
  N  N68  1  0.87723214  0.85741931  0.35685907  1
  N  N69  1  0.74547022  0.77399769  0.10438595  1
  N  N70  1  0.55291435  0.87060056  0.84380100  1
  N  N71  1  0.44694324  0.75534024  0.58001687  1
