# generated using pymatgen
data_Al31B5N36
_symmetry_space_group_name_H-M   'P 1'
_cell_length_a   9.14720452
_cell_length_b   9.24157963
_cell_length_c   10.18021714
_cell_angle_alpha   90.66857416
_cell_angle_beta   89.56932658
_cell_angle_gamma   60.14658298
_symmetry_Int_Tables_number   1
_chemical_formula_structural   Al31B5N36
_chemical_formula_sum   'Al31 B5 N36'
_cell_volume   746.24429541
_cell_formula_units_Z   1
loop_
 _symmetry_equiv_pos_site_id
 _symmetry_equiv_pos_as_xyz
  1  'x, y, z'
loop_
 _atom_site_type_symbol
 _atom_site_label
 _atom_site_symmetry_multiplicity
 _atom_site_fract_x
 _atom_site_fract_y
 _atom_site_fract_z
 _atom_site_occupancy
  B  B0  1  0.11329437  0.10093430  0.31215451  1
  B  B1  1  0.58972912  0.48312096  0.16594443  1
  B  B2  1  0.24041614  0.89954139  0.15915497  1
  B  B3  1  0.53581608  0.88940223  0.10990187  1
  B  B4  1  0.77469863  0.75785243  0.40289077  1
  Al  Al5  1  0.22480549  0.20376020  0.07601618  1
  Al  Al6  1  0.78076730  0.09043225  0.81976967  1
  Al  Al7  1  0.90061451  0.19060444  0.56309823  1
  Al  Al8  1  0.45622732  0.07902512  0.32297896  1
  Al  Al9  1  0.56282415  0.19739232  0.06860325  1
  Al  Al10  1  0.10673598  0.10025236  0.82236711  1
  Al  Al11  1  0.22077302  0.20031516  0.56126674  1
  Al  Al12  1  0.78706520  0.08408307  0.32013421  1
  Al  Al13  1  0.89748587  0.19384188  0.07956322  1
  Al  Al14  1  0.44062312  0.09528119  0.81361496  1
  Al  Al15  1  0.55772759  0.20249601  0.56867244  1
  Al  Al16  1  0.11143483  0.42928814  0.32022167  1
  Al  Al17  1  0.22914808  0.54692846  0.07226872  1
  Al  Al18  1  0.76418423  0.43597459  0.90122721  1
  Al  Al19  1  0.88431787  0.53646491  0.63971922  1
  Al  Al20  1  0.44471828  0.42136643  0.32200546  1
  Al  Al21  1  0.11582486  0.42117213  0.82404527  1
  Al  Al22  1  0.22339194  0.53477410  0.56923894  1
  Al  Al23  1  0.78641733  0.43127546  0.38793284  1
  Al  Al24  1  0.85609603  0.56748626  0.15071737  1
  Al  Al25  1  0.44193446  0.42203240  0.82212473  1
  Al  Al26  1  0.55777201  0.54056824  0.64355750  1
  Al  Al27  1  0.11090115  0.76496936  0.31349518  1
  Al  Al28  1  0.76129318  0.76254432  0.88810672  1
  Al  Al29  1  0.89374600  0.86740431  0.56489905  1
  Al  Al30  1  0.45449544  0.76173821  0.37955977  1
  Al  Al31  1  0.10655432  0.75424219  0.82326233  1
  Al  Al32  1  0.22984502  0.86361121  0.64212043  1
  Al  Al33  1  0.89115339  0.87394192  0.07195958  1
  Al  Al34  1  0.43340039  0.77086179  0.90316734  1
  Al  Al35  1  0.55696847  0.86363266  0.62022753  1
  N  N36  1  0.21281887  0.19493524  0.37060449  1
  N  N37  1  0.11540803  0.09481711  0.15073320  1
  N  N38  1  0.88924875  0.20143659  0.89168487  1
  N  N39  1  0.78159895  0.08942703  0.63106941  1
  N  N40  1  0.56008496  0.20416118  0.38173881  1
  N  N41  1  0.45510503  0.08012781  0.13178762  1
  N  N42  1  0.22233375  0.20337096  0.88911559  1
  N  N43  1  0.11099803  0.09643895  0.63381703  1
  N  N44  1  0.92274792  0.18515092  0.37104721  1
  N  N45  1  0.77969177  0.09167301  0.13559961  1
  N  N46  1  0.55567158  0.20125534  0.88233476  1
  N  N47  1  0.44035997  0.09792186  0.62454654  1
  N  N48  1  0.22442318  0.54176704  0.38143296  1
  N  N49  1  0.10868616  0.43474661  0.13117482  1
  N  N50  1  0.87987175  0.53886453  0.83244284  1
  N  N51  1  0.77578089  0.42506790  0.57350148  1
  N  N52  1  0.56920873  0.53300687  0.31039715  1
  N  N53  1  0.46388746  0.42495205  0.13086923  1
  N  N54  1  0.22169790  0.53623694  0.88677435  1
  N  N55  1  0.11885047  0.41818906  0.63086309  1
  N  N56  1  0.87380096  0.56973204  0.33781761  1
  N  N57  1  0.75198683  0.43826651  0.09607179  1
  N  N58  1  0.55073802  0.54674370  0.83441227  1
  N  N59  1  0.44334624  0.42119427  0.63265989  1
  N  N60  1  0.22963898  0.89348758  0.31525337  1
  N  N61  1  0.11900257  0.77032175  0.12806679  1
  N  N62  1  0.88631917  0.87229660  0.88404712  1
  N  N63  1  0.78190292  0.74660768  0.56491059  1
  N  N64  1  0.58862803  0.85802210  0.36328469  1
  N  N65  1  0.41666528  0.82354692  0.08885824  1
  N  N66  1  0.22280742  0.86965601  0.83164511  1
  N  N67  1  0.10718951  0.75240938  0.63280849  1
  N  N68  1  0.88635695  0.86222558  0.37813902  1
  N  N69  1  0.72927791  0.78386738  0.07833375  1
  N  N70  1  0.55187678  0.86387152  0.81523620  1
  N  N71  1  0.44207025  0.75023004  0.56653404  1
