# generated using pymatgen
data_Al31B5N36
_symmetry_space_group_name_H-M   'P 1'
_cell_length_a   9.15765913
_cell_length_b   9.23491975
_cell_length_c   9.79093082
_cell_angle_alpha   89.93509146
_cell_angle_beta   90.11208621
_cell_angle_gamma   60.27148751
_symmetry_Int_Tables_number   1
_chemical_formula_structural   Al31B5N36
_chemical_formula_sum   'Al31 B5 N36'
_cell_volume   719.03778715
_cell_formula_units_Z   1
loop_
 _symmetry_equiv_pos_site_id
 _symmetry_equiv_pos_as_xyz
  1  'x, y, z'
loop_
 _atom_site_type_symbol
 _atom_site_label
 _atom_site_symmetry_multiplicity
 _atom_site_fract_x
 _atom_site_fract_y
 _atom_site_fract_z
 _atom_site_occupancy
  B  B0  1  0.11582749  0.08759474  0.30652774  1
  B  B1  1  0.58519652  0.48030499  0.04949908  1
  B  B2  1  0.22142745  0.88482208  0.06727612  1
  B  B3  1  0.54177406  0.88630893  0.06579945  1
  B  B4  1  0.76649752  0.76541903  0.30543072  1
  Al  Al5  1  0.22378139  0.19924415  0.06975984  1
  Al  Al6  1  0.78165904  0.09037199  0.81113032  1
  Al  Al7  1  0.89566515  0.20200728  0.55769944  1
  Al  Al8  1  0.44910946  0.08373529  0.31066027  1
  Al  Al9  1  0.56112601  0.19587369  0.05993958  1
  Al  Al10  1  0.11404694  0.09227337  0.81847655  1
  Al  Al11  1  0.22007863  0.20170040  0.55762950  1
  Al  Al12  1  0.78165402  0.08751064  0.31319491  1
  Al  Al13  1  0.89488579  0.19588627  0.06767797  1
  Al  Al14  1  0.44452960  0.08910741  0.81632535  1
  Al  Al15  1  0.55503252  0.20494333  0.56266095  1
  Al  Al16  1  0.10502332  0.43115184  0.31119633  1
  Al  Al17  1  0.22914181  0.54700320  0.06181085  1
  Al  Al18  1  0.78093425  0.42463369  0.81438356  1
  Al  Al19  1  0.88375501  0.54515132  0.55726815  1
  Al  Al20  1  0.44860556  0.42954842  0.30928788  1
  Al  Al21  1  0.10990122  0.42825481  0.81374294  1
  Al  Al22  1  0.22313392  0.54053329  0.56211613  1
  Al  Al23  1  0.77394100  0.43088856  0.31025186  1
  Al  Al24  1  0.87295006  0.54887668  0.06831564  1
  Al  Al25  1  0.44566471  0.42512599  0.81424802  1
  Al  Al26  1  0.55162518  0.54648895  0.56440463  1
  Al  Al27  1  0.11080204  0.76838219  0.31059665  1
  Al  Al28  1  0.77507765  0.76232214  0.81985838  1
  Al  Al29  1  0.88728798  0.86743109  0.55771990  1
  Al  Al30  1  0.44398049  0.76925614  0.29561045  1
  Al  Al31  1  0.11257338  0.76554759  0.81806844  1
  Al  Al32  1  0.22698387  0.87469761  0.56350274  1
  Al  Al33  1  0.88927918  0.86926197  0.07020610  1
  Al  Al34  1  0.44630497  0.75809764  0.87781577  1
  Al  Al35  1  0.55704049  0.86556126  0.56314095  1
  N  N36  1  0.21073765  0.19301944  0.35983587  1
  N  N37  1  0.11864025  0.07723815  0.13670392  1
  N  N38  1  0.89077802  0.20351731  0.87495213  1
  N  N39  1  0.78136465  0.09106228  0.61587109  1
  N  N40  1  0.55353169  0.20703073  0.36883206  1
  N  N41  1  0.45486704  0.07684598  0.11774877  1
  N  N42  1  0.22175326  0.20691831  0.87654505  1
  N  N43  1  0.11259575  0.09248308  0.62812543  1
  N  N44  1  0.91342310  0.19424697  0.36085362  1
  N  N45  1  0.77936976  0.09033202  0.12310308  1
  N  N46  1  0.55737487  0.20225786  0.86850902  1
  N  N47  1  0.44435743  0.09039969  0.62065861  1
  N  N48  1  0.22380161  0.54054405  0.36712893  1
  N  N49  1  0.10987087  0.43243818  0.11946803  1
  N  N50  1  0.88655209  0.54031330  0.87597346  1
  N  N51  1  0.77852306  0.42574480  0.61947808  1
  N  N52  1  0.55038354  0.54789237  0.37031942  1
  N  N53  1  0.46516680  0.42894520  0.11289627  1
  N  N54  1  0.22290447  0.54094900  0.87033903  1
  N  N55  1  0.11009264  0.42661632  0.61625974  1
  N  N56  1  0.87259942  0.56405725  0.35915657  1
  N  N57  1  0.75448573  0.43013895  0.11524368  1
  N  N58  1  0.56418594  0.52251730  0.89825626  1
  N  N59  1  0.44684998  0.42704893  0.62277882  1
  N  N60  1  0.21295591  0.89843848  0.36718398  1
  N  N61  1  0.12882417  0.77392358  0.11883188  1
  N  N62  1  0.88972815  0.87058218  0.87685953  1
  N  N63  1  0.77680268  0.76069584  0.62851306  1
  N  N64  1  0.57912277  0.85827623  0.36741126  1
  N  N65  1  0.42396247  0.80240670  0.10402543  1
  N  N66  1  0.21387308  0.88105965  0.90153819  1
  N  N67  1  0.11164964  0.76367309  0.62128298  1
  N  N68  1  0.87751173  0.85691480  0.36081644  1
  N  N69  1  0.75068257  0.77334616  0.13730316  1
  N  N70  1  0.56065372  0.87604941  0.90179847  1
  N  N71  1  0.44479326  0.76046195  0.63800013  1
