# generated using pymatgen
data_Al31B5N36
_symmetry_space_group_name_H-M   'P 1'
_cell_length_a   9.12655676
_cell_length_b   9.20882022
_cell_length_c   10.23450174
_cell_angle_alpha   90.28248006
_cell_angle_beta   89.95802990
_cell_angle_gamma   60.39066365
_symmetry_Int_Tables_number   1
_chemical_formula_structural   Al31B5N36
_chemical_formula_sum   'Al31 B5 N36'
_cell_volume   747.81873213
_cell_formula_units_Z   1
loop_
 _symmetry_equiv_pos_site_id
 _symmetry_equiv_pos_as_xyz
  1  'x, y, z'
loop_
 _atom_site_type_symbol
 _atom_site_label
 _atom_site_symmetry_multiplicity
 _atom_site_fract_x
 _atom_site_fract_y
 _atom_site_fract_z
 _atom_site_occupancy
  B  B0  1  0.11658560  0.08841988  0.35411141  1
  B  B1  1  0.58536219  0.48640482  0.16404162  1
  B  B2  1  0.22799073  0.89230869  0.09878347  1
  B  B3  1  0.54082514  0.88171985  0.09566072  1
  B  B4  1  0.77546344  0.76499366  0.35716161  1
  Al  Al5  1  0.22505545  0.19832390  0.06195201  1
  Al  Al6  1  0.78022307  0.08897043  0.80945532  1
  Al  Al7  1  0.89582510  0.19775423  0.56092729  1
  Al  Al8  1  0.45252163  0.07876780  0.31396413  1
  Al  Al9  1  0.56240763  0.19462308  0.06081206  1
  Al  Al10  1  0.11246429  0.09472303  0.82027282  1
  Al  Al11  1  0.22002353  0.20448135  0.56128489  1
  Al  Al12  1  0.78432381  0.08385385  0.31066947  1
  Al  Al13  1  0.89350026  0.19412211  0.06223309  1
  Al  Al14  1  0.44051577  0.09747978  0.80797990  1
  Al  Al15  1  0.55684248  0.20302087  0.55886062  1
  Al  Al16  1  0.10512932  0.43309973  0.30874018  1
  Al  Al17  1  0.23357788  0.54808742  0.06337934  1
  Al  Al18  1  0.78344992  0.42151901  0.81786017  1
  Al  Al19  1  0.89011527  0.54145574  0.56283840  1
  Al  Al20  1  0.43988984  0.42230811  0.31419076  1
  Al  Al21  1  0.11210614  0.42634221  0.81299303  1
  Al  Al22  1  0.22288120  0.53764671  0.55942360  1
  Al  Al23  1  0.79047582  0.42598131  0.32646042  1
  Al  Al24  1  0.86605218  0.55055766  0.06422646  1
  Al  Al25  1  0.44357691  0.42142379  0.81328605  1
  Al  Al26  1  0.55299496  0.54341297  0.63278297  1
  Al  Al27  1  0.11413974  0.77099040  0.31037687  1
  Al  Al28  1  0.77873988  0.75739438  0.82190244  1
  Al  Al29  1  0.89009589  0.86631367  0.56125310  1
  Al  Al30  1  0.44871007  0.76624806  0.37998206  1
  Al  Al31  1  0.11150763  0.75490810  0.81056803  1
  Al  Al32  1  0.22844807  0.86972680  0.62484585  1
  Al  Al33  1  0.88386743  0.87118619  0.06061444  1
  Al  Al34  1  0.44375768  0.76222175  0.89148198  1
  Al  Al35  1  0.55685228  0.86564794  0.62235580  1
  N  N36  1  0.20853055  0.19405538  0.36850124  1
  N  N37  1  0.12159667  0.07206728  0.09539932  1
  N  N38  1  0.88587790  0.20368532  0.87526394  1
  N  N39  1  0.78013028  0.08956176  0.62036355  1
  N  N40  1  0.55797672  0.20362563  0.37214912  1
  N  N41  1  0.45314205  0.07551279  0.12439420  1
  N  N42  1  0.22387600  0.20858788  0.87620298  1
  N  N43  1  0.10847217  0.10183280  0.63038921  1
  N  N44  1  0.91946904  0.18725358  0.36975862  1
  N  N45  1  0.78049904  0.08778960  0.12707794  1
  N  N46  1  0.55769858  0.20107495  0.87515713  1
  N  N47  1  0.44074986  0.09937411  0.61820533  1
  N  N48  1  0.22078214  0.54277042  0.37134697  1
  N  N49  1  0.10722000  0.43548469  0.12332322  1
  N  N50  1  0.89089186  0.53339488  0.87735613  1
  N  N51  1  0.78191141  0.42231460  0.60362968  1
  N  N52  1  0.55379828  0.54384638  0.30835844  1
  N  N53  1  0.46569978  0.42242522  0.12411296  1
  N  N54  1  0.22420872  0.53757427  0.87812790  1
  N  N55  1  0.11238528  0.42582179  0.62235508  1
  N  N56  1  0.87755640  0.56908237  0.37152826  1
  N  N57  1  0.76791998  0.42093106  0.12979882  1
  N  N58  1  0.55388519  0.54399114  0.82280486  1
  N  N59  1  0.44206777  0.42084548  0.62218739  1
  N  N60  1  0.20906640  0.90614621  0.36039183  1
  N  N61  1  0.13344423  0.77689550  0.12041160  1
  N  N62  1  0.89241594  0.87058623  0.87539672  1
  N  N63  1  0.78983053  0.75294726  0.63073457  1
  N  N64  1  0.59243545  0.85705889  0.36383948  1
  N  N65  1  0.42076048  0.80992219  0.07658265  1
  N  N66  1  0.23109151  0.86497879  0.81888889  1
  N  N67  1  0.10915428  0.75455458  0.62052620  1
  N  N68  1  0.88065873  0.85629579  0.36836579  1
  N  N69  1  0.72945464  0.78310294  0.08527370  1
  N  N70  1  0.54793661  0.86959685  0.81560463  1
  N  N71  1  0.44802971  0.75225010  0.56340156  1
