# generated using pymatgen
data_Al31B5N36
_symmetry_space_group_name_H-M   'P 1'
_cell_length_a   9.12473948
_cell_length_b   9.18518469
_cell_length_c   10.27021896
_cell_angle_alpha   90.21305736
_cell_angle_beta   90.02269278
_cell_angle_gamma   60.29967081
_symmetry_Int_Tables_number   1
_chemical_formula_structural   Al31B5N36
_chemical_formula_sum   'Al31 B5 N36'
_cell_volume   747.68492319
_cell_formula_units_Z   1
loop_
 _symmetry_equiv_pos_site_id
 _symmetry_equiv_pos_as_xyz
  1  'x, y, z'
loop_
 _atom_site_type_symbol
 _atom_site_label
 _atom_site_symmetry_multiplicity
 _atom_site_fract_x
 _atom_site_fract_y
 _atom_site_fract_z
 _atom_site_occupancy
  B  B0  1  0.11515162  0.09063250  0.35685735  1
  B  B1  1  0.57901140  0.49460563  0.16036318  1
  B  B2  1  0.22744409  0.88940768  0.09980831  1
  B  B3  1  0.54249608  0.87878850  0.09751242  1
  B  B4  1  0.77439122  0.76515815  0.35890009  1
  Al  Al5  1  0.22541217  0.19652962  0.06203930  1
  Al  Al6  1  0.78050901  0.08945483  0.80971090  1
  Al  Al7  1  0.89501881  0.20092924  0.56320933  1
  Al  Al8  1  0.45203808  0.07936345  0.31419969  1
  Al  Al9  1  0.56191564  0.19483748  0.06166854  1
  Al  Al10  1  0.11337403  0.09385389  0.82112993  1
  Al  Al11  1  0.22118398  0.20404223  0.56221034  1
  Al  Al12  1  0.78367421  0.08588021  0.31165161  1
  Al  Al13  1  0.89269035  0.19451575  0.05981595  1
  Al  Al14  1  0.44162786  0.09652035  0.80902580  1
  Al  Al15  1  0.55673527  0.20369263  0.55921591  1
  Al  Al16  1  0.10477594  0.43328806  0.31008989  1
  Al  Al17  1  0.23141402  0.54735975  0.06357505  1
  Al  Al18  1  0.78624541  0.42058508  0.81214015  1
  Al  Al19  1  0.88976543  0.54046784  0.56449643  1
  Al  Al20  1  0.43982360  0.42378809  0.31303139  1
  Al  Al21  1  0.11332761  0.42552134  0.81239158  1
  Al  Al22  1  0.22345234  0.53780656  0.55984982  1
  Al  Al23  1  0.79086170  0.42788288  0.31540686  1
  Al  Al24  1  0.86676450  0.54949350  0.06026084  1
  Al  Al25  1  0.44412379  0.42101959  0.81563929  1
  Al  Al26  1  0.55214263  0.54433177  0.63705026  1
  Al  Al27  1  0.11273209  0.77158872  0.31120069  1
  Al  Al28  1  0.78017620  0.75694332  0.82093633  1
  Al  Al29  1  0.89021917  0.86720816  0.56156892  1
  Al  Al30  1  0.44745549  0.76699337  0.38107967  1
  Al  Al31  1  0.11171498  0.75461271  0.81122450  1
  Al  Al32  1  0.22906758  0.86927549  0.62660004  1
  Al  Al33  1  0.88322655  0.87155293  0.06131960  1
  Al  Al34  1  0.44533045  0.76008915  0.89331850  1
  Al  Al35  1  0.55700981  0.86538381  0.62383693  1
  N  N36  1  0.20880139  0.19434627  0.36993983  1
  N  N37  1  0.12192766  0.06981280  0.09372910  1
  N  N38  1  0.88674070  0.20350357  0.87469956  1
  N  N39  1  0.78018125  0.09081856  0.62073437  1
  N  N40  1  0.55702676  0.20482953  0.37259463  1
  N  N41  1  0.45339899  0.07370086  0.12513093  1
  N  N42  1  0.22502147  0.20758329  0.87687715  1
  N  N43  1  0.10930337  0.10167333  0.63114209  1
  N  N44  1  0.91692235  0.19260343  0.37169144  1
  N  N45  1  0.78029689  0.08882943  0.12821732  1
  N  N46  1  0.55859077  0.19981887  0.87663130  1
  N  N47  1  0.44169851  0.09933337  0.61965287  1
  N  N48  1  0.22086660  0.54302282  0.37210297  1
  N  N49  1  0.10610938  0.43409978  0.12442284  1
  N  N50  1  0.89239933  0.53273521  0.87596207  1
  N  N51  1  0.78491247  0.42216219  0.61898598  1
  N  N52  1  0.55267831  0.54633116  0.30624425  1
  N  N53  1  0.46290908  0.42440985  0.12347726  1
  N  N54  1  0.22405741  0.53696127  0.87900927  1
  N  N55  1  0.11322490  0.42577099  0.62244657  1
  N  N56  1  0.87629427  0.56787137  0.37365206  1
  N  N57  1  0.76496967  0.42354515  0.12630833  1
  N  N58  1  0.55497434  0.54241093  0.82593429  1
  N  N59  1  0.44235415  0.42116408  0.62402567  1
  N  N60  1  0.20663098  0.90781443  0.36132727  1
  N  N61  1  0.13239700  0.77603984  0.12168397  1
  N  N62  1  0.89272972  0.87054867  0.87637399  1
  N  N63  1  0.79001303  0.75360447  0.63066261  1
  N  N64  1  0.59148010  0.85743875  0.36441441  1
  N  N65  1  0.42290233  0.80422953  0.07925038  1
  N  N66  1  0.23269421  0.86347811  0.81972274  1
  N  N67  1  0.10915026  0.75485805  0.62166875  1
  N  N68  1  0.87971353  0.85687956  0.36943214  1
  N  N69  1  0.73051722  0.78166976  0.08622884  1
  N  N70  1  0.54900948  0.86781518  0.81650564  1
  N  N71  1  0.44850410  0.75182646  0.56397288  1
