# generated using pymatgen
data_Al31B5N36
_symmetry_space_group_name_H-M   'P 1'
_cell_length_a   9.24382852
_cell_length_b   9.34765778
_cell_length_c   9.75158611
_cell_angle_alpha   90.19405858
_cell_angle_beta   89.70449026
_cell_angle_gamma   59.98965991
_symmetry_Int_Tables_number   1
_chemical_formula_structural   Al31B5N36
_chemical_formula_sum   'Al31 B5 N36'
_cell_volume   729.62419987
_cell_formula_units_Z   1
loop_
 _symmetry_equiv_pos_site_id
 _symmetry_equiv_pos_as_xyz
  1  'x, y, z'
loop_
 _atom_site_type_symbol
 _atom_site_label
 _atom_site_symmetry_multiplicity
 _atom_site_fract_x
 _atom_site_fract_y
 _atom_site_fract_z
 _atom_site_occupancy
  B  B0  1  0.11283159  0.09942046  0.40283816  1
  B  B1  1  0.58644523  0.47553137  0.16895023  1
  B  B2  1  0.24756134  0.91670794  0.17169851  1
  B  B3  1  0.55636748  0.87432385  0.16349987  1
  B  B4  1  0.77971253  0.75704502  0.40026111  1
  Al  Al5  1  0.22209010  0.20221582  0.15483073  1
  Al  Al6  1  0.78269345  0.08848338  0.87117791  1
  Al  Al7  1  0.89445076  0.20484268  0.64195729  1
  Al  Al8  1  0.45214535  0.08518458  0.34721791  1
  Al  Al9  1  0.56252012  0.19250956  0.09111810  1
  Al  Al10  1  0.11640112  0.08707783  0.90209428  1
  Al  Al11  1  0.21383977  0.20864502  0.63659026  1
  Al  Al12  1  0.79002102  0.08274695  0.38723699  1
  Al  Al13  1  0.90160550  0.19089373  0.15777406  1
  Al  Al14  1  0.44480029  0.09462622  0.82851900  1
  Al  Al15  1  0.55608862  0.20433849  0.58289589  1
  Al  Al16  1  0.10530415  0.43304485  0.39909184  1
  Al  Al17  1  0.22415228  0.54073558  0.14896755  1
  Al  Al18  1  0.77228385  0.42868271  0.90449997  1
  Al  Al19  1  0.88466199  0.54349147  0.64799319  1
  Al  Al20  1  0.44303596  0.43213608  0.39615388  1
  Al  Al21  1  0.10873805  0.42704254  0.90058668  1
  Al  Al22  1  0.22250527  0.54159199  0.64987849  1
  Al  Al23  1  0.78565787  0.42696893  0.39878965  1
  Al  Al24  1  0.86934503  0.55132590  0.15435012  1
  Al  Al25  1  0.44515932  0.43607589  0.90293158  1
  Al  Al26  1  0.55311896  0.54479660  0.65244728  1
  Al  Al27  1  0.11098719  0.76532040  0.38552584  1
  Al  Al28  1  0.76584586  0.76572980  0.90236877  1
  Al  Al29  1  0.89111082  0.86434300  0.63689449  1
  Al  Al30  1  0.45290125  0.75743932  0.37278423  1
  Al  Al31  1  0.10824495  0.76172241  0.90564137  1
  Al  Al32  1  0.22562818  0.87007605  0.64092505  1
  Al  Al33  1  0.88062424  0.86320953  0.15338384  1
  Al  Al34  1  0.43802459  0.77286328  0.92034573  1
  Al  Al35  1  0.55719671  0.86240001  0.63427967  1
  N  N36  1  0.20645770  0.19905010  0.35380555  1
  N  N37  1  0.12613735  0.07584522  0.09721759  1
  N  N38  1  0.89249403  0.20670206  0.84095678  1
  N  N39  1  0.78510774  0.08975236  0.60067523  1
  N  N40  1  0.55809827  0.20394212  0.38390354  1
  N  N41  1  0.45724540  0.07775397  0.14599528  1
  N  N42  1  0.21264178  0.20785232  0.83721675  1
  N  N43  1  0.11512228  0.08918628  0.56763163  1
  N  N44  1  0.91836696  0.19324691  0.35203834  1
  N  N45  1  0.78785556  0.08510536  0.11212603  1
  N  N46  1  0.55230937  0.20444345  0.88899045  1
  N  N47  1  0.44556630  0.09345103  0.62400300  1
  N  N48  1  0.22400940  0.53752541  0.34027727  1
  N  N49  1  0.10636039  0.42342179  0.09649188  1
  N  N50  1  0.88328465  0.54172803  0.84561629  1
  N  N51  1  0.77678796  0.42841336  0.59112927  1
  N  N52  1  0.56624299  0.52336471  0.31869523  1
  N  N53  1  0.46397629  0.43312940  0.10353277  1
  N  N54  1  0.22342909  0.53706348  0.84505157  1
  N  N55  1  0.10885495  0.43215888  0.59206636  1
  N  N56  1  0.87672968  0.56285963  0.34725393  1
  N  N57  1  0.75820732  0.42518057  0.10464069  1
  N  N58  1  0.55088431  0.54995923  0.84724360  1
  N  N59  1  0.44489872  0.43395271  0.59292210  1
  N  N60  1  0.21524141  0.90441292  0.32667783  1
  N  N61  1  0.09943977  0.75340319  0.09382191  1
  N  N62  1  0.88720785  0.86375498  0.83395307  1
  N  N63  1  0.77715837  0.75808633  0.56665610  1
  N  N64  1  0.58838506  0.85140222  0.33606557  1
  N  N65  1  0.42366825  0.81736864  0.11682221  1
  N  N66  1  0.22201211  0.87011585  0.83746235  1
  N  N67  1  0.11556754  0.75961052  0.58163613  1
  N  N68  1  0.87861585  0.85399614  0.34920019  1
  N  N69  1  0.73940812  0.77548908  0.09526370  1
  N  N70  1  0.55288488  0.86560679  0.83146230  1
  N  N71  1  0.44587292  0.75487718  0.57106623  1
