# generated using pymatgen
data_Al31B5N36
_symmetry_space_group_name_H-M   'P 1'
_cell_length_a   9.14778465
_cell_length_b   9.23992929
_cell_length_c   10.15990804
_cell_angle_alpha   90.70673743
_cell_angle_beta   89.63674023
_cell_angle_gamma   60.21425361
_symmetry_Int_Tables_number   1
_chemical_formula_structural   Al31B5N36
_chemical_formula_sum   'Al31 B5 N36'
_cell_volume   745.17917592
_cell_formula_units_Z   1
loop_
 _symmetry_equiv_pos_site_id
 _symmetry_equiv_pos_as_xyz
  1  'x, y, z'
loop_
 _atom_site_type_symbol
 _atom_site_label
 _atom_site_symmetry_multiplicity
 _atom_site_fract_x
 _atom_site_fract_y
 _atom_site_fract_z
 _atom_site_occupancy
  B  B0  1  0.11424624  0.09903539  0.31103788  1
  B  B1  1  0.59077981  0.48341986  0.16584282  1
  B  B2  1  0.23579548  0.89339924  0.15731966  1
  B  B3  1  0.53548674  0.88787192  0.11044932  1
  B  B4  1  0.77469300  0.75715078  0.40299417  1
  Al  Al5  1  0.22555677  0.20100524  0.07931212  1
  Al  Al6  1  0.77997084  0.09078113  0.81930950  1
  Al  Al7  1  0.90043116  0.19087909  0.56336104  1
  Al  Al8  1  0.45728267  0.07786067  0.32269330  1
  Al  Al9  1  0.56272614  0.19681541  0.06811380  1
  Al  Al10  1  0.10613361  0.10070986  0.82200584  1
  Al  Al11  1  0.22050918  0.20028670  0.55971527  1
  Al  Al12  1  0.78719366  0.08431138  0.32019474  1
  Al  Al13  1  0.89695594  0.19448313  0.07921345  1
  Al  Al14  1  0.43894554  0.09616494  0.81315227  1
  Al  Al15  1  0.55706901  0.20259357  0.56854693  1
  Al  Al16  1  0.11133011  0.42939868  0.32232981  1
  Al  Al17  1  0.23240361  0.54917783  0.07451924  1
  Al  Al18  1  0.76258330  0.43633096  0.90095181  1
  Al  Al19  1  0.88684541  0.53530978  0.63980547  1
  Al  Al20  1  0.44632822  0.42080432  0.32178960  1
  Al  Al21  1  0.11244981  0.42351780  0.83812676  1
  Al  Al22  1  0.22313397  0.53491568  0.56773160  1
  Al  Al23  1  0.78692470  0.43100121  0.38861831  1
  Al  Al24  1  0.85652617  0.56738013  0.15069587  1
  Al  Al25  1  0.44089866  0.42242602  0.82117206  1
  Al  Al26  1  0.55763661  0.54078555  0.64310691  1
  Al  Al27  1  0.11129326  0.76620216  0.31547526  1
  Al  Al28  1  0.75995217  0.76394379  0.88853990  1
  Al  Al29  1  0.89329076  0.86738557  0.56466227  1
  Al  Al30  1  0.45430907  0.76171557  0.37912071  1
  Al  Al31  1  0.10622040  0.75491091  0.82200353  1
  Al  Al32  1  0.22986418  0.86404572  0.64123948  1
  Al  Al33  1  0.89244752  0.87473458  0.07197364  1
  Al  Al34  1  0.43282645  0.77100705  0.90300403  1
  Al  Al35  1  0.55696511  0.86351349  0.62018176  1
  N  N36  1  0.21418725  0.19335965  0.36821115  1
  N  N37  1  0.11412318  0.09305779  0.15045315  1
  N  N38  1  0.88840849  0.20207333  0.89084166  1
  N  N39  1  0.78117597  0.08935572  0.63059101  1
  N  N40  1  0.56030562  0.20379451  0.38138050  1
  N  N41  1  0.45609512  0.07857929  0.13169138  1
  N  N42  1  0.22223865  0.20223454  0.89167891  1
  N  N43  1  0.11110871  0.09653739  0.63336336  1
  N  N44  1  0.92291537  0.18512118  0.37115579  1
  N  N45  1  0.77946621  0.09192795  0.13522929  1
  N  N46  1  0.55474828  0.20172101  0.88159623  1
  N  N47  1  0.43978667  0.09776283  0.62396022  1
  N  N48  1  0.22570012  0.54252373  0.37903998  1
  N  N49  1  0.10865018  0.43661317  0.12945475  1
  N  N50  1  0.87902174  0.53967456  0.83373709  1
  N  N51  1  0.77577167  0.42511222  0.57445672  1
  N  N52  1  0.57026508  0.53281649  0.31055638  1
  N  N53  1  0.46561132  0.42428651  0.13056690  1
  N  N54  1  0.22204015  0.53858586  0.88879429  1
  N  N55  1  0.11786614  0.41872367  0.62454971  1
  N  N56  1  0.87409952  0.56937677  0.33786839  1
  N  N57  1  0.75251890  0.43832922  0.09572066  1
  N  N58  1  0.54972394  0.54719489  0.83397456  1
  N  N59  1  0.44278825  0.42159285  0.63174273  1
  N  N60  1  0.22919284  0.89313745  0.31655930  1
  N  N61  1  0.12427523  0.77552073  0.12814489  1
  N  N62  1  0.88651986  0.87234217  0.88394815  1
  N  N63  1  0.78172090  0.74651745  0.56543642  1
  N  N64  1  0.58916823  0.85716585  0.36301351  1
  N  N65  1  0.41678494  0.82115315  0.08899958  1
  N  N66  1  0.22225358  0.87029172  0.83124409  1
  N  N67  1  0.10726765  0.75260430  0.63161496  1
  N  N68  1  0.88636003  0.86179958  0.37723993  1
  N  N69  1  0.73004113  0.78355295  0.07871402  1
  N  N70  1  0.55097766  0.86470071  0.81540459  1
  N  N71  1  0.44209931  0.75022220  0.56635803  1
