# generated using pymatgen
data_Al31B5N36
_symmetry_space_group_name_H-M   'P 1'
_cell_length_a   9.19608935
_cell_length_b   9.29167906
_cell_length_c   9.75416407
_cell_angle_alpha   90.02564852
_cell_angle_beta   89.78870400
_cell_angle_gamma   59.97417948
_symmetry_Int_Tables_number   1
_chemical_formula_structural   Al31B5N36
_chemical_formula_sum   'Al31 B5 N36'
_cell_volume   721.60666962
_cell_formula_units_Z   1
loop_
 _symmetry_equiv_pos_site_id
 _symmetry_equiv_pos_as_xyz
  1  'x, y, z'
loop_
 _atom_site_type_symbol
 _atom_site_label
 _atom_site_symmetry_multiplicity
 _atom_site_fract_x
 _atom_site_fract_y
 _atom_site_fract_z
 _atom_site_occupancy
  B  B0  1  0.11261809  0.09775592  0.39898182  1
  B  B1  1  0.58492996  0.47997052  0.16513440  1
  B  B2  1  0.24547520  0.91424187  0.16784857  1
  B  B3  1  0.55505344  0.87624162  0.15689309  1
  B  B4  1  0.77795840  0.76225889  0.39556006  1
  Al  Al5  1  0.22471285  0.20093376  0.15296179  1
  Al  Al6  1  0.78171402  0.08949072  0.89594039  1
  Al  Al7  1  0.89363852  0.20300161  0.64193087  1
  Al  Al8  1  0.44784557  0.08644546  0.39264040  1
  Al  Al9  1  0.56252074  0.19876349  0.14867881  1
  Al  Al10  1  0.11682235  0.08656532  0.89912617  1
  Al  Al11  1  0.22216884  0.20344307  0.64083372  1
  Al  Al12  1  0.78317602  0.08624106  0.39893882  1
  Al  Al13  1  0.90063140  0.19015680  0.15440916  1
  Al  Al14  1  0.44617748  0.08888657  0.90085261  1
  Al  Al15  1  0.55533422  0.20475470  0.64855936  1
  Al  Al16  1  0.10563657  0.43228760  0.39703969  1
  Al  Al17  1  0.22444677  0.54195749  0.14673430  1
  Al  Al18  1  0.77329260  0.42808672  0.90080877  1
  Al  Al19  1  0.88478149  0.54360815  0.64265074  1
  Al  Al20  1  0.44650600  0.42471308  0.39689619  1
  Al  Al21  1  0.10994188  0.42653657  0.89731655  1
  Al  Al22  1  0.22267461  0.54100018  0.64653695  1
  Al  Al23  1  0.78501655  0.42640430  0.39573428  1
  Al  Al24  1  0.87021050  0.55114329  0.15203392  1
  Al  Al25  1  0.44871193  0.43026966  0.90050603  1
  Al  Al26  1  0.55352132  0.54417085  0.64814382  1
  Al  Al27  1  0.10986374  0.76639917  0.38321527  1
  Al  Al28  1  0.76827760  0.76431597  0.89826451  1
  Al  Al29  1  0.88894592  0.86824805  0.63835604  1
  Al  Al30  1  0.45306833  0.75884530  0.36907528  1
  Al  Al31  1  0.10966401  0.76141933  0.90218597  1
  Al  Al32  1  0.22607178  0.87023287  0.63742371  1
  Al  Al33  1  0.88064807  0.86500244  0.14892546  1
  Al  Al34  1  0.43886395  0.76983661  0.91591461  1
  Al  Al35  1  0.55436001  0.86917840  0.63708621  1
  N  N36  1  0.20852441  0.19742362  0.34718088  1
  N  N37  1  0.12517084  0.07589515  0.09421384  1
  N  N38  1  0.89229774  0.20482746  0.83962560  1
  N  N39  1  0.77934866  0.09311331  0.59059912  1
  N  N40  1  0.55828697  0.20346670  0.34027186  1
  N  N41  1  0.45543652  0.07952910  0.09973031  1
  N  N42  1  0.22196613  0.20313638  0.83779205  1
  N  N43  1  0.11488679  0.09060016  0.56532546  1
  N  N44  1  0.91586962  0.19142857  0.34773010  1
  N  N45  1  0.78455426  0.08737973  0.09092908  1
  N  N46  1  0.55457657  0.20639088  0.84406198  1
  N  N47  1  0.44650120  0.09268241  0.58526040  1
  N  N48  1  0.22505216  0.53718334  0.33843151  1
  N  N49  1  0.10615387  0.42459236  0.09346661  1
  N  N50  1  0.88435071  0.54104943  0.84042616  1
  N  N51  1  0.77732015  0.42701076  0.58772375  1
  N  N52  1  0.56455475  0.52404851  0.31599069  1
  N  N53  1  0.46515990  0.43196702  0.09814893  1
  N  N54  1  0.22457280  0.53695557  0.84213777  1
  N  N55  1  0.11078943  0.42868643  0.59021234  1
  N  N56  1  0.87494656  0.56535565  0.34493083  1
  N  N57  1  0.75791322  0.42647525  0.10158312  1
  N  N58  1  0.55136993  0.54876953  0.84298206  1
  N  N59  1  0.44796218  0.42716173  0.58941490  1
  N  N60  1  0.21441463  0.90380885  0.32413909  1
  N  N61  1  0.10181471  0.75706838  0.09155083  1
  N  N62  1  0.88639143  0.86785136  0.83385279  1
  N  N63  1  0.77509883  0.76165455  0.56363609  1
  N  N64  1  0.58110909  0.86257922  0.32584730  1
  N  N65  1  0.42350879  0.81492285  0.11271722  1
  N  N66  1  0.22300098  0.86973711  0.83339447  1
  N  N67  1  0.11374099  0.76065601  0.57931703  1
  N  N68  1  0.87598166  0.85913426  0.34398640  1
  N  N69  1  0.74071026  0.77476385  0.09113912  1
  N  N70  1  0.55075090  0.87166621  0.83116716  1
  N  N71  1  0.44742691  0.75616894  0.56833842  1
