# generated using pymatgen
data_Al31B5N36
_symmetry_space_group_name_H-M   'P 1'
_cell_length_a   9.16093288
_cell_length_b   9.24122984
_cell_length_c   9.76851814
_cell_angle_alpha   90.22909442
_cell_angle_beta   90.01670400
_cell_angle_gamma   60.22569941
_symmetry_Int_Tables_number   1
_chemical_formula_structural   Al31B5N36
_chemical_formula_sum   'Al31 B5 N36'
_cell_volume   717.80705397
_cell_formula_units_Z   1
loop_
 _symmetry_equiv_pos_site_id
 _symmetry_equiv_pos_as_xyz
  1  'x, y, z'
loop_
 _atom_site_type_symbol
 _atom_site_label
 _atom_site_symmetry_multiplicity
 _atom_site_fract_x
 _atom_site_fract_y
 _atom_site_fract_z
 _atom_site_occupancy
  B  B0  1  0.11192384  0.09531834  0.38696508  1
  B  B1  1  0.58258805  0.48632699  0.15399715  1
  B  B2  1  0.22796695  0.89481557  0.14850414  1
  B  B3  1  0.55155034  0.87577552  0.14637275  1
  B  B4  1  0.77764400  0.76183922  0.38488180  1
  Al  Al5  1  0.22341590  0.19791404  0.14255793  1
  Al  Al6  1  0.78095694  0.09135441  0.88676108  1
  Al  Al7  1  0.89322602  0.20347006  0.63143521  1
  Al  Al8  1  0.44651487  0.08589135  0.38238517  1
  Al  Al9  1  0.56113418  0.19855128  0.13927933  1
  Al  Al10  1  0.11536156  0.08882816  0.88899398  1
  Al  Al11  1  0.22146879  0.20356832  0.63071686  1
  Al  Al12  1  0.78253472  0.08638392  0.38930066  1
  Al  Al13  1  0.89882626  0.19351661  0.14397441  1
  Al  Al14  1  0.44575196  0.08866004  0.89090919  1
  Al  Al15  1  0.55479001  0.20460811  0.63877328  1
  Al  Al16  1  0.10595809  0.43150399  0.38671516  1
  Al  Al17  1  0.22893000  0.54654877  0.13814743  1
  Al  Al18  1  0.77340824  0.42909869  0.89038208  1
  Al  Al19  1  0.88485887  0.54378625  0.63227204  1
  Al  Al20  1  0.44641211  0.42497666  0.38750343  1
  Al  Al21  1  0.10984045  0.42795070  0.88849260  1
  Al  Al22  1  0.22254066  0.54095251  0.63893878  1
  Al  Al23  1  0.78372161  0.42715589  0.38567342  1
  Al  Al24  1  0.87057404  0.55210513  0.14286752  1
  Al  Al25  1  0.44958034  0.43023008  0.89119777  1
  Al  Al26  1  0.55323810  0.54460866  0.63739473  1
  Al  Al27  1  0.10873857  0.76643500  0.37942106  1
  Al  Al28  1  0.76915886  0.76435551  0.88898569  1
  Al  Al29  1  0.88856437  0.86840170  0.63129429  1
  Al  Al30  1  0.44832983  0.76071628  0.35627762  1
  Al  Al31  1  0.11417394  0.76540375  0.89210609  1
  Al  Al32  1  0.22646453  0.87120283  0.62675721  1
  Al  Al33  1  0.88524652  0.86808190  0.13990721  1
  Al  Al34  1  0.44095534  0.76858291  0.90545908  1
  Al  Al35  1  0.55418117  0.86884391  0.62650646  1
  N  N36  1  0.20781406  0.19643906  0.33615527  1
  N  N37  1  0.12132905  0.07590455  0.08213469  1
  N  N38  1  0.89138729  0.20611179  0.82823779  1
  N  N39  1  0.77864617  0.09238803  0.58099223  1
  N  N40  1  0.55740120  0.20331423  0.33039891  1
  N  N41  1  0.45420163  0.07721954  0.08921110  1
  N  N42  1  0.22167544  0.20501608  0.82779413  1
  N  N43  1  0.11374385  0.09065928  0.55437039  1
  N  N44  1  0.91413361  0.19214302  0.33718006  1
  N  N45  1  0.78299857  0.08904708  0.08096772  1
  N  N46  1  0.55425596  0.20647669  0.83401229  1
  N  N47  1  0.44543668  0.09245638  0.57483961  1
  N  N48  1  0.22451264  0.53874099  0.32888748  1
  N  N49  1  0.10728918  0.42999644  0.08442317  1
  N  N50  1  0.88517502  0.54164114  0.82958560  1
  N  N51  1  0.77656326  0.42729413  0.57705314  1
  N  N52  1  0.56395263  0.52477334  0.30611999  1
  N  N53  1  0.46551377  0.43194303  0.08787199  1
  N  N54  1  0.22400408  0.54007198  0.83541238  1
  N  N55  1  0.11075993  0.42874284  0.58002742  1
  N  N56  1  0.87494686  0.56546485  0.33528579  1
  N  N57  1  0.75759820  0.42890346  0.09082377  1
  N  N58  1  0.55199796  0.54835291  0.83146373  1
  N  N59  1  0.44673334  0.42705275  0.57990502  1
  N  N60  1  0.20856464  0.90109229  0.31496447  1
  N  N61  1  0.12233668  0.77424975  0.08816191  1
  N  N62  1  0.88952836  0.86768443  0.82795332  1
  N  N63  1  0.77479349  0.76211810  0.55363094  1
  N  N64  1  0.57963371  0.86225260  0.31462892  1
  N  N65  1  0.42384205  0.80557030  0.10108437  1
  N  N66  1  0.22542431  0.87223486  0.82143436  1
  N  N67  1  0.11254198  0.76029470  0.57333933  1
  N  N68  1  0.87675832  0.85831236  0.33365698  1
  N  N69  1  0.74499662  0.77489103  0.08118285  1
  N  N70  1  0.55243909  0.87149418  0.82059879  1
  N  N71  1  0.44646841  0.75623280  0.55681640  1
