# generated using pymatgen
data_Al31B5N36
_symmetry_space_group_name_H-M   'P 1'
_cell_length_a   9.11761625
_cell_length_b   9.21626555
_cell_length_c   10.24835132
_cell_angle_alpha   90.26654781
_cell_angle_beta   89.88413535
_cell_angle_gamma   60.41755203
_symmetry_Int_Tables_number   1
_chemical_formula_structural   Al31B5N36
_chemical_formula_sum   'Al31 B5 N36'
_cell_volume   748.89829798
_cell_formula_units_Z   1
loop_
 _symmetry_equiv_pos_site_id
 _symmetry_equiv_pos_as_xyz
  1  'x, y, z'
loop_
 _atom_site_type_symbol
 _atom_site_label
 _atom_site_symmetry_multiplicity
 _atom_site_fract_x
 _atom_site_fract_y
 _atom_site_fract_z
 _atom_site_occupancy
  B  B0  1  0.11711983  0.08711749  0.35243617  1
  B  B1  1  0.58955560  0.48401913  0.15941577  1
  B  B2  1  0.22866535  0.89204022  0.09873144  1
  B  B3  1  0.54054017  0.88237703  0.09562621  1
  B  B4  1  0.77651855  0.76503671  0.35614137  1
  Al  Al5  1  0.22513993  0.19841912  0.06199303  1
  Al  Al6  1  0.78020463  0.08846096  0.80914831  1
  Al  Al7  1  0.89709803  0.19450001  0.55944114  1
  Al  Al8  1  0.45270958  0.07890018  0.31406694  1
  Al  Al9  1  0.56180871  0.19483429  0.06082328  1
  Al  Al10  1  0.11189543  0.09557616  0.81906065  1
  Al  Al11  1  0.21995498  0.20448128  0.56057714  1
  Al  Al12  1  0.78481087  0.08344190  0.31037266  1
  Al  Al13  1  0.89571089  0.18954888  0.06497689  1
  Al  Al14  1  0.44038238  0.09785421  0.80781103  1
  Al  Al15  1  0.55663820  0.20352035  0.55853596  1
  Al  Al16  1  0.10489635  0.43275970  0.30829876  1
  Al  Al17  1  0.23425532  0.54791544  0.06301571  1
  Al  Al18  1  0.77024791  0.42612863  0.87458713  1
  Al  Al19  1  0.89154272  0.54316585  0.56207658  1
  Al  Al20  1  0.44132127  0.42249088  0.31223921  1
  Al  Al21  1  0.11075692  0.42628919  0.81322966  1
  Al  Al22  1  0.22391661  0.53758823  0.55914434  1
  Al  Al23  1  0.78194209  0.42894763  0.36721421  1
  Al  Al24  1  0.86886995  0.55384419  0.07001519  1
  Al  Al25  1  0.44277918  0.42127054  0.81165586  1
  Al  Al26  1  0.56030432  0.53970194  0.63236951  1
  Al  Al27  1  0.11455139  0.77071307  0.31035397  1
  Al  Al28  1  0.77860570  0.75688537  0.82197572  1
  Al  Al29  1  0.88998868  0.86622578  0.56088474  1
  Al  Al30  1  0.45010225  0.76514662  0.37911864  1
  Al  Al31  1  0.11119981  0.75487440  0.81019573  1
  Al  Al32  1  0.22886262  0.86915858  0.62410956  1
  Al  Al33  1  0.88381824  0.87152712  0.06022066  1
  Al  Al34  1  0.44198431  0.76469156  0.89055330  1
  Al  Al35  1  0.55638850  0.86579911  0.62171909  1
  N  N36  1  0.20865481  0.19383372  0.36853014  1
  N  N37  1  0.12276568  0.07154244  0.09654804  1
  N  N38  1  0.88792519  0.19917094  0.87601122  1
  N  N39  1  0.77995922  0.08948649  0.62070127  1
  N  N40  1  0.55824806  0.20424366  0.37219861  1
  N  N41  1  0.45280320  0.07575775  0.12450430  1
  N  N42  1  0.22348456  0.20865180  0.87623094  1
  N  N43  1  0.10778251  0.10246302  0.63023085  1
  N  N44  1  0.92205546  0.18281248  0.36617629  1
  N  N45  1  0.77968653  0.08717742  0.12743150  1
  N  N46  1  0.55760081  0.20170665  0.87504077  1
  N  N47  1  0.44055667  0.09963562  0.61827423  1
  N  N48  1  0.22224214  0.54235681  0.37130684  1
  N  N49  1  0.10884150  0.43510986  0.12353298  1
  N  N50  1  0.89145207  0.53511177  0.87973705  1
  N  N51  1  0.77412754  0.42552123  0.56026184  1
  N  N52  1  0.56030768  0.54096038  0.30259175  1
  N  N53  1  0.46523576  0.42191099  0.12357454  1
  N  N54  1  0.22407477  0.53769048  0.87765107  1
  N  N55  1  0.11197718  0.42567983  0.62270433  1
  N  N56  1  0.87891812  0.57171008  0.36812751  1
  N  N57  1  0.75874129  0.42602722  0.10031331  1
  N  N58  1  0.55538643  0.54377768  0.82031635  1
  N  N59  1  0.44320970  0.42106417  0.62263763  1
  N  N60  1  0.21104967  0.90456317  0.36014992  1
  N  N61  1  0.13341675  0.77690067  0.12012891  1
  N  N62  1  0.89203870  0.87042680  0.87513397  1
  N  N63  1  0.78965066  0.75258339  0.63127267  1
  N  N64  1  0.59277408  0.85740238  0.36426060  1
  N  N65  1  0.42061598  0.81060721  0.07517946  1
  N  N66  1  0.23045675  0.86551489  0.81796011  1
  N  N67  1  0.10894832  0.75439216  0.62039861  1
  N  N68  1  0.88094009  0.85701276  0.36869139  1
  N  N69  1  0.72920146  0.78495436  0.08629929  1
  N  N70  1  0.54771775  0.87017116  0.81521112  1
  N  N71  1  0.44898803  0.75049485  0.56348731  1
