# generated using pymatgen
data_Al31B5N36
_symmetry_space_group_name_H-M   'P 1'
_cell_length_a   9.10586128
_cell_length_b   9.20487634
_cell_length_c   10.28998346
_cell_angle_alpha   90.30388065
_cell_angle_beta   89.71366508
_cell_angle_gamma   60.41868061
_symmetry_Int_Tables_number   1
_chemical_formula_structural   Al31B5N36
_chemical_formula_sum   'Al31 B5 N36'
_cell_volume   750.02953391
_cell_formula_units_Z   1
loop_
 _symmetry_equiv_pos_site_id
 _symmetry_equiv_pos_as_xyz
  1  'x, y, z'
loop_
 _atom_site_type_symbol
 _atom_site_label
 _atom_site_symmetry_multiplicity
 _atom_site_fract_x
 _atom_site_fract_y
 _atom_site_fract_z
 _atom_site_occupancy
  B  B0  1  0.11906003  0.08621780  0.34920261  1
  B  B1  1  0.58911038  0.48474998  0.15189863  1
  B  B2  1  0.22869730  0.89178972  0.09651225  1
  B  B3  1  0.54031184  0.88252917  0.09279294  1
  B  B4  1  0.77804094  0.76422652  0.35404232  1
  Al  Al5  1  0.22485161  0.19837267  0.05876880  1
  Al  Al6  1  0.77977546  0.08892059  0.80617041  1
  Al  Al7  1  0.89826873  0.19315174  0.55687984  1
  Al  Al8  1  0.45394955  0.07842733  0.31098431  1
  Al  Al9  1  0.56122870  0.19476412  0.05738730  1
  Al  Al10  1  0.10965376  0.09738140  0.81442431  1
  Al  Al11  1  0.22122425  0.20383950  0.55729271  1
  Al  Al12  1  0.78611641  0.08294430  0.30757614  1
  Al  Al13  1  0.89731143  0.18617353  0.06060982  1
  Al  Al14  1  0.43966524  0.09821798  0.80447644  1
  Al  Al15  1  0.55745394  0.20334520  0.55555154  1
  Al  Al16  1  0.10651797  0.43210826  0.30597446  1
  Al  Al17  1  0.23332595  0.54833935  0.05928397  1
  Al  Al18  1  0.76258672  0.42858965  0.88750701  1
  Al  Al19  1  0.89311321  0.54220083  0.56036817  1
  Al  Al20  1  0.44396145  0.42179593  0.30755990  1
  Al  Al21  1  0.10824485  0.42651663  0.81066670  1
  Al  Al22  1  0.22598588  0.53665898  0.55629652  1
  Al  Al23  1  0.78216079  0.42856993  0.37001105  1
  Al  Al24  1  0.87058250  0.55550265  0.06649176  1
  Al  Al25  1  0.44134245  0.42161050  0.80886648  1
  Al  Al26  1  0.56285009  0.53849173  0.63285806  1
  Al  Al27  1  0.11590191  0.76993001  0.30739478  1
  Al  Al28  1  0.77817906  0.75572627  0.81870699  1
  Al  Al29  1  0.89086956  0.86551154  0.55806947  1
  Al  Al30  1  0.45257903  0.76312242  0.37597008  1
  Al  Al31  1  0.11006550  0.75503518  0.80684654  1
  Al  Al32  1  0.23032326  0.86776821  0.62161737  1
  Al  Al33  1  0.88320088  0.87207240  0.05690080  1
  Al  Al34  1  0.43974892  0.76616550  0.88714649  1
  Al  Al35  1  0.55676699  0.86516404  0.61903469  1
  N  N36  1  0.21032196  0.19326853  0.36598443  1
  N  N37  1  0.12293977  0.07163042  0.09571747  1
  N  N38  1  0.88699500  0.19934243  0.87361043  1
  N  N39  1  0.78051951  0.08888875  0.61807426  1
  N  N40  1  0.55936033  0.20424452  0.36949041  1
  N  N41  1  0.45221357  0.07603750  0.12181331  1
  N  N42  1  0.22245244  0.20862543  0.87352680  1
  N  N43  1  0.10893869  0.10156966  0.62653729  1
  N  N44  1  0.92346130  0.18229890  0.36321614  1
  N  N45  1  0.77881520  0.08775771  0.12518501  1
  N  N46  1  0.55667891  0.20196073  0.87238881  1
  N  N47  1  0.44137791  0.09912812  0.61546741  1
  N  N48  1  0.22498378  0.54156377  0.36860822  1
  N  N49  1  0.10870430  0.43521453  0.12155755  1
  N  N50  1  0.88941379  0.53514374  0.87787132  1
  N  N51  1  0.77479659  0.42468343  0.55695302  1
  N  N52  1  0.56640056  0.53781525  0.29544190  1
  N  N53  1  0.46388810  0.42259747  0.11954280  1
  N  N54  1  0.22204146  0.53810362  0.87476825  1
  N  N55  1  0.11319663  0.42493809  0.62025494  1
  N  N56  1  0.88037774  0.57070870  0.36629959  1
  N  N57  1  0.75299603  0.42925989  0.08363061  1
  N  N58  1  0.55387995  0.54430138  0.81885053  1
  N  N59  1  0.44455816  0.42053244  0.62081337  1
  N  N60  1  0.21340967  0.90321904  0.35653082  1
  N  N61  1  0.13286405  0.77718233  0.11737865  1
  N  N62  1  0.89061990  0.87061857  0.87230392  1
  N  N63  1  0.79015269  0.75203040  0.62866075  1
  N  N64  1  0.59408727  0.85685992  0.36139449  1
  N  N65  1  0.42050559  0.81029412  0.07169923  1
  N  N66  1  0.22872787  0.86671932  0.81448814  1
  N  N67  1  0.10959779  0.75368201  0.61762086  1
  N  N68  1  0.88235428  0.85646733  0.36641314  1
  N  N69  1  0.72901156  0.78576320  0.08488969  1
  N  N70  1  0.54694524  0.87031100  0.81183122  1
  N  N71  1  0.45099682  0.74800705  0.56020015  1
