# generated using pymatgen
data_Al31B5N36
_symmetry_space_group_name_H-M   'P 1'
_cell_length_a   9.16093422
_cell_length_b   9.24123509
_cell_length_c   9.76854059
_cell_angle_alpha   90.22900632
_cell_angle_beta   90.01659610
_cell_angle_gamma   60.22557783
_symmetry_Int_Tables_number   1
_chemical_formula_structural   Al31B5N36
_chemical_formula_sum   'Al31 B5 N36'
_cell_volume   717.80834743
_cell_formula_units_Z   1
loop_
 _symmetry_equiv_pos_site_id
 _symmetry_equiv_pos_as_xyz
  1  'x, y, z'
loop_
 _atom_site_type_symbol
 _atom_site_label
 _atom_site_symmetry_multiplicity
 _atom_site_fract_x
 _atom_site_fract_y
 _atom_site_fract_z
 _atom_site_occupancy
  B  B0  1  0.11220665  0.09466569  0.39803826  1
  B  B1  1  0.58286938  0.48567558  0.16507028  1
  B  B2  1  0.22825828  0.89416938  0.15957927  1
  B  B3  1  0.55183286  0.87512002  0.15744491  1
  B  B4  1  0.77792599  0.76118611  0.39595374  1
  Al  Al5  1  0.22369641  0.19726364  0.15363247  1
  Al  Al6  1  0.78123870  0.09070105  0.89782919  1
  Al  Al7  1  0.89350774  0.20281667  0.64250609  1
  Al  Al8  1  0.44679821  0.08523806  0.39345480  1
  Al  Al9  1  0.56141639  0.19789911  0.15034595  1
  Al  Al10  1  0.11564321  0.08817552  0.90006329  1
  Al  Al11  1  0.22175166  0.20291517  0.64178481  1
  Al  Al12  1  0.78281624  0.08573086  0.40036751  1
  Al  Al13  1  0.89910916  0.19286206  0.15504787  1
  Al  Al14  1  0.44603238  0.08800888  0.90198263  1
  Al  Al15  1  0.55507157  0.20395565  0.64984037  1
  Al  Al16  1  0.10623931  0.43085211  0.39778825  1
  Al  Al17  1  0.22920889  0.54589251  0.14921590  1
  Al  Al18  1  0.77368934  0.42844544  0.90145658  1
  Al  Al19  1  0.88514029  0.54313401  0.64334610  1
  Al  Al20  1  0.44669375  0.42432329  0.39857011  1
  Al  Al21  1  0.11012271  0.42729656  0.89955915  1
  Al  Al22  1  0.22282265  0.54030111  0.65000589  1
  Al  Al23  1  0.78400334  0.42650298  0.39674907  1
  Al  Al24  1  0.87085620  0.55145133  0.15394216  1
  Al  Al25  1  0.44986147  0.42957754  0.90226986  1
  Al  Al26  1  0.55351971  0.54395435  0.64846574  1
  Al  Al27  1  0.10902129  0.76578234  0.39048444  1
  Al  Al28  1  0.76944029  0.76370265  0.90005553  1
  Al  Al29  1  0.88884720  0.86774872  0.64236137  1
  Al  Al30  1  0.44861320  0.76006286  0.36735678  1
  Al  Al31  1  0.11445316  0.76474955  0.90318139  1
  Al  Al32  1  0.22674474  0.87054933  0.63783217  1
  Al  Al33  1  0.88552579  0.86742725  0.15097586  1
  Al  Al34  1  0.44123563  0.76793018  0.91652933  1
  Al  Al35  1  0.55446295  0.86819254  0.63758261  1
  N  N36  1  0.20809565  0.19578716  0.34722889  1
  N  N37  1  0.12161385  0.07525135  0.09320721  1
  N  N38  1  0.89166801  0.20545996  0.83930858  1
  N  N39  1  0.77892788  0.09173495  0.59205839  1
  N  N40  1  0.55768316  0.20266071  0.34146577  1
  N  N41  1  0.45448161  0.07656857  0.10028399  1
  N  N42  1  0.22195775  0.20436317  0.83886228  1
  N  N43  1  0.11402637  0.09000595  0.56544097  1
  N  N44  1  0.91441666  0.19148997  0.34825215  1
  N  N45  1  0.78328139  0.08839318  0.09203685  1
  N  N46  1  0.55453615  0.20582533  0.84508163  1
  N  N47  1  0.44572007  0.09180293  0.58590755  1
  N  N48  1  0.22479341  0.53808728  0.33995539  1
  N  N49  1  0.10756986  0.42934132  0.09549280  1
  N  N50  1  0.88545589  0.54098867  0.84065794  1
  N  N51  1  0.77684618  0.42664172  0.58812561  1
  N  N52  1  0.56423394  0.52412266  0.31719088  1
  N  N53  1  0.46579381  0.43129227  0.09894429  1
  N  N54  1  0.22428588  0.53941936  0.84648094  1
  N  N55  1  0.11104078  0.42809170  0.59109843  1
  N  N56  1  0.87522837  0.56481213  0.34635893  1
  N  N57  1  0.75787953  0.42825077  0.10189867  1
  N  N58  1  0.55227875  0.54769987  0.84253558  1
  N  N59  1  0.44701476  0.42640014  0.59097106  1
  N  N60  1  0.20885104  0.90043995  0.32603404  1
  N  N61  1  0.12261084  0.77359030  0.09923347  1
  N  N62  1  0.88980962  0.86703076  0.83902067  1
  N  N63  1  0.77507510  0.76146574  0.56470141  1
  N  N64  1  0.57991510  0.86159851  0.32569921  1
  N  N65  1  0.42412323  0.80492043  0.11215448  1
  N  N66  1  0.22570382  0.87157973  0.83250813  1
  N  N67  1  0.11282375  0.75964248  0.58440267  1
  N  N68  1  0.87703927  0.85765903  0.34472559  1
  N  N69  1  0.74527645  0.77423682  0.09225382  1
  N  N70  1  0.55272018  0.87084269  0.83167251  1
  N  N71  1  0.44675044  0.75558152  0.56789091  1
