# generated using pymatgen
data_Al31B5N36
_symmetry_space_group_name_H-M   'P 1'
_cell_length_a   9.11757832
_cell_length_b   9.19505357
_cell_length_c   10.19121720
_cell_angle_alpha   89.70600486
_cell_angle_beta   89.97050363
_cell_angle_gamma   60.30178094
_symmetry_Int_Tables_number   1
_chemical_formula_structural   Al31B5N36
_chemical_formula_sum   'Al31 B5 N36'
_cell_volume   742.15771236
_cell_formula_units_Z   1
loop_
 _symmetry_equiv_pos_site_id
 _symmetry_equiv_pos_as_xyz
  1  'x, y, z'
loop_
 _atom_site_type_symbol
 _atom_site_label
 _atom_site_symmetry_multiplicity
 _atom_site_fract_x
 _atom_site_fract_y
 _atom_site_fract_z
 _atom_site_occupancy
  B  B0  1  0.11194687  0.09389541  0.35208621  1
  B  B1  1  0.58703914  0.47558338  0.04904399  1
  B  B2  1  0.22499902  0.89594566  0.10382987  1
  B  B3  1  0.53933434  0.88432432  0.10043171  1
  B  B4  1  0.77274997  0.76559566  0.35444087  1
  Al  Al5  1  0.22262968  0.20115341  0.06210513  1
  Al  Al6  1  0.78051141  0.08904671  0.80709310  1
  Al  Al7  1  0.89410067  0.20337434  0.56153175  1
  Al  Al8  1  0.45069839  0.08399362  0.31402166  1
  Al  Al9  1  0.56118539  0.19270007  0.05906220  1
  Al  Al10  1  0.11324702  0.09299223  0.81983390  1
  Al  Al11  1  0.22087161  0.20377328  0.55923419  1
  Al  Al12  1  0.78269615  0.08760231  0.31081086  1
  Al  Al13  1  0.89353579  0.19333374  0.05829468  1
  Al  Al14  1  0.44122793  0.09553803  0.80871358  1
  Al  Al15  1  0.55562603  0.20587939  0.55809591  1
  Al  Al16  1  0.10335874  0.43533195  0.30841750  1
  Al  Al17  1  0.22849928  0.55002284  0.05934574  1
  Al  Al18  1  0.77844062  0.42444886  0.81319019  1
  Al  Al19  1  0.88715955  0.54174658  0.56205602  1
  Al  Al20  1  0.45000407  0.42926000  0.30316233  1
  Al  Al21  1  0.11266899  0.42483462  0.80885819  1
  Al  Al22  1  0.22504719  0.53829115  0.55681996  1
  Al  Al23  1  0.77495320  0.43492134  0.30483695  1
  Al  Al24  1  0.86570169  0.55218992  0.05624568  1
  Al  Al25  1  0.44630635  0.42476876  0.81553595  1
  Al  Al26  1  0.55924616  0.53104267  0.55760537  1
  Al  Al27  1  0.11263236  0.77142862  0.30952466  1
  Al  Al28  1  0.78030952  0.75706321  0.81938954  1
  Al  Al29  1  0.88948273  0.86783118  0.55838678  1
  Al  Al30  1  0.44269570  0.77505456  0.38193984  1
  Al  Al31  1  0.11046935  0.75417364  0.80888625  1
  Al  Al32  1  0.22901909  0.86935929  0.62690835  1
  Al  Al33  1  0.88249640  0.87235469  0.06071086  1
  Al  Al34  1  0.44205847  0.76488907  0.90297543  1
  Al  Al35  1  0.55607823  0.86581994  0.62530227  1
  N  N36  1  0.20789604  0.19548449  0.36707259  1
  N  N37  1  0.11863785  0.07624963  0.09845589  1
  N  N38  1  0.88672016  0.20264763  0.87190161  1
  N  N39  1  0.78032445  0.09109987  0.61732156  1
  N  N40  1  0.55530787  0.20844617  0.36957259  1
  N  N41  1  0.45122870  0.07849725  0.12451970  1
  N  N42  1  0.22424205  0.20690777  0.87561824  1
  N  N43  1  0.10845844  0.10217348  0.63003556  1
  N  N44  1  0.91429878  0.19708670  0.36780091  1
  N  N45  1  0.77944165  0.08922048  0.12599190  1
  N  N46  1  0.55836613  0.19927284  0.87288325  1
  N  N47  1  0.44142670  0.10058426  0.61876412  1
  N  N48  1  0.22594818  0.54093860  0.36615192  1
  N  N49  1  0.10338751  0.43794622  0.12133928  1
  N  N50  1  0.89140603  0.53281290  0.87158165  1
  N  N51  1  0.77758079  0.42627419  0.62424486  1
  N  N52  1  0.55820923  0.53560598  0.37032890  1
  N  N53  1  0.46489657  0.42730790  0.11235390  1
  N  N54  1  0.22340441  0.53623578  0.87400791  1
  N  N55  1  0.11305766  0.42590547  0.61762551  1
  N  N56  1  0.87284668  0.56814296  0.36759681  1
  N  N57  1  0.75618932  0.42795797  0.11444137  1
  N  N58  1  0.56454764  0.52143635  0.90327008  1
  N  N59  1  0.44696283  0.42629959  0.62737208  1
  N  N60  1  0.20297208  0.91050597  0.35937630  1
  N  N61  1  0.13172220  0.77852999  0.11916460  1
  N  N62  1  0.89233825  0.87030398  0.87439660  1
  N  N63  1  0.78914169  0.75443433  0.62851484  1
  N  N64  1  0.58974131  0.86009157  0.36048458  1
  N  N65  1  0.41712568  0.81531166  0.08586315  1
  N  N66  1  0.23430327  0.86023231  0.82130733  1
  N  N67  1  0.10912402  0.75516630  0.61869116  1
  N  N68  1  0.87915511  0.85650000  0.36629438  1
  N  N69  1  0.72806533  0.78410012  0.08473893  1
  N  N70  1  0.54858459  0.86472113  0.81779141  1
  N  N71  1  0.44512497  0.75953431  0.56876360  1
