# generated using pymatgen
data_Al31B5N36
_symmetry_space_group_name_H-M   'P 1'
_cell_length_a   9.24006411
_cell_length_b   9.33915464
_cell_length_c   9.70781414
_cell_angle_alpha   90.12230290
_cell_angle_beta   89.68309594
_cell_angle_gamma   60.01013444
_symmetry_Int_Tables_number   1
_chemical_formula_structural   Al31B5N36
_chemical_formula_sum   'Al31 B5 N36'
_cell_volume   725.54672525
_cell_formula_units_Z   1
loop_
 _symmetry_equiv_pos_site_id
 _symmetry_equiv_pos_as_xyz
  1  'x, y, z'
loop_
 _atom_site_type_symbol
 _atom_site_label
 _atom_site_symmetry_multiplicity
 _atom_site_fract_x
 _atom_site_fract_y
 _atom_site_fract_z
 _atom_site_occupancy
  B  B0  1  0.11071497  0.09900345  0.40219200  1
  B  B1  1  0.58637277  0.47860377  0.16814527  1
  B  B2  1  0.24736213  0.91580020  0.17105451  1
  B  B3  1  0.55531078  0.87664926  0.16421484  1
  B  B4  1  0.77921676  0.75825950  0.39960717  1
  Al  Al5  1  0.22386636  0.20059159  0.15636980  1
  Al  Al6  1  0.78159592  0.08885043  0.89874948  1
  Al  Al7  1  0.89305042  0.20270426  0.64596677  1
  Al  Al8  1  0.44945581  0.08445530  0.36733025  1
  Al  Al9  1  0.56281510  0.19787081  0.14359803  1
  Al  Al10  1  0.11732986  0.08654835  0.90069384  1
  Al  Al11  1  0.21423222  0.20733638  0.63290354  1
  Al  Al12  1  0.79002252  0.08295004  0.39736510  1
  Al  Al13  1  0.90208691  0.18992421  0.15573306  1
  Al  Al14  1  0.44497171  0.09380011  0.83919807  1
  Al  Al15  1  0.55769490  0.20701013  0.61707873  1
  Al  Al16  1  0.10435331  0.43403690  0.39835256  1
  Al  Al17  1  0.22338081  0.54141084  0.14779309  1
  Al  Al18  1  0.77246096  0.42812459  0.90330314  1
  Al  Al19  1  0.88472126  0.54314622  0.64693691  1
  Al  Al20  1  0.44456575  0.43005439  0.39543881  1
  Al  Al21  1  0.10969453  0.42647716  0.89911757  1
  Al  Al22  1  0.22185442  0.54193426  0.64887476  1
  Al  Al23  1  0.78607660  0.42564362  0.39822080  1
  Al  Al24  1  0.86970066  0.55131786  0.15338178  1
  Al  Al25  1  0.44807306  0.43095919  0.90294475  1
  Al  Al26  1  0.55315554  0.54445994  0.65178063  1
  Al  Al27  1  0.10984780  0.76600251  0.38453849  1
  Al  Al28  1  0.76607584  0.76624510  0.90124186  1
  Al  Al29  1  0.88970058  0.86700714  0.64083785  1
  Al  Al30  1  0.45289376  0.75698165  0.37103595  1
  Al  Al31  1  0.10911586  0.76148993  0.90459270  1
  Al  Al32  1  0.22550652  0.86960489  0.64007722  1
  Al  Al33  1  0.88030937  0.86342162  0.15140689  1
  Al  Al34  1  0.43854385  0.77178633  0.91962721  1
  Al  Al35  1  0.55693426  0.86247343  0.63146357  1
  N  N36  1  0.20379246  0.20009125  0.35442161  1
  N  N37  1  0.12677117  0.07538377  0.09632701  1
  N  N38  1  0.89215993  0.20433554  0.84376956  1
  N  N39  1  0.78506590  0.08953299  0.59097437  1
  N  N40  1  0.56229924  0.20577730  0.35440352  1
  N  N41  1  0.45664811  0.07516482  0.14197539  1
  N  N42  1  0.21476027  0.20661472  0.83353014  1
  N  N43  1  0.11245464  0.08900390  0.56777869  1
  N  N44  1  0.91704185  0.19167661  0.34943866  1
  N  N45  1  0.78713810  0.08550224  0.09608316  1
  N  N46  1  0.55564217  0.20795102  0.85553006  1
  N  N47  1  0.44475961  0.09149037  0.60047889  1
  N  N48  1  0.22416021  0.53765049  0.33996666  1
  N  N49  1  0.10725390  0.42236521  0.09589645  1
  N  N50  1  0.88356623  0.54172412  0.84516438  1
  N  N51  1  0.77735943  0.42640342  0.59166604  1
  N  N52  1  0.56623553  0.52432438  0.31847740  1
  N  N53  1  0.46498027  0.43208054  0.10275472  1
  N  N54  1  0.22435079  0.53691150  0.84492415  1
  N  N55  1  0.10882547  0.43200325  0.59183349  1
  N  N56  1  0.87622085  0.56337278  0.34708624  1
  N  N57  1  0.75841159  0.42532874  0.10420220  1
  N  N58  1  0.55063012  0.54971286  0.84704658  1
  N  N59  1  0.44511023  0.43275314  0.58947567  1
  N  N60  1  0.21471688  0.90453573  0.32664765  1
  N  N61  1  0.09988674  0.75487679  0.09392830  1
  N  N62  1  0.88592965  0.86776952  0.83683493  1
  N  N63  1  0.77815824  0.75865377  0.56695817  1
  N  N64  1  0.58804964  0.85219474  0.33611403  1
  N  N65  1  0.42396807  0.81519308  0.11705233  1
  N  N66  1  0.22311902  0.86964196  0.83678331  1
  N  N67  1  0.11372931  0.76036959  0.58190968  1
  N  N68  1  0.87720264  0.85682001  0.34662895  1
  N  N69  1  0.73922732  0.77554365  0.09459489  1
  N  N70  1  0.55234347  0.86702069  0.82880047  1
  N  N71  1  0.44567207  0.75399858  0.57023044  1
