# generated using pymatgen
data_Al31B5N36
_symmetry_space_group_name_H-M   'P 1'
_cell_length_a   9.16393178
_cell_length_b   9.23706974
_cell_length_c   10.08920024
_cell_angle_alpha   91.01189571
_cell_angle_beta   90.31487825
_cell_angle_gamma   60.23693713
_symmetry_Int_Tables_number   1
_chemical_formula_structural   Al31B5N36
_chemical_formula_sum   'Al31 B5 N36'
_cell_volume   741.24977712
_cell_formula_units_Z   1
loop_
 _symmetry_equiv_pos_site_id
 _symmetry_equiv_pos_as_xyz
  1  'x, y, z'
loop_
 _atom_site_type_symbol
 _atom_site_label
 _atom_site_symmetry_multiplicity
 _atom_site_fract_x
 _atom_site_fract_y
 _atom_site_fract_z
 _atom_site_occupancy
  B  B0  1  0.11179015  0.08992736  0.39759911  1
  B  B1  1  0.58542025  0.47932046  0.17009602  1
  B  B2  1  0.22557413  0.89219199  0.15617482  1
  B  B3  1  0.53785726  0.88262024  0.11661347  1
  B  B4  1  0.77297844  0.76324008  0.37164632  1
  Al  Al5  1  0.22753257  0.20072013  0.09540476  1
  Al  Al6  1  0.77889800  0.08482559  0.82860953  1
  Al  Al7  1  0.89599209  0.20231156  0.64313836  1
  Al  Al8  1  0.45149816  0.07976061  0.33106714  1
  Al  Al9  1  0.56640562  0.19071289  0.08402145  1
  Al  Al10  1  0.10990086  0.08736217  0.90509383  1
  Al  Al11  1  0.22557910  0.19801656  0.56822494  1
  Al  Al12  1  0.77988343  0.08219256  0.33841008  1
  Al  Al13  1  0.90245284  0.19898458  0.16257776  1
  Al  Al14  1  0.43442696  0.10339180  0.82850062  1
  Al  Al15  1  0.55741018  0.19742436  0.58009206  1
  Al  Al16  1  0.10239007  0.43981994  0.39429700  1
  Al  Al17  1  0.23096039  0.55067263  0.15569446  1
  Al  Al18  1  0.77413555  0.42422502  0.90858933  1
  Al  Al19  1  0.89345145  0.53125021  0.65985659  1
  Al  Al20  1  0.44502605  0.43066394  0.40141830  1
  Al  Al21  1  0.10680186  0.43667230  0.91034444  1
  Al  Al22  1  0.22219040  0.53842446  0.65195950  1
  Al  Al23  1  0.78514242  0.42796271  0.40249219  1
  Al  Al24  1  0.86134532  0.56141210  0.15340487  1
  Al  Al25  1  0.44845885  0.43363205  0.90581003  1
  Al  Al26  1  0.55580546  0.54062745  0.65390897  1
  Al  Al27  1  0.11654121  0.76507756  0.39207209  1
  Al  Al28  1  0.76745428  0.76322480  0.87836791  1
  Al  Al29  1  0.88511192  0.86306307  0.58061722  1
  Al  Al30  1  0.45270215  0.75981753  0.38372411  1
  Al  Al31  1  0.12394950  0.76200728  0.90599314  1
  Al  Al32  1  0.22551983  0.86836403  0.64267736  1
  Al  Al33  1  0.88525617  0.87516934  0.08781734  1
  Al  Al34  1  0.43984742  0.77018865  0.91265310  1
  Al  Al35  1  0.55727911  0.86290088  0.64272577  1
  N  N36  1  0.21424327  0.19333630  0.37436397  1
  N  N37  1  0.11701953  0.07451543  0.09654467  1
  N  N38  1  0.89343499  0.20670790  0.83791060  1
  N  N39  1  0.77750001  0.08488775  0.63856011  1
  N  N40  1  0.55643217  0.19850116  0.39086681  1
  N  N41  1  0.45696418  0.07443834  0.14154564  1
  N  N42  1  0.22363953  0.20703510  0.90107611  1
  N  N43  1  0.11000831  0.08017115  0.56356422  1
  N  N44  1  0.91840930  0.19363621  0.35153568  1
  N  N45  1  0.77900565  0.09021473  0.15176342  1
  N  N46  1  0.55923832  0.19997078  0.89554669  1
  N  N47  1  0.43655558  0.10004278  0.63909356  1
  N  N48  1  0.22661939  0.53994011  0.33958724  1
  N  N49  1  0.10006811  0.44730789  0.10239925  1
  N  N50  1  0.88919778  0.53056666  0.85106524  1
  N  N51  1  0.77866195  0.42459751  0.58898650  1
  N  N52  1  0.56638238  0.52316958  0.31820752  1
  N  N53  1  0.46482228  0.43343912  0.10285885  1
  N  N54  1  0.22510845  0.53857742  0.84470021  1
  N  N55  1  0.10961340  0.42907222  0.58667831  1
  N  N56  1  0.87114514  0.57066340  0.34438727  1
  N  N57  1  0.75705579  0.42727813  0.10513757  1
  N  N58  1  0.55428654  0.54511128  0.84421937  1
  N  N59  1  0.44499302  0.43083431  0.59170760  1
  N  N60  1  0.21485709  0.89809670  0.32501421  1
  N  N61  1  0.13569796  0.77510941  0.10127330  1
  N  N62  1  0.89178082  0.87287736  0.89863767  1
  N  N63  1  0.78451817  0.75315002  0.63717962  1
  N  N64  1  0.59010458  0.85412464  0.36879164  1
  N  N65  1  0.42103493  0.81257143  0.10170047  1
  N  N66  1  0.22379597  0.87346866  0.83176266  1
  N  N67  1  0.11839820  0.75501521  0.58293931  1
  N  N68  1  0.87601734  0.85435789  0.38289751  1
  N  N69  1  0.73056748  0.78075817  0.08724849  1
  N  N70  1  0.54376006  0.87370699  0.83595263  1
  N  N71  1  0.44589110  0.75242090  0.57600553  1
