# generated using pymatgen
data_Al31B5N36
_symmetry_space_group_name_H-M   'P 1'
_cell_length_a   9.19522941
_cell_length_b   9.30600171
_cell_length_c   10.14371404
_cell_angle_alpha   90.42293275
_cell_angle_beta   89.76135155
_cell_angle_gamma   59.89694731
_symmetry_Int_Tables_number   1
_chemical_formula_structural   Al31B5N36
_chemical_formula_sum   'Al31 B5 N36'
_cell_volume   750.88186171
_cell_formula_units_Z   1
loop_
 _symmetry_equiv_pos_site_id
 _symmetry_equiv_pos_as_xyz
  1  'x, y, z'
loop_
 _atom_site_type_symbol
 _atom_site_label
 _atom_site_symmetry_multiplicity
 _atom_site_fract_x
 _atom_site_fract_y
 _atom_site_fract_z
 _atom_site_occupancy
  B  B0  1  0.11149326  0.10350524  0.30465844  1
  B  B1  1  0.59000083  0.47928108  0.15730702  1
  B  B2  1  0.25710293  0.91606616  0.15804050  1
  B  B3  1  0.54301163  0.89011660  0.09536485  1
  B  B4  1  0.77860926  0.76283149  0.35209854  1
  Al  Al5  1  0.22963505  0.20064859  0.06440690  1
  Al  Al6  1  0.78156802  0.09052421  0.80944679  1
  Al  Al7  1  0.90223040  0.18998039  0.55256425  1
  Al  Al8  1  0.45657368  0.08070789  0.31573812  1
  Al  Al9  1  0.56403506  0.19763766  0.05981215  1
  Al  Al10  1  0.10860069  0.09824997  0.81377682  1
  Al  Al11  1  0.22188841  0.20008387  0.55409467  1
  Al  Al12  1  0.78620612  0.08249134  0.31067629  1
  Al  Al13  1  0.90042070  0.18601750  0.07020953  1
  Al  Al14  1  0.44039806  0.09695012  0.80617136  1
  Al  Al15  1  0.55883334  0.20361790  0.55957388  1
  Al  Al16  1  0.10951616  0.43121136  0.30681385  1
  Al  Al17  1  0.22516899  0.54133918  0.06143950  1
  Al  Al18  1  0.76344260  0.43080896  0.89433336  1
  Al  Al19  1  0.89098772  0.53302139  0.60828556  1
  Al  Al20  1  0.44339572  0.42193393  0.31320758  1
  Al  Al21  1  0.11322377  0.42134450  0.81889103  1
  Al  Al22  1  0.22462450  0.53563102  0.56101773  1
  Al  Al23  1  0.78676554  0.43265806  0.37079410  1
  Al  Al24  1  0.86767118  0.55812212  0.09763881  1
  Al  Al25  1  0.44271415  0.42289991  0.81250516  1
  Al  Al26  1  0.55982865  0.54100807  0.63433159  1
  Al  Al27  1  0.10821022  0.76003993  0.29889114  1
  Al  Al28  1  0.76978240  0.76075130  0.82983900  1
  Al  Al29  1  0.89019991  0.86391546  0.56265110  1
  Al  Al30  1  0.45848431  0.75846497  0.37140053  1
  Al  Al31  1  0.10676212  0.75469835  0.81596694  1
  Al  Al32  1  0.23143678  0.86290816  0.63411274  1
  Al  Al33  1  0.87843952  0.86920266  0.05781148  1
  Al  Al34  1  0.43360667  0.77207040  0.89744636  1
  Al  Al35  1  0.55496312  0.86592815  0.61536067  1
  N  N36  1  0.21136809  0.19522787  0.36297829  1
  N  N37  1  0.11936427  0.09568017  0.14212375  1
  N  N38  1  0.89123089  0.19797425  0.88193521  1
  N  N39  1  0.78331212  0.09046294  0.61899663  1
  N  N40  1  0.56051333  0.20427619  0.37208957  1
  N  N41  1  0.45753123  0.08056543  0.12411444  1
  N  N42  1  0.22331063  0.20183838  0.87859843  1
  N  N43  1  0.11264515  0.09584573  0.62444304  1
  N  N44  1  0.92302462  0.18396154  0.35999831  1
  N  N45  1  0.78142806  0.08702137  0.12616961  1
  N  N46  1  0.55656021  0.20230409  0.87247474  1
  N  N47  1  0.44185097  0.09970597  0.61483169  1
  N  N48  1  0.22417796  0.53956437  0.37266907  1
  N  N49  1  0.11308247  0.42397085  0.12023397  1
  N  N50  1  0.88784907  0.53260096  0.86483384  1
  N  N51  1  0.77702633  0.42534778  0.56047969  1
  N  N52  1  0.56734571  0.53362122  0.30110636  1
  N  N53  1  0.46303441  0.42440703  0.12191670  1
  N  N54  1  0.22336690  0.53408900  0.87501359  1
  N  N55  1  0.11925912  0.41833599  0.62438090  1
  N  N56  1  0.87514527  0.57396913  0.33378221  1
  N  N57  1  0.75254899  0.42998052  0.08933935  1
  N  N58  1  0.55161111  0.54728151  0.82542334  1
  N  N59  1  0.44595534  0.42197351  0.62206851  1
  N  N60  1  0.23210025  0.89161142  0.30436022  1
  N  N61  1  0.09358497  0.75205128  0.12018290  1
  N  N62  1  0.88484044  0.87373926  0.87096266  1
  N  N63  1  0.78670267  0.75413190  0.63028594  1
  N  N64  1  0.59400210  0.85708403  0.36422379  1
  N  N65  1  0.41868765  0.82923855  0.08320779  1
  N  N66  1  0.22286678  0.86822140  0.82449410  1
  N  N67  1  0.10999337  0.75320018  0.62139638  1
  N  N68  1  0.88012431  0.85713750  0.37142843  1
  N  N69  1  0.72552043  0.78757049  0.07627034  1
  N  N70  1  0.53976081  0.87067994  0.81257019  1
  N  N71  1  0.44413688  0.75135321  0.55809136  1
