# generated using pymatgen
data_Al31B5N36
_symmetry_space_group_name_H-M   'P 1'
_cell_length_a   9.17312273
_cell_length_b   9.28135256
_cell_length_c   10.19764403
_cell_angle_alpha   90.68531893
_cell_angle_beta   89.62508610
_cell_angle_gamma   59.94413444
_symmetry_Int_Tables_number   1
_chemical_formula_structural   Al31B5N36
_chemical_formula_sum   'Al31 B5 N36'
_cell_volume   751.34185413
_cell_formula_units_Z   1
loop_
 _symmetry_equiv_pos_site_id
 _symmetry_equiv_pos_as_xyz
  1  'x, y, z'
loop_
 _atom_site_type_symbol
 _atom_site_label
 _atom_site_symmetry_multiplicity
 _atom_site_fract_x
 _atom_site_fract_y
 _atom_site_fract_z
 _atom_site_occupancy
  B  B0  1  0.11192936  0.10399124  0.30605772  1
  B  B1  1  0.59125156  0.47991374  0.15878420  1
  B  B2  1  0.25582669  0.91568309  0.15821950  1
  B  B3  1  0.54048353  0.89040955  0.09754933  1
  B  B4  1  0.77718779  0.76329276  0.37617470  1
  Al  Al5  1  0.22843395  0.20193318  0.06499170  1
  Al  Al6  1  0.78152512  0.08960746  0.81017112  1
  Al  Al7  1  0.90156694  0.19066254  0.55466926  1
  Al  Al8  1  0.45706010  0.08057313  0.31427515  1
  Al  Al9  1  0.56447711  0.19862862  0.05999984  1
  Al  Al10  1  0.10741921  0.09886178  0.81383506  1
  Al  Al11  1  0.22222221  0.19975278  0.55469383  1
  Al  Al12  1  0.78712146  0.08372099  0.31178257  1
  Al  Al13  1  0.90029294  0.18919424  0.07119442  1
  Al  Al14  1  0.44132281  0.09602959  0.80602028  1
  Al  Al15  1  0.55879614  0.20231353  0.56063366  1
  Al  Al16  1  0.11276294  0.42880606  0.31018229  1
  Al  Al17  1  0.22505531  0.54090437  0.06277753  1
  Al  Al18  1  0.76448724  0.43323640  0.89472777  1
  Al  Al19  1  0.88540508  0.53472010  0.63567691  1
  Al  Al20  1  0.44455439  0.42209615  0.31450087  1
  Al  Al21  1  0.11744670  0.41888013  0.81577106  1
  Al  Al22  1  0.22329364  0.53461151  0.56147978  1
  Al  Al23  1  0.78767843  0.43392497  0.37940038  1
  Al  Al24  1  0.85977980  0.56454743  0.13672956  1
  Al  Al25  1  0.44254418  0.42243495  0.81304837  1
  Al  Al26  1  0.55914127  0.54062103  0.63499865  1
  Al  Al27  1  0.10846849  0.76151425  0.30037708  1
  Al  Al28  1  0.76185437  0.76064204  0.87240102  1
  Al  Al29  1  0.89171162  0.86490936  0.55988696  1
  Al  Al30  1  0.45841339  0.76022870  0.37244715  1
  Al  Al31  1  0.10593414  0.75328662  0.81480637  1
  Al  Al32  1  0.23062314  0.86274018  0.63420470  1
  Al  Al33  1  0.88440671  0.87120710  0.06068053  1
  Al  Al34  1  0.43165418  0.77152894  0.89622461  1
  Al  Al35  1  0.55824703  0.86275436  0.61821947  1
  N  N36  1  0.21293702  0.19463643  0.36371606  1
  N  N37  1  0.11907858  0.09614648  0.14331942  1
  N  N38  1  0.89047957  0.19882743  0.88406126  1
  N  N39  1  0.78302983  0.09014613  0.62152416  1
  N  N40  1  0.56036100  0.20452973  0.37349623  1
  N  N41  1  0.45832646  0.08042096  0.12271519  1
  N  N42  1  0.22331192  0.20140205  0.87978050  1
  N  N43  1  0.11228817  0.09572166  0.62563624  1
  N  N44  1  0.92358278  0.18505961  0.36231187  1
  N  N45  1  0.78140169  0.08911788  0.12729432  1
  N  N46  1  0.55639473  0.20196662  0.87374550  1
  N  N47  1  0.44241985  0.09731859  0.61679752  1
  N  N48  1  0.22442811  0.54067963  0.37380786  1
  N  N49  1  0.11083765  0.42558398  0.12214126  1
  N  N50  1  0.88234308  0.53304326  0.82882579  1
  N  N51  1  0.77764519  0.42530631  0.56446876  1
  N  N52  1  0.57021816  0.53240276  0.30258034  1
  N  N53  1  0.46376121  0.42489718  0.12358592  1
  N  N54  1  0.22247002  0.53404703  0.87711280  1
  N  N55  1  0.12023162  0.41718404  0.62391945  1
  N  N56  1  0.87401277  0.57338704  0.32566384  1
  N  N57  1  0.75324648  0.43478077  0.08892041  1
  N  N58  1  0.55111435  0.54696958  0.82676341  1
  N  N59  1  0.44479687  0.42162166  0.62375993  1
  N  N60  1  0.23290896  0.89217581  0.30427942  1
  N  N61  1  0.09779880  0.75296451  0.12175436  1
  N  N62  1  0.88441857  0.87204495  0.87277153  1
  N  N63  1  0.78306749  0.74813313  0.57918396  1
  N  N64  1  0.59157081  0.85779752  0.35192212  1
  N  N65  1  0.41801423  0.82935297  0.08144441  1
  N  N66  1  0.22180494  0.86853513  0.82406010  1
  N  N67  1  0.10885273  0.75246940  0.62342328  1
  N  N68  1  0.88284118  0.86139283  0.37130038  1
  N  N69  1  0.72830429  0.78226040  0.06553201  1
  N  N70  1  0.54635836  0.86634684  0.81105590  1
  N  N71  1  0.44374588  0.75144256  0.55857459  1
