# generated using pymatgen
data_Al31B5N36
_symmetry_space_group_name_H-M   'P 1'
_cell_length_a   9.15994623
_cell_length_b   9.25429183
_cell_length_c   10.16443599
_cell_angle_alpha   90.78164735
_cell_angle_beta   89.65376271
_cell_angle_gamma   60.19418657
_symmetry_Int_Tables_number   1
_chemical_formula_structural   Al31B5N36
_chemical_formula_sum   'Al31 B5 N36'
_cell_volume   747.49563341
_cell_formula_units_Z   1
loop_
 _symmetry_equiv_pos_site_id
 _symmetry_equiv_pos_as_xyz
  1  'x, y, z'
loop_
 _atom_site_type_symbol
 _atom_site_label
 _atom_site_symmetry_multiplicity
 _atom_site_fract_x
 _atom_site_fract_y
 _atom_site_fract_z
 _atom_site_occupancy
  B  B0  1  0.11524636  0.09721035  0.30984134  1
  B  B1  1  0.58983693  0.48171834  0.16520469  1
  B  B2  1  0.23447155  0.89283307  0.15628416  1
  B  B3  1  0.53586289  0.88682498  0.10881036  1
  B  B4  1  0.77368723  0.75723045  0.40262066  1
  Al  Al5  1  0.22692533  0.19609026  0.08258930  1
  Al  Al6  1  0.78135025  0.09018328  0.81926757  1
  Al  Al7  1  0.89973461  0.19186558  0.56312335  1
  Al  Al8  1  0.45755664  0.07628270  0.32077718  1
  Al  Al9  1  0.56283923  0.19683126  0.06903529  1
  Al  Al10  1  0.10705425  0.10195108  0.82216781  1
  Al  Al11  1  0.22408075  0.19289724  0.55698350  1
  Al  Al12  1  0.78774320  0.08322076  0.31965764  1
  Al  Al13  1  0.89588237  0.19513355  0.07901784  1
  Al  Al14  1  0.43811647  0.09776482  0.81381875  1
  Al  Al15  1  0.55801963  0.20075205  0.56839728  1
  Al  Al16  1  0.10225166  0.43176953  0.37655191  1
  Al  Al17  1  0.23452320  0.55251159  0.07786664  1
  Al  Al18  1  0.76476548  0.43630864  0.89971711  1
  Al  Al19  1  0.89304735  0.53211156  0.63881671  1
  Al  Al20  1  0.44796404  0.42087642  0.33105666  1
  Al  Al21  1  0.10148927  0.43209750  0.90226023  1
  Al  Al22  1  0.22476318  0.53952184  0.56560810  1
  Al  Al23  1  0.78536060  0.43070052  0.38760580  1
  Al  Al24  1  0.85954430  0.56524039  0.15113835  1
  Al  Al25  1  0.44361335  0.42306858  0.82702371  1
  Al  Al26  1  0.55815711  0.54088157  0.64158466  1
  Al  Al27  1  0.11015124  0.76726188  0.31360641  1
  Al  Al28  1  0.76112633  0.76333291  0.88670335  1
  Al  Al29  1  0.89268748  0.86748744  0.56430190  1
  Al  Al30  1  0.45361316  0.76187962  0.37850755  1
  Al  Al31  1  0.10746436  0.75462449  0.82220063  1
  Al  Al32  1  0.22956234  0.86475621  0.64157950  1
  Al  Al33  1  0.89163407  0.87474815  0.07102099  1
  Al  Al34  1  0.43332067  0.77208271  0.90204028  1
  Al  Al35  1  0.55735233  0.86332586  0.62056235  1
  N  N36  1  0.21688537  0.18681709  0.36427169  1
  N  N37  1  0.11260051  0.09196066  0.14999912  1
  N  N38  1  0.88909442  0.20231875  0.89049865  1
  N  N39  1  0.78163552  0.08919418  0.63061128  1
  N  N40  1  0.56118531  0.20046472  0.38106942  1
  N  N41  1  0.45720417  0.07755217  0.13092511  1
  N  N42  1  0.22429226  0.19985668  0.89271332  1
  N  N43  1  0.11034577  0.09749347  0.63369615  1
  N  N44  1  0.92264547  0.18467983  0.37103534  1
  N  N45  1  0.77957639  0.09148313  0.13489204  1
  N  N46  1  0.55647818  0.20082616  0.88181451  1
  N  N47  1  0.43897081  0.09869550  0.62510057  1
  N  N48  1  0.22535047  0.54677701  0.37377392  1
  N  N49  1  0.09716053  0.44224908  0.09658980  1
  N  N50  1  0.88676821  0.53646584  0.83061264  1
  N  N51  1  0.77610149  0.42578229  0.57419810  1
  N  N52  1  0.56968843  0.53212023  0.31040356  1
  N  N53  1  0.46602341  0.42432215  0.12842571  1
  N  N54  1  0.22511856  0.54066386  0.88862928  1
  N  N55  1  0.10883900  0.42312116  0.57028803  1
  N  N56  1  0.87358100  0.56862982  0.33585801  1
  N  N57  1  0.75183666  0.43841675  0.09558104  1
  N  N58  1  0.55235785  0.54756725  0.83228211  1
  N  N59  1  0.44414287  0.42250473  0.62459657  1
  N  N60  1  0.22902075  0.89209687  0.31572239  1
  N  N61  1  0.12291952  0.77854340  0.12696899  1
  N  N62  1  0.88736928  0.87174443  0.88332869  1
  N  N63  1  0.78155606  0.74635261  0.56571066  1
  N  N64  1  0.58910226  0.85636460  0.36272918  1
  N  N65  1  0.41606721  0.82169407  0.08789593  1
  N  N66  1  0.22273776  0.87096113  0.83069245  1
  N  N67  1  0.10632293  0.75375625  0.63217111  1
  N  N68  1  0.88605768  0.86124286  0.37686394  1
  N  N69  1  0.73014029  0.78206805  0.07734345  1
  N  N70  1  0.55190989  0.86508490  0.81492706  1
  N  N71  1  0.44140275  0.75140270  0.56609206  1
