# generated using pymatgen
data_Al31B5N36
_symmetry_space_group_name_H-M   'P 1'
_cell_length_a   9.16835894
_cell_length_b   9.26100659
_cell_length_c   10.15324879
_cell_angle_alpha   90.80078504
_cell_angle_beta   89.67401448
_cell_angle_gamma   60.20226940
_symmetry_Int_Tables_number   1
_chemical_formula_structural   Al31B5N36
_chemical_formula_sum   'Al31 B5 N36'
_cell_volume   747.96034327
_cell_formula_units_Z   1
loop_
 _symmetry_equiv_pos_site_id
 _symmetry_equiv_pos_as_xyz
  1  'x, y, z'
loop_
 _atom_site_type_symbol
 _atom_site_label
 _atom_site_symmetry_multiplicity
 _atom_site_fract_x
 _atom_site_fract_y
 _atom_site_fract_z
 _atom_site_occupancy
  B  B0  1  0.11528401  0.09709331  0.30979901  1
  B  B1  1  0.58774905  0.48004700  0.16326761  1
  B  B2  1  0.23429079  0.89289328  0.15607050  1
  B  B3  1  0.53575659  0.88683563  0.10865510  1
  B  B4  1  0.77356223  0.75712590  0.40250765  1
  Al  Al5  1  0.22680787  0.19605486  0.08272238  1
  Al  Al6  1  0.78193216  0.08970920  0.81909749  1
  Al  Al7  1  0.89964684  0.19225193  0.56308852  1
  Al  Al8  1  0.45754792  0.07590084  0.32026782  1
  Al  Al9  1  0.56333406  0.19612626  0.07092937  1
  Al  Al10  1  0.10703654  0.10190120  0.82213195  1
  Al  Al11  1  0.22390847  0.19305873  0.55682939  1
  Al  Al12  1  0.78818320  0.08262389  0.31920031  1
  Al  Al13  1  0.89574923  0.19555542  0.07925265  1
  Al  Al14  1  0.43769905  0.09797491  0.81351168  1
  Al  Al15  1  0.55955186  0.19798846  0.56786073  1
  Al  Al16  1  0.10197262  0.43149994  0.37541279  1
  Al  Al17  1  0.23286952  0.55266504  0.08140579  1
  Al  Al18  1  0.76609060  0.43627439  0.89976538  1
  Al  Al19  1  0.89258166  0.53225052  0.63844418  1
  Al  Al20  1  0.45087943  0.42341108  0.35998129  1
  Al  Al21  1  0.10119836  0.43197919  0.90219715  1
  Al  Al22  1  0.22121828  0.54133071  0.56526515  1
  Al  Al23  1  0.78508160  0.43059416  0.38691892  1
  Al  Al24  1  0.85887579  0.56534581  0.15104138  1
  Al  Al25  1  0.44790016  0.42496326  0.85365272  1
  Al  Al26  1  0.55717009  0.53964241  0.64057730  1
  Al  Al27  1  0.10982180  0.76756546  0.31319153  1
  Al  Al28  1  0.76112035  0.76357479  0.88659501  1
  Al  Al29  1  0.89254385  0.86767998  0.56412136  1
  Al  Al30  1  0.45355731  0.76173920  0.37798629  1
  Al  Al31  1  0.10752096  0.75477849  0.82216746  1
  Al  Al32  1  0.22978735  0.86479833  0.64124963  1
  Al  Al33  1  0.89165543  0.87485414  0.07085290  1
  Al  Al34  1  0.43307863  0.77324840  0.90197812  1
  Al  Al35  1  0.55729244  0.86323282  0.62031922  1
  N  N36  1  0.21683477  0.18666046  0.36412175  1
  N  N37  1  0.11263387  0.09185125  0.14984259  1
  N  N38  1  0.88898428  0.20245713  0.89027446  1
  N  N39  1  0.78196132  0.08910945  0.63071987  1
  N  N40  1  0.56316132  0.19629610  0.37933172  1
  N  N41  1  0.45699322  0.07728580  0.13058819  1
  N  N42  1  0.22420780  0.19992247  0.89262765  1
  N  N43  1  0.11036403  0.09748715  0.63360391  1
  N  N44  1  0.92262148  0.18457484  0.37091307  1
  N  N45  1  0.78017743  0.09123746  0.13463585  1
  N  N46  1  0.55777485  0.19811778  0.88166925  1
  N  N47  1  0.43870859  0.09890156  0.62516940  1
  N  N48  1  0.22276625  0.54730478  0.37062769  1
  N  N49  1  0.09640777  0.44212621  0.09659873  1
  N  N50  1  0.88667203  0.53677737  0.83045327  1
  N  N51  1  0.77623438  0.42601222  0.57418099  1
  N  N52  1  0.56813088  0.53014605  0.30913032  1
  N  N53  1  0.46770406  0.42743434  0.11299643  1
  N  N54  1  0.22340184  0.54125912  0.88836875  1
  N  N55  1  0.10834892  0.42313027  0.57024630  1
  N  N56  1  0.87294406  0.56865511  0.33586532  1
  N  N57  1  0.75212466  0.43841011  0.09576356  1
  N  N58  1  0.55297410  0.54720635  0.83095193  1
  N  N59  1  0.44712295  0.42484975  0.59957514  1
  N  N60  1  0.22898261  0.89205043  0.31567050  1
  N  N61  1  0.12223523  0.77944588  0.12663486  1
  N  N62  1  0.88755393  0.87155875  0.88304590  1
  N  N63  1  0.78148659  0.74665028  0.56575336  1
  N  N64  1  0.58905110  0.85584143  0.36245832  1
  N  N65  1  0.41597542  0.82189182  0.08769134  1
  N  N66  1  0.22286985  0.87087545  0.83064843  1
  N  N67  1  0.10595476  0.75443008  0.63224296  1
  N  N68  1  0.88616648  0.86103842  0.37673109  1
  N  N69  1  0.73002951  0.78222298  0.07722126  1
  N  N70  1  0.55190809  0.86512894  0.81485252  1
  N  N71  1  0.44156372  0.75173499  0.56613899  1
