# generated using pymatgen
data_Al31B5N36
_symmetry_space_group_name_H-M   'P 1'
_cell_length_a   9.15168335
_cell_length_b   9.22958968
_cell_length_c   9.85602746
_cell_angle_alpha   89.97016967
_cell_angle_beta   90.27461332
_cell_angle_gamma   60.32486014
_symmetry_Int_Tables_number   1
_chemical_formula_structural   Al31B5N36
_chemical_formula_sum   'Al31 B5 N36'
_cell_volume   723.30405103
_cell_formula_units_Z   1
loop_
 _symmetry_equiv_pos_site_id
 _symmetry_equiv_pos_as_xyz
  1  'x, y, z'
loop_
 _atom_site_type_symbol
 _atom_site_label
 _atom_site_symmetry_multiplicity
 _atom_site_fract_x
 _atom_site_fract_y
 _atom_site_fract_z
 _atom_site_occupancy
  B  B0  1  0.11288047  0.08867929  0.30663066  1
  B  B1  1  0.58840151  0.47317580  0.05007465  1
  B  B2  1  0.21336689  0.88922126  0.07143891  1
  B  B3  1  0.54576292  0.88695759  0.07633924  1
  B  B4  1  0.76668592  0.76696562  0.30662888  1
  Al  Al5  1  0.22383332  0.19901209  0.06916231  1
  Al  Al6  1  0.78129358  0.08979749  0.80986782  1
  Al  Al7  1  0.89544046  0.20279484  0.55803219  1
  Al  Al8  1  0.44825586  0.08599367  0.31278584  1
  Al  Al9  1  0.56108321  0.19379313  0.05825876  1
  Al  Al10  1  0.11568476  0.09078683  0.81836762  1
  Al  Al11  1  0.21963933  0.20236584  0.55722776  1
  Al  Al12  1  0.78175187  0.08772916  0.31227481  1
  Al  Al13  1  0.89456082  0.19484492  0.06515804  1
  Al  Al14  1  0.44446809  0.08740024  0.81362093  1
  Al  Al15  1  0.55527300  0.20636589  0.56209143  1
  Al  Al16  1  0.10502677  0.43182669  0.31083677  1
  Al  Al17  1  0.22891133  0.54656181  0.06053793  1
  Al  Al18  1  0.78003528  0.42551418  0.81372895  1
  Al  Al19  1  0.88401297  0.54498316  0.55622430  1
  Al  Al20  1  0.44902740  0.42826075  0.30739314  1
  Al  Al21  1  0.11013239  0.42808516  0.81278213  1
  Al  Al22  1  0.22385954  0.54152037  0.56222227  1
  Al  Al23  1  0.77598061  0.42934046  0.30814877  1
  Al  Al24  1  0.87237919  0.54895334  0.06686563  1
  Al  Al25  1  0.44571360  0.42572599  0.81387250  1
  Al  Al26  1  0.55303473  0.54459472  0.55935106  1
  Al  Al27  1  0.10958283  0.76819369  0.30954649  1
  Al  Al28  1  0.77433583  0.76163578  0.81685310  1
  Al  Al29  1  0.88818823  0.86772553  0.55710260  1
  Al  Al30  1  0.44395679  0.76911909  0.30577003  1
  Al  Al31  1  0.11372748  0.76572002  0.81794171  1
  Al  Al32  1  0.22381516  0.87699972  0.55918264  1
  Al  Al33  1  0.88778472  0.86941049  0.06814462  1
  Al  Al34  1  0.44756152  0.75755545  0.91417131  1
  Al  Al35  1  0.55845686  0.86729790  0.56020220  1
  N  N36  1  0.20974688  0.19392281  0.36002297  1
  N  N37  1  0.11691293  0.07801415  0.13666870  1
  N  N38  1  0.89100713  0.20297208  0.87387852  1
  N  N39  1  0.78154307  0.09122126  0.61572179  1
  N  N40  1  0.55449685  0.20743733  0.36929115  1
  N  N41  1  0.45477851  0.07694727  0.12057533  1
  N  N42  1  0.22252189  0.20672172  0.87687544  1
  N  N43  1  0.11255249  0.09299879  0.62868040  1
  N  N44  1  0.91322358  0.19459696  0.36111395  1
  N  N45  1  0.77919601  0.08969306  0.12270268  1
  N  N46  1  0.55703194  0.20160707  0.86803416  1
  N  N47  1  0.44429729  0.09218655  0.61901260  1
  N  N48  1  0.22465255  0.54080519  0.36734331  1
  N  N49  1  0.10930054  0.43290969  0.11966326  1
  N  N50  1  0.88692449  0.54016772  0.87572752  1
  N  N51  1  0.77865395  0.42608514  0.61987400  1
  N  N52  1  0.55432032  0.54227350  0.36668189  1
  N  N53  1  0.46538224  0.42629624  0.11225169  1
  N  N54  1  0.22312118  0.54099984  0.87038136  1
  N  N55  1  0.11050538  0.42718499  0.61626549  1
  N  N56  1  0.87291601  0.56423244  0.35865373  1
  N  N57  1  0.75646568  0.42749879  0.11441023  1
  N  N58  1  0.56446753  0.52175670  0.90132583  1
  N  N59  1  0.44762118  0.42757543  0.62351032  1
  N  N60  1  0.20723153  0.90136023  0.36472316  1
  N  N61  1  0.12735105  0.77402302  0.11906387  1
  N  N62  1  0.88980319  0.86982693  0.87616508  1
  N  N63  1  0.77833935  0.76039872  0.62675618  1
  N  N64  1  0.58133521  0.86080682  0.36658572  1
  N  N65  1  0.42578487  0.80262237  0.11108368  1
  N  N66  1  0.21395704  0.88100152  0.90574779  1
  N  N67  1  0.11157705  0.76450569  0.62218061  1
  N  N68  1  0.87781582  0.85709170  0.36053999  1
  N  N69  1  0.74808944  0.77457266  0.13781841  1
  N  N70  1  0.56054506  0.87479002  0.89842622  1
  N  N71  1  0.44369295  0.76169115  0.60923959  1
