# generated using pymatgen
data_Al31B5N36
_symmetry_space_group_name_H-M   'P 1'
_cell_length_a   9.12437641
_cell_length_b   9.23370454
_cell_length_c   10.19536219
_cell_angle_alpha   90.30941099
_cell_angle_beta   89.73302475
_cell_angle_gamma   60.26142224
_symmetry_Int_Tables_number   1
_chemical_formula_structural   Al31B5N36
_chemical_formula_sum   'Al31 B5 N36'
_cell_volume   745.81075713
_cell_formula_units_Z   1
loop_
 _symmetry_equiv_pos_site_id
 _symmetry_equiv_pos_as_xyz
  1  'x, y, z'
loop_
 _atom_site_type_symbol
 _atom_site_label
 _atom_site_symmetry_multiplicity
 _atom_site_fract_x
 _atom_site_fract_y
 _atom_site_fract_z
 _atom_site_occupancy
  B  B0  1  0.11430511  0.09728824  0.30175946  1
  B  B1  1  0.58826303  0.48504309  0.15427369  1
  B  B2  1  0.23657755  0.89047131  0.14711643  1
  B  B3  1  0.54070050  0.88445091  0.09788711  1
  B  B4  1  0.77790260  0.76473097  0.35594884  1
  Al  Al5  1  0.22455780  0.20159950  0.06690219  1
  Al  Al6  1  0.78151541  0.08851730  0.80949687  1
  Al  Al7  1  0.90135007  0.19009126  0.55168322  1
  Al  Al8  1  0.45419701  0.08102388  0.31355749  1
  Al  Al9  1  0.56196009  0.19580186  0.05902916  1
  Al  Al10  1  0.10920820  0.09758629  0.81230184  1
  Al  Al11  1  0.22063792  0.20159967  0.55256987  1
  Al  Al12  1  0.78481417  0.08359027  0.30943224  1
  Al  Al13  1  0.89852479  0.18840982  0.07019827  1
  Al  Al14  1  0.43883506  0.09690691  0.80764279  1
  Al  Al15  1  0.55780278  0.20317888  0.55895558  1
  Al  Al16  1  0.10745587  0.43283180  0.30770622  1
  Al  Al17  1  0.23101022  0.54972787  0.06118141  1
  Al  Al18  1  0.76334632  0.42721535  0.89090258  1
  Al  Al19  1  0.89295618  0.54104758  0.56242815  1
  Al  Al20  1  0.44395686  0.42205581  0.31077836  1
  Al  Al21  1  0.10816237  0.42403540  0.81384546  1
  Al  Al22  1  0.22570637  0.53499608  0.55948434  1
  Al  Al23  1  0.78314091  0.42758777  0.36928006  1
  Al  Al24  1  0.87007526  0.55703779  0.06967718  1
  Al  Al25  1  0.44182738  0.42175782  0.81109420  1
  Al  Al26  1  0.56274391  0.53890659  0.63359621  1
  Al  Al27  1  0.11266316  0.76402614  0.30667440  1
  Al  Al28  1  0.77553556  0.75563191  0.82164835  1
  Al  Al29  1  0.88978118  0.86553136  0.56160939  1
  Al  Al30  1  0.45586359  0.76121218  0.37181373  1
  Al  Al31  1  0.10873788  0.75418175  0.81099772  1
  Al  Al32  1  0.23267199  0.86393425  0.63062473  1
  Al  Al33  1  0.88404925  0.87121553  0.05914089  1
  Al  Al34  1  0.43621147  0.76871591  0.89621883  1
  Al  Al35  1  0.55531298  0.86565888  0.61803855  1
  N  N36  1  0.21107320  0.19652446  0.36121339  1
  N  N37  1  0.11616777  0.09096437  0.14177672  1
  N  N38  1  0.89217781  0.19557922  0.88161252  1
  N  N39  1  0.78217471  0.08944554  0.61983839  1
  N  N40  1  0.55959078  0.20481655  0.37195974  1
  N  N41  1  0.45397120  0.07812755  0.12366662  1
  N  N42  1  0.22062089  0.20497443  0.87985918  1
  N  N43  1  0.11160998  0.09667412  0.62369805  1
  N  N44  1  0.92219131  0.18233448  0.35933362  1
  N  N45  1  0.77941008  0.08772227  0.12606337  1
  N  N46  1  0.55673555  0.20155403  0.87294031  1
  N  N47  1  0.43980168  0.09974861  0.61659155  1
  N  N48  1  0.22496290  0.54085903  0.37146219  1
  N  N49  1  0.10801784  0.43747820  0.12263890  1
  N  N50  1  0.88876837  0.53421118  0.87952289  1
  N  N51  1  0.77594113  0.42291799  0.55836068  1
  N  N52  1  0.56606163  0.53719766  0.29812192  1
  N  N53  1  0.46334251  0.42393672  0.12071218  1
  N  N54  1  0.22190143  0.53604448  0.87537598  1
  N  N55  1  0.11369535  0.42180440  0.62168860  1
  N  N56  1  0.87979910  0.57135923  0.36676612  1
  N  N57  1  0.75260608  0.43071408  0.08740643  1
  N  N58  1  0.55313801  0.54521087  0.82260271  1
  N  N59  1  0.44506654  0.42102054  0.62223934  1
  N  N60  1  0.22818022  0.89301713  0.31119836  1
  N  N61  1  0.12346961  0.77503680  0.11987556  1
  N  N62  1  0.88876753  0.87001748  0.87293088  1
  N  N63  1  0.78895958  0.75141065  0.63021008  1
  N  N64  1  0.59398138  0.85827652  0.36431371  1
  N  N65  1  0.41786985  0.81750698  0.08131326  1
  N  N66  1  0.22621559  0.86712624  0.82009141  1
  N  N67  1  0.11012868  0.75344346  0.61856746  1
  N  N68  1  0.88161375  0.85710390  0.36937769  1
  N  N69  1  0.72902620  0.78680065  0.08691410  1
  N  N70  1  0.54399156  0.86928359  0.81387112  1
  N  N71  1  0.44659150  0.74985733  0.55794370  1
