# generated using pymatgen
data_Al31B5N36
_symmetry_space_group_name_H-M   'P 1'
_cell_length_a   9.23637124
_cell_length_b   9.33480042
_cell_length_c   9.70781828
_cell_angle_alpha   90.12406897
_cell_angle_beta   89.69397448
_cell_angle_gamma   60.00014602
_symmetry_Int_Tables_number   1
_chemical_formula_structural   Al31B5N36
_chemical_formula_sum   'Al31 B5 N36'
_cell_volume   724.84702385
_cell_formula_units_Z   1
loop_
 _symmetry_equiv_pos_site_id
 _symmetry_equiv_pos_as_xyz
  1  'x, y, z'
loop_
 _atom_site_type_symbol
 _atom_site_label
 _atom_site_symmetry_multiplicity
 _atom_site_fract_x
 _atom_site_fract_y
 _atom_site_fract_z
 _atom_site_occupancy
  B  B0  1  0.11073399  0.09880652  0.40198445  1
  B  B1  1  0.58630929  0.47845134  0.16778571  1
  B  B2  1  0.24722184  0.91577111  0.17098013  1
  B  B3  1  0.55506954  0.87741241  0.16373847  1
  B  B4  1  0.77906777  0.75863285  0.39936752  1
  Al  Al5  1  0.22457919  0.20022692  0.15647176  1
  Al  Al6  1  0.78129040  0.08908165  0.89843534  1
  Al  Al7  1  0.89316518  0.20265864  0.64564777  1
  Al  Al8  1  0.44932624  0.08490690  0.37414185  1
  Al  Al9  1  0.56334254  0.19768139  0.14946164  1
  Al  Al10  1  0.11712466  0.08649994  0.90070760  1
  Al  Al11  1  0.21547185  0.20676332  0.63290040  1
  Al  Al12  1  0.78869217  0.08363541  0.39828213  1
  Al  Al13  1  0.90187437  0.18978754  0.15556887  1
  Al  Al14  1  0.44445925  0.09303014  0.84797405  1
  Al  Al15  1  0.55781114  0.20724408  0.62903045  1
  Al  Al16  1  0.10439212  0.43401988  0.39826128  1
  Al  Al17  1  0.22363283  0.54113420  0.14771788  1
  Al  Al18  1  0.77252447  0.42815494  0.90326816  1
  Al  Al19  1  0.88471301  0.54314751  0.64669078  1
  Al  Al20  1  0.44522247  0.42875854  0.39626082  1
  Al  Al21  1  0.10951713  0.42666314  0.89909333  1
  Al  Al22  1  0.22200354  0.54183647  0.64860601  1
  Al  Al23  1  0.78593735  0.42562609  0.39807024  1
  Al  Al24  1  0.86976690  0.55124545  0.15336476  1
  Al  Al25  1  0.44833128  0.43067019  0.90266790  1
  Al  Al26  1  0.55311167  0.54453500  0.65147687  1
  Al  Al27  1  0.10986027  0.76602733  0.38435634  1
  Al  Al28  1  0.76637597  0.76598821  0.90117179  1
  Al  Al29  1  0.88960826  0.86716540  0.64057403  1
  Al  Al30  1  0.45291673  0.75703527  0.37062232  1
  Al  Al31  1  0.10911879  0.76147862  0.90458847  1
  Al  Al32  1  0.22556807  0.86959974  0.63992271  1
  Al  Al33  1  0.88007989  0.86367879  0.15119326  1
  Al  Al34  1  0.43848464  0.77148245  0.91968850  1
  Al  Al35  1  0.55646098  0.86355188  0.63144665  1
  N  N36  1  0.20410039  0.19989950  0.35391714  1
  N  N37  1  0.12663628  0.07543829  0.09625291  1
  N  N38  1  0.89209197  0.20439871  0.84362056  1
  N  N39  1  0.78416969  0.09010400  0.59108615  1
  N  N40  1  0.56238308  0.20565623  0.35032728  1
  N  N41  1  0.45698139  0.07519553  0.13604179  1
  N  N42  1  0.21519301  0.20639836  0.83337488  1
  N  N43  1  0.11261162  0.08906935  0.56771270  1
  N  N44  1  0.91681058  0.19153479  0.34936245  1
  N  N45  1  0.78599725  0.08608736  0.09499990  1
  N  N46  1  0.55623045  0.20848127  0.84636582  1
  N  N47  1  0.44526895  0.09172365  0.59509456  1
  N  N48  1  0.22455735  0.53738840  0.33996342  1
  N  N49  1  0.10726583  0.42226077  0.09578042  1
  N  N50  1  0.88356141  0.54168715  0.84494950  1
  N  N51  1  0.77736460  0.42643270  0.59152724  1
  N  N52  1  0.56595744  0.52412124  0.31825300  1
  N  N53  1  0.46549267  0.43095034  0.10184113  1
  N  N54  1  0.22449082  0.53674809  0.84486997  1
  N  N55  1  0.10893010  0.43180678  0.59182178  1
  N  N56  1  0.87602778  0.56355008  0.34703472  1
  N  N57  1  0.75840385  0.42536013  0.10406748  1
  N  N58  1  0.55067241  0.54965475  0.84688926  1
  N  N59  1  0.44567301  0.43181242  0.58961948  1
  N  N60  1  0.21458495  0.90457291  0.32659581  1
  N  N61  1  0.09990516  0.75489986  0.09393688  1
  N  N62  1  0.88583297  0.86785824  0.83671256  1
  N  N63  1  0.77798188  0.75877942  0.56684812  1
  N  N64  1  0.58724371  0.85349129  0.33528636  1
  N  N65  1  0.42387052  0.81498019  0.11699600  1
  N  N66  1  0.22313555  0.86960192  0.83667459  1
  N  N67  1  0.11373193  0.76038090  0.58180447  1
  N  N68  1  0.87698077  0.85717954  0.34655157  1
  N  N69  1  0.73939180  0.77533333  0.09439936  1
  N  N70  1  0.55221289  0.86732878  0.82867677  1
  N  N71  1  0.44579521  0.75415286  0.57007897  1
