# generated using pymatgen
data_Al31B5N36
_symmetry_space_group_name_H-M   'P 1'
_cell_length_a   9.16093802
_cell_length_b   9.24123558
_cell_length_c   9.76851154
_cell_angle_alpha   90.22907611
_cell_angle_beta   90.01670219
_cell_angle_gamma   60.22566144
_symmetry_Int_Tables_number   1
_chemical_formula_structural   Al31B5N36
_chemical_formula_sum   'Al31 B5 N36'
_cell_volume   717.80714642
_cell_formula_units_Z   1
loop_
 _symmetry_equiv_pos_site_id
 _symmetry_equiv_pos_as_xyz
  1  'x, y, z'
loop_
 _atom_site_type_symbol
 _atom_site_label
 _atom_site_symmetry_multiplicity
 _atom_site_fract_x
 _atom_site_fract_y
 _atom_site_fract_z
 _atom_site_occupancy
  B  B0  1  0.11230476  0.09454359  0.40421795  1
  B  B1  1  0.58296791  0.48555308  0.17125006  1
  B  B2  1  0.22835025  0.89404258  0.16575885  1
  B  B3  1  0.55193099  0.87499902  0.16362663  1
  B  B4  1  0.77802508  0.76106397  0.40213436  1
  Al  Al5  1  0.22379569  0.19714009  0.15981071  1
  Al  Al6  1  0.78133712  0.09057947  0.90401330  1
  Al  Al7  1  0.89360650  0.20269501  0.64868651  1
  Al  Al8  1  0.44689537  0.08511662  0.39963637  1
  Al  Al9  1  0.56151430  0.19777703  0.15653090  1
  Al  Al10  1  0.11574160  0.08805336  0.90624586  1
  Al  Al11  1  0.22184963  0.20279328  0.64796763  1
  Al  Al12  1  0.78291476  0.08560919  0.40655164  1
  Al  Al13  1  0.89920684  0.19274131  0.16122763  1
  Al  Al14  1  0.44613193  0.08788569  0.90816151  1
  Al  Al15  1  0.55517038  0.20383308  0.65602427  1
  Al  Al16  1  0.10633837  0.43072911  0.40396851  1
  Al  Al17  1  0.22930984  0.54577249  0.15540023  1
  Al  Al18  1  0.77378857  0.42832355  0.90763446  1
  Al  Al19  1  0.88523920  0.54301169  0.64952400  1
  Al  Al20  1  0.44679282  0.42420189  0.40475540  1
  Al  Al21  1  0.11022097  0.42717560  0.90574343  1
  Al  Al22  1  0.22292111  0.54017817  0.65618990  1
  Al  Al23  1  0.78410169  0.42638124  0.40292684  1
  Al  Al24  1  0.87095499  0.55132942  0.16012058  1
  Al  Al25  1  0.44996039  0.42945517  0.90844962  1
  Al  Al26  1  0.55361844  0.54383351  0.65464786  1
  Al  Al27  1  0.10911930  0.76566022  0.39667179  1
  Al  Al28  1  0.76953893  0.76358064  0.90623789  1
  Al  Al29  1  0.88894482  0.86762695  0.64854503  1
  Al  Al30  1  0.44871074  0.75994077  0.37353100  1
  Al  Al31  1  0.11455353  0.76462860  0.90935972  1
  Al  Al32  1  0.22684472  0.87042782  0.64401067  1
  Al  Al33  1  0.88562627  0.86730597  0.15715900  1
  Al  Al34  1  0.44133512  0.76780804  0.92271203  1
  Al  Al35  1  0.55456137  0.86806936  0.64375985  1
  N  N36  1  0.20819434  0.19566458  0.35340865  1
  N  N37  1  0.12171107  0.07512893  0.09938938  1
  N  N38  1  0.89176673  0.20533758  0.84549020  1
  N  N39  1  0.77902633  0.09161267  0.59824301  1
  N  N40  1  0.55778112  0.20253935  0.34765135  1
  N  N41  1  0.45458109  0.07644549  0.10646485  1
  N  N42  1  0.22205576  0.20424212  0.84504621  1
  N  N43  1  0.11412459  0.08988453  0.57162168  1
  N  N44  1  0.91451446  0.19136830  0.35443313  1
  N  N45  1  0.78337891  0.08827155  0.09822156  1
  N  N46  1  0.55463541  0.20570276  0.85126488  1
  N  N47  1  0.44581783  0.09168124  0.59209038  1
  N  N48  1  0.22489264  0.53796617  0.34614046  1
  N  N49  1  0.10766927  0.42922119  0.10167672  1
  N  N50  1  0.88555530  0.54086702  0.84683823  1
  N  N51  1  0.77694412  0.42651979  0.59430562  1
  N  N52  1  0.56433267  0.52399944  0.32337181  1
  N  N53  1  0.46589270  0.43116931  0.10512538  1
  N  N54  1  0.22438430  0.53929759  0.85266470  1
  N  N55  1  0.11114000  0.42796896  0.59728010  1
  N  N56  1  0.87532725  0.56469013  0.35253908  1
  N  N57  1  0.75797795  0.42812918  0.10807831  1
  N  N58  1  0.55237730  0.54757846  0.84871820  1
  N  N59  1  0.44711336  0.42627809  0.59715686  1
  N  N60  1  0.20894665  0.90031722  0.33221652  1
  N  N61  1  0.12271490  0.77347201  0.10541550  1
  N  N62  1  0.88990844  0.86690916  0.84520513  1
  N  N63  1  0.77517404  0.76134369  0.57088216  1
  N  N64  1  0.58001349  0.86147753  0.33188042  1
  N  N65  1  0.42422214  0.80479619  0.11833797  1
  N  N66  1  0.22580434  0.87145859  0.83868856  1
  N  N67  1  0.11292175  0.75952011  0.59058960  1
  N  N68  1  0.87713871  0.85753705  0.35090900  1
  N  N69  1  0.74537630  0.77411532  0.09843659  1
  N  N70  1  0.55281976  0.87071940  0.83785254  1
  N  N71  1  0.44684908  0.75545831  0.57406885  1
