# generated using pymatgen
data_Al31B5N36
_symmetry_space_group_name_H-M   'P 1'
_cell_length_a   9.18440503
_cell_length_b   9.30630849
_cell_length_c   10.16445072
_cell_angle_alpha   90.32275581
_cell_angle_beta   89.73167334
_cell_angle_gamma   59.84590783
_symmetry_Int_Tables_number   1
_chemical_formula_structural   Al31B5N36
_chemical_formula_sum   'Al31 B5 N36'
_cell_volume   751.17874976
_cell_formula_units_Z   1
loop_
 _symmetry_equiv_pos_site_id
 _symmetry_equiv_pos_as_xyz
  1  'x, y, z'
loop_
 _atom_site_type_symbol
 _atom_site_label
 _atom_site_symmetry_multiplicity
 _atom_site_fract_x
 _atom_site_fract_y
 _atom_site_fract_z
 _atom_site_occupancy
  B  B0  1  0.11190434  0.10294960  0.30470963  1
  B  B1  1  0.58984739  0.47990217  0.15633935  1
  B  B2  1  0.25729125  0.91586105  0.15790779  1
  B  B3  1  0.54400922  0.88940996  0.09696453  1
  B  B4  1  0.77888044  0.76454924  0.35760892  1
  Al  Al5  1  0.22829112  0.20232333  0.06471316  1
  Al  Al6  1  0.78125230  0.08978362  0.80990692  1
  Al  Al7  1  0.90212124  0.19027209  0.55364459  1
  Al  Al8  1  0.45632550  0.08110417  0.31590596  1
  Al  Al9  1  0.56378543  0.19769731  0.05987931  1
  Al  Al10  1  0.10903875  0.09794361  0.81372087  1
  Al  Al11  1  0.22124926  0.20073789  0.55468495  1
  Al  Al12  1  0.78626805  0.08220130  0.31055196  1
  Al  Al13  1  0.90030704  0.18607448  0.07025806  1
  Al  Al14  1  0.44007887  0.09722140  0.80684894  1
  Al  Al15  1  0.55865510  0.20392836  0.55985511  1
  Al  Al16  1  0.10852058  0.43163833  0.30830165  1
  Al  Al17  1  0.22433815  0.54171621  0.06142751  1
  Al  Al18  1  0.76261622  0.42892273  0.89252916  1
  Al  Al19  1  0.89301776  0.54066520  0.56645706  1
  Al  Al20  1  0.44336951  0.42202815  0.31259931  1
  Al  Al21  1  0.10783589  0.42380917  0.81463330  1
  Al  Al22  1  0.22522378  0.53547141  0.56133783  1
  Al  Al23  1  0.78475271  0.42822159  0.37014330  1
  Al  Al24  1  0.87106181  0.55618012  0.07272160  1
  Al  Al25  1  0.44156307  0.42307070  0.81237647  1
  Al  Al26  1  0.56185288  0.53995296  0.63454630  1
  Al  Al27  1  0.10897589  0.76005477  0.29876051  1
  Al  Al28  1  0.77272491  0.75714635  0.82374948  1
  Al  Al29  1  0.89042777  0.86502466  0.56431357  1
  Al  Al30  1  0.45876115  0.75844770  0.37207556  1
  Al  Al31  1  0.10684318  0.75454704  0.81650085  1
  Al  Al32  1  0.23213710  0.86244027  0.63465400  1
  Al  Al33  1  0.87781477  0.86894966  0.05860296  1
  Al  Al34  1  0.43416157  0.77209919  0.89796238  1
  Al  Al35  1  0.55501711  0.86594175  0.61618461  1
  N  N36  1  0.21134994  0.19506898  0.36343397  1
  N  N37  1  0.11938113  0.09583755  0.14231081  1
  N  N38  1  0.89141599  0.19707033  0.88176193  1
  N  N39  1  0.78314063  0.09040464  0.61986707  1
  N  N40  1  0.56058874  0.20445909  0.37245472  1
  N  N41  1  0.45689392  0.08103399  0.12459714  1
  N  N42  1  0.22165293  0.20390175  0.87843877  1
  N  N43  1  0.11323729  0.09515864  0.62482268  1
  N  N44  1  0.92350387  0.18232674  0.36012561  1
  N  N45  1  0.78139880  0.08697551  0.12634049  1
  N  N46  1  0.55626190  0.20250792  0.87294984  1
  N  N47  1  0.44157888  0.10002829  0.61556922  1
  N  N48  1  0.22457002  0.53980791  0.37280142  1
  N  N49  1  0.10933632  0.42654248  0.12313575  1
  N  N50  1  0.88797425  0.53440554  0.88035194  1
  N  N51  1  0.77674496  0.42357564  0.56017463  1
  N  N52  1  0.56698184  0.53452652  0.29982830  1
  N  N53  1  0.46256462  0.42453359  0.12174576  1
  N  N54  1  0.22159022  0.53343293  0.87478712  1
  N  N55  1  0.11461473  0.42103880  0.62248254  1
  N  N56  1  0.87987582  0.57130039  0.36520499  1
  N  N57  1  0.75284074  0.42955622  0.08925365  1
  N  N58  1  0.55100522  0.54745507  0.82519656  1
  N  N59  1  0.44606469  0.42188298  0.62264938  1
  N  N60  1  0.23256601  0.89162014  0.30435270  1
  N  N61  1  0.09424843  0.75278344  0.12017683  1
  N  N62  1  0.88411235  0.87254116  0.87132750  1
  N  N63  1  0.78830571  0.75187504  0.63097454  1
  N  N64  1  0.59447903  0.85719610  0.36565317  1
  N  N65  1  0.41908174  0.82902249  0.08329947  1
  N  N66  1  0.22321686  0.86791407  0.82483487  1
  N  N67  1  0.11053067  0.75301067  0.62207379  1
  N  N68  1  0.88060913  0.85752219  0.37258768  1
  N  N69  1  0.72673322  0.78693104  0.08366234  1
  N  N70  1  0.54106055  0.87021732  0.81312438  1
  N  N71  1  0.44486215  0.75094014  0.55842467  1
