# generated using pymatgen
data_Al31B5N36
_symmetry_space_group_name_H-M   'P 1'
_cell_length_a   9.17317306
_cell_length_b   9.26032246
_cell_length_c   9.76320366
_cell_angle_alpha   90.15534058
_cell_angle_beta   89.93082881
_cell_angle_gamma   60.14348557
_symmetry_Int_Tables_number   1
_chemical_formula_structural   Al31B5N36
_chemical_formula_sum   'Al31 B5 N36'
_cell_volume   719.26893931
_cell_formula_units_Z   1
loop_
 _symmetry_equiv_pos_site_id
 _symmetry_equiv_pos_as_xyz
  1  'x, y, z'
loop_
 _atom_site_type_symbol
 _atom_site_label
 _atom_site_symmetry_multiplicity
 _atom_site_fract_x
 _atom_site_fract_y
 _atom_site_fract_z
 _atom_site_occupancy
  B  B0  1  0.11135451  0.10200873  0.38712419  1
  B  B1  1  0.58297446  0.48880159  0.15393700  1
  B  B2  1  0.23528473  0.90912601  0.15200777  1
  B  B3  1  0.55217001  0.88175256  0.14592190  1
  B  B4  1  0.77704073  0.76762097  0.38448988  1
  Al  Al5  1  0.22302966  0.20503044  0.14205932  1
  Al  Al6  1  0.78042254  0.09621847  0.88585177  1
  Al  Al7  1  0.89254546  0.20886611  0.63099933  1
  Al  Al8  1  0.44613607  0.09166699  0.38185293  1
  Al  Al9  1  0.56088940  0.20412328  0.13845314  1
  Al  Al10  1  0.11514911  0.09353034  0.88839411  1
  Al  Al11  1  0.22088425  0.20914271  0.63013953  1
  Al  Al12  1  0.78194293  0.09181315  0.38851959  1
  Al  Al13  1  0.89868474  0.19774628  0.14354726  1
  Al  Al14  1  0.44510620  0.09434479  0.89023346  1
  Al  Al15  1  0.55416265  0.21022652  0.63806087  1
  Al  Al16  1  0.10505418  0.43746498  0.38620808  1
  Al  Al17  1  0.22613280  0.55073943  0.13688294  1
  Al  Al18  1  0.77257281  0.43433773  0.88989427  1
  Al  Al19  1  0.88403417  0.54933570  0.63178691  1
  Al  Al20  1  0.44559025  0.43042101  0.38667254  1
  Al  Al21  1  0.10910372  0.43304031  0.88744243  1
  Al  Al22  1  0.22176169  0.54659862  0.63745459  1
  Al  Al23  1  0.78346877  0.43242046  0.38511626  1
  Al  Al24  1  0.86955970  0.55738053  0.14196831  1
  Al  Al25  1  0.44842984  0.43582351  0.89032713  1
  Al  Al26  1  0.55251267  0.55001247  0.63707847  1
  Al  Al27  1  0.10840207  0.77207438  0.37633147  1
  Al  Al28  1  0.76796843  0.76998280  0.88807871  1
  Al  Al29  1  0.88791249  0.87393574  0.62962787  1
  Al  Al30  1  0.44951540  0.76545444  0.35681878  1
  Al  Al31  1  0.11157617  0.76944708  0.89179901  1
  Al  Al32  1  0.22547406  0.87643472  0.62642701  1
  Al  Al33  1  0.88328559  0.87213599  0.13864069  1
  Al  Al34  1  0.43920963  0.77473431  0.90499497  1
  Al  Al35  1  0.55344790  0.87453730  0.62608473  1
  N  N36  1  0.20721157  0.20248652  0.33589068  1
  N  N37  1  0.12212095  0.08155700  0.08241197  1
  N  N38  1  0.89095509  0.21123574  0.82819131  1
  N  N39  1  0.77807349  0.09822887  0.58021155  1
  N  N40  1  0.55688171  0.20893624  0.32974448  1
  N  N41  1  0.45382426  0.08370465  0.08877176  1
  N  N42  1  0.22096182  0.20992819  0.82717940  1
  N  N43  1  0.11334942  0.09620782  0.55405811  1
  N  N44  1  0.91398110  0.19744740  0.33676420  1
  N  N45  1  0.78276618  0.09399225  0.08033344  1
  N  N46  1  0.55356908  0.21204771  0.83339293  1
  N  N47  1  0.44497932  0.09808172  0.57436479  1
  N  N48  1  0.22394959  0.54378991  0.32809709  1
  N  N49  1  0.10603098  0.43347304  0.08347052  1
  N  N50  1  0.88407612  0.54704954  0.82929006  1
  N  N51  1  0.77602774  0.43276108  0.57671371  1
  N  N52  1  0.56346349  0.52996810  0.30541071  1
  N  N53  1  0.46459721  0.43750248  0.08738828  1
  N  N54  1  0.22344827  0.54446680  0.83348861  1
  N  N55  1  0.10995757  0.43429867  0.57945981  1
  N  N56  1  0.87414273  0.57102515  0.33454568  1
  N  N57  1  0.75690458  0.43352362  0.09050009  1
  N  N58  1  0.55093972  0.55416460  0.83147676  1
  N  N59  1  0.44638401  0.43264198  0.57911236  1
  N  N60  1  0.21018758  0.90782971  0.31387390  1
  N  N61  1  0.11290793  0.77295031  0.08484703  1
  N  N62  1  0.88747556  0.87336804  0.82572132  1
  N  N63  1  0.77409536  0.76753516  0.55299442  1
  N  N64  1  0.57936351  0.86798377  0.31441595  1
  N  N65  1  0.42223918  0.81546064  0.10114083  1
  N  N66  1  0.22363407  0.87689993  0.82154861  1
  N  N67  1  0.11218165  0.76603539  0.57113320  1
  N  N68  1  0.87568860  0.86420844  0.33309113  1
  N  N69  1  0.74233472  0.78049900  0.08055871  1
  N  N70  1  0.55094315  0.87715260  0.82018402  1
  N  N71  1  0.44600245  0.76174496  0.55673274  1
