# generated using pymatgen
data_Al31B5N36
_symmetry_space_group_name_H-M   'P 1'
_cell_length_a   9.13208335
_cell_length_b   9.16361037
_cell_length_c   10.36840622
_cell_angle_alpha   91.51570073
_cell_angle_beta   90.44089502
_cell_angle_gamma   60.24768587
_symmetry_Int_Tables_number   1
_chemical_formula_structural   Al31B5N36
_chemical_formula_sum   'Al31 B5 N36'
_cell_volume   753.00379215
_cell_formula_units_Z   1
loop_
 _symmetry_equiv_pos_site_id
 _symmetry_equiv_pos_as_xyz
  1  'x, y, z'
loop_
 _atom_site_type_symbol
 _atom_site_label
 _atom_site_symmetry_multiplicity
 _atom_site_fract_x
 _atom_site_fract_y
 _atom_site_fract_z
 _atom_site_occupancy
  B  B0  1  0.11998807  0.08097477  0.35378777  1
  B  B1  1  0.58477990  0.48021879  0.15922742  1
  B  B2  1  0.22649863  0.89329483  0.09736400  1
  B  B3  1  0.53664971  0.88403879  0.09755814  1
  B  B4  1  0.77318795  0.76320171  0.35770783  1
  Al  Al5  1  0.22579642  0.19468147  0.07223728  1
  Al  Al6  1  0.77905964  0.09251607  0.81787412  1
  Al  Al7  1  0.89719323  0.19346515  0.56530500  1
  Al  Al8  1  0.45287772  0.07667978  0.31818622  1
  Al  Al9  1  0.56255202  0.19137378  0.07201256  1
  Al  Al10  1  0.10673341  0.10449965  0.82212184  1
  Al  Al11  1  0.22469733  0.19621649  0.56169877  1
  Al  Al12  1  0.78712307  0.07960094  0.31759193  1
  Al  Al13  1  0.89614537  0.18836231  0.07217575  1
  Al  Al14  1  0.43687243  0.10600345  0.81447582  1
  Al  Al15  1  0.55926302  0.19845063  0.56424407  1
  Al  Al16  1  0.10371563  0.43732982  0.38338575  1
  Al  Al17  1  0.22899745  0.55545208  0.14368744  1
  Al  Al18  1  0.76791031  0.43562108  0.90050775  1
  Al  Al19  1  0.89761348  0.52163008  0.64251688  1
  Al  Al20  1  0.44453793  0.43022119  0.38747827  1
  Al  Al21  1  0.10630994  0.43787469  0.89853730  1
  Al  Al22  1  0.22269518  0.53776899  0.64090138  1
  Al  Al23  1  0.78265904  0.43113895  0.38345688  1
  Al  Al24  1  0.86071957  0.56211510  0.14254079  1
  Al  Al25  1  0.44712189  0.43540113  0.89646326  1
  Al  Al26  1  0.55743331  0.53740699  0.64157743  1
  Al  Al27  1  0.11564262  0.76391144  0.39140318  1
  Al  Al28  1  0.77676278  0.76128858  0.82785362  1
  Al  Al29  1  0.88182720  0.86640695  0.57027066  1
  Al  Al30  1  0.44938947  0.76198323  0.38490041  1
  Al  Al31  1  0.12269547  0.76296927  0.88954306  1
  Al  Al32  1  0.22623342  0.86681316  0.63468183  1
  Al  Al33  1  0.87673764  0.87282951  0.06531377  1
  Al  Al34  1  0.44089989  0.77161243  0.89108086  1
  Al  Al35  1  0.55595268  0.86584649  0.63037762  1
  N  N36  1  0.21377580  0.18387525  0.37174224  1
  N  N37  1  0.12026293  0.07462906  0.11015912  1
  N  N38  1  0.88760292  0.20186030  0.88742098  1
  N  N39  1  0.77891305  0.09217840  0.63159118  1
  N  N40  1  0.56188552  0.19513649  0.37820926  1
  N  N41  1  0.45237685  0.07676016  0.13195497  1
  N  N42  1  0.22563782  0.20479395  0.88836581  1
  N  N43  1  0.10723919  0.10540851  0.63726063  1
  N  N44  1  0.92400664  0.17965377  0.37544904  1
  N  N45  1  0.77959531  0.08831281  0.13726780  1
  N  N46  1  0.55892953  0.20026844  0.88717638  1
  N  N47  1  0.43935270  0.10372435  0.62821566  1
  N  N48  1  0.22496461  0.54079439  0.32474662  1
  N  N49  1  0.09812739  0.45033750  0.08536945  1
  N  N50  1  0.89286869  0.52379285  0.83003514  1
  N  N51  1  0.77416016  0.42889469  0.56780497  1
  N  N52  1  0.56367436  0.52499796  0.30481169  1
  N  N53  1  0.46320418  0.43559610  0.09090685  1
  N  N54  1  0.22577418  0.53624783  0.82946645  1
  N  N55  1  0.11092810  0.43085153  0.56866327  1
  N  N56  1  0.87383854  0.56864266  0.32990008  1
  N  N57  1  0.75195182  0.43441587  0.09490051  1
  N  N58  1  0.55502704  0.54205627  0.82784637  1
  N  N59  1  0.44270222  0.43332522  0.57401394  1
  N  N60  1  0.21346436  0.89739778  0.35792148  1
  N  N61  1  0.13773618  0.77819104  0.07866658  1
  N  N62  1  0.88902212  0.87310226  0.88249515  1
  N  N63  1  0.78794824  0.75281279  0.63670969  1
  N  N64  1  0.59019317  0.85268888  0.36523373  1
  N  N65  1  0.41752311  0.81535053  0.07304416  1
  N  N66  1  0.22609578  0.86820824  0.81929635  1
  N  N67  1  0.11454369  0.75652786  0.57633007  1
  N  N68  1  0.87442697  0.85495306  0.37775304  1
  N  N69  1  0.72662791  0.78274609  0.08467649  1
  N  N70  1  0.54601848  0.87503864  0.81979545  1
  N  N71  1  0.44764604  0.75192635  0.57065970  1
