# generated using pymatgen
data_Al31B5N36
_symmetry_space_group_name_H-M   'P 1'
_cell_length_a   9.19623984
_cell_length_b   9.29187045
_cell_length_c   9.75385515
_cell_angle_alpha   90.02694794
_cell_angle_beta   89.78814672
_cell_angle_gamma   59.97421567
_symmetry_Int_Tables_number   1
_chemical_formula_structural   Al31B5N36
_chemical_formula_sum   'Al31 B5 N36'
_cell_volume   721.61066418
_cell_formula_units_Z   1
loop_
 _symmetry_equiv_pos_site_id
 _symmetry_equiv_pos_as_xyz
  1  'x, y, z'
loop_
 _atom_site_type_symbol
 _atom_site_label
 _atom_site_symmetry_multiplicity
 _atom_site_fract_x
 _atom_site_fract_y
 _atom_site_fract_z
 _atom_site_occupancy
  B  B0  1  0.11260256  0.09740499  0.39636603  1
  B  B1  1  0.58493066  0.47959369  0.16251621  1
  B  B2  1  0.24547099  0.91391378  0.16524210  1
  B  B3  1  0.55504689  0.87589157  0.15428034  1
  B  B4  1  0.77795012  0.76190243  0.39294865  1
  Al  Al5  1  0.22470816  0.20057995  0.15033911  1
  Al  Al6  1  0.78169690  0.08913848  0.89331435  1
  Al  Al7  1  0.89362365  0.20265303  0.63931768  1
  Al  Al8  1  0.44783661  0.08609666  0.39001354  1
  Al  Al9  1  0.56251562  0.19840325  0.14605965  1
  Al  Al10  1  0.11681016  0.08621608  0.89650355  1
  Al  Al11  1  0.22215008  0.20309909  0.63819600  1
  Al  Al12  1  0.78317447  0.08588601  0.39631811  1
  Al  Al13  1  0.90062519  0.18979682  0.15178217  1
  Al  Al14  1  0.44615988  0.08854377  0.89820425  1
  Al  Al15  1  0.55532255  0.20440932  0.64592079  1
  Al  Al16  1  0.10562116  0.43194124  0.39441259  1
  Al  Al17  1  0.22443423  0.54159133  0.14410587  1
  Al  Al18  1  0.77327417  0.42773753  0.89818952  1
  Al  Al19  1  0.88476602  0.54325795  0.64003693  1
  Al  Al20  1  0.44649332  0.42436556  0.39427013  1
  Al  Al21  1  0.10992554  0.42618510  0.89469332  1
  Al  Al22  1  0.22265974  0.54065293  0.64391448  1
  Al  Al23  1  0.78500663  0.42605083  0.39311445  1
  Al  Al24  1  0.87019719  0.55078798  0.14940873  1
  Al  Al25  1  0.44869892  0.42991769  0.89788163  1
  Al  Al26  1  0.55350309  0.54382831  0.64552754  1
  Al  Al27  1  0.10985312  0.76604431  0.38058802  1
  Al  Al28  1  0.76825248  0.76397209  0.89564386  1
  Al  Al29  1  0.88893312  0.86789586  0.63573418  1
  Al  Al30  1  0.45305691  0.75849181  0.36643505  1
  Al  Al31  1  0.10964385  0.76106747  0.89957238  1
  Al  Al32  1  0.22605768  0.86988113  0.63480232  1
  Al  Al33  1  0.88062737  0.86464390  0.14631049  1
  Al  Al34  1  0.43884468  0.76949468  0.91330319  1
  Al  Al35  1  0.55434120  0.86882745  0.63444827  1
  N  N36  1  0.20851389  0.19707369  0.34456561  1
  N  N37  1  0.12516663  0.07554211  0.09159571  1
  N  N38  1  0.89228347  0.20447608  0.83701595  1
  N  N39  1  0.77934362  0.09275898  0.58798263  1
  N  N40  1  0.55828450  0.20311392  0.33765959  1
  N  N41  1  0.45542959  0.07917698  0.09710584  1
  N  N42  1  0.22194538  0.20278920  0.83515994  1
  N  N43  1  0.11486965  0.09024884  0.56270955  1
  N  N44  1  0.91586045  0.19107734  0.34510970  1
  N  N45  1  0.78454807  0.08701695  0.08831146  1
  N  N46  1  0.55456472  0.20604369  0.84142929  1
  N  N47  1  0.44648802  0.09233301  0.58263714  1
  N  N48  1  0.22504337  0.53682795  0.33580932  1
  N  N49  1  0.10614240  0.42422777  0.09084838  1
  N  N50  1  0.88433241  0.54070116  0.83781722  1
  N  N51  1  0.77730594  0.42665977  0.58511240  1
  N  N52  1  0.56454809  0.52369105  0.31337041  1
  N  N53  1  0.46515595  0.43160058  0.09553032  1
  N  N54  1  0.22455907  0.53660260  0.83952236  1
  N  N55  1  0.11077087  0.42834358  0.58759153  1
  N  N56  1  0.87493306  0.56500273  0.34231124  1
  N  N57  1  0.75790596  0.42611166  0.09896467  1
  N  N58  1  0.55135116  0.54842621  0.84037305  1
  N  N59  1  0.44794769  0.42681818  0.58679409  1
  N  N60  1  0.21439709  0.90346822  0.32152362  1
  N  N61  1  0.10178363  0.75669368  0.08893688  1
  N  N62  1  0.88637417  0.86749855  0.83123546  1
  N  N63  1  0.77508816  0.76129845  0.56102185  1
  N  N64  1  0.58110178  0.86222756  0.32323614  1
  N  N65  1  0.42349618  0.81458229  0.11011637  1
  N  N66  1  0.22298434  0.86938419  0.83078258  1
  N  N67  1  0.11372836  0.76030481  0.57669770  1
  N  N68  1  0.87597053  0.85877832  0.34137558  1
  N  N69  1  0.74069055  0.77440925  0.08852314  1
  N  N70  1  0.55073108  0.87131540  0.82853826  1
  N  N71  1  0.44741006  0.75581530  0.56570995  1
