# generated using pymatgen
data_Al31B5N36
_symmetry_space_group_name_H-M   'P 1'
_cell_length_a   9.18879669
_cell_length_b   9.28177733
_cell_length_c   9.75706734
_cell_angle_alpha   90.07465387
_cell_angle_beta   89.84010647
_cell_angle_gamma   60.04030913
_symmetry_Int_Tables_number   1
_chemical_formula_structural   Al31B5N36
_chemical_formula_sum   'Al31 B5 N36'
_cell_volume   720.96168692
_cell_formula_units_Z   1
loop_
 _symmetry_equiv_pos_site_id
 _symmetry_equiv_pos_as_xyz
  1  'x, y, z'
loop_
 _atom_site_type_symbol
 _atom_site_label
 _atom_site_symmetry_multiplicity
 _atom_site_fract_x
 _atom_site_fract_y
 _atom_site_fract_z
 _atom_site_occupancy
  B  B0  1  0.11151248  0.10296927  0.38793343  1
  B  B1  1  0.58380766  0.48626574  0.15431923  1
  B  B2  1  0.24232805  0.91721622  0.15589311  1
  B  B3  1  0.55363993  0.88175571  0.14611494  1
  B  B4  1  0.77707882  0.76770825  0.38475306  1
  Al  Al5  1  0.22354639  0.20617151  0.14217795  1
  Al  Al6  1  0.78066684  0.09539236  0.88545322  1
  Al  Al7  1  0.89263166  0.20861878  0.63116264  1
  Al  Al8  1  0.44662590  0.09181999  0.38190751  1
  Al  Al9  1  0.56137973  0.20418072  0.13814154  1
  Al  Al10  1  0.11569506  0.09254176  0.88839087  1
  Al  Al11  1  0.22110508  0.20902675  0.63012821  1
  Al  Al12  1  0.78211620  0.09171210  0.38832634  1
  Al  Al13  1  0.89937823  0.19629148  0.14367051  1
  Al  Al14  1  0.44521864  0.09437998  0.89013927  1
  Al  Al15  1  0.55431538  0.21022224  0.63791268  1
  Al  Al16  1  0.10483191  0.43771233  0.38629540  1
  Al  Al17  1  0.22423472  0.54858309  0.13627553  1
  Al  Al18  1  0.77245971  0.43386414  0.89003387  1
  Al  Al19  1  0.88393325  0.54918812  0.63190280  1
  Al  Al20  1  0.44556823  0.43024170  0.38636243  1
  Al  Al21  1  0.10907837  0.43240613  0.88691020  1
  Al  Al22  1  0.22175768  0.54654314  0.63638290  1
  Al  Al23  1  0.78391565  0.43205024  0.38507425  1
  Al  Al24  1  0.86939620  0.55690756  0.14154903  1
  Al  Al25  1  0.44800440  0.43578665  0.88997804  1
  Al  Al26  1  0.55256146  0.54976459  0.63733340  1
  Al  Al27  1  0.10875732  0.77196222  0.37366752  1
  Al  Al28  1  0.76756967  0.76990852  0.88773922  1
  Al  Al29  1  0.88798773  0.87382111  0.62832936  1
  Al  Al30  1  0.45140229  0.76458689  0.35789201  1
  Al  Al31  1  0.10959626  0.76771115  0.89170648  1
  Al  Al32  1  0.22524123  0.87596236  0.62663745  1
  Al  Al33  1  0.88094469  0.87089284  0.13827466  1
  Al  Al34  1  0.43830734  0.77520451  0.90511863  1
  Al  Al35  1  0.55345158  0.87460230  0.62626444  1
  N  N36  1  0.20743563  0.20281957  0.33627916  1
  N  N37  1  0.12365849  0.08143440  0.08321972  1
  N  N38  1  0.89127003  0.21064090  0.82873048  1
  N  N39  1  0.77827897  0.09848063  0.57999714  1
  N  N40  1  0.55717342  0.20892920  0.32964214  1
  N  N41  1  0.45428252  0.08459973  0.08893310  1
  N  N42  1  0.22102216  0.20908754  0.82711856  1
  N  N43  1  0.11372623  0.09613129  0.55442212  1
  N  N44  1  0.91462392  0.19708298  0.33694611  1
  N  N45  1  0.78332996  0.09323811  0.08027905  1
  N  N46  1  0.55364210  0.21195120  0.83335879  1
  N  N47  1  0.44534316  0.09810499  0.57449029  1
  N  N48  1  0.22410367  0.54304773  0.32786630  1
  N  N49  1  0.10549439  0.43106940  0.08301604  1
  N  N50  1  0.88367465  0.54674570  0.82960198  1
  N  N51  1  0.77626140  0.43258139  0.57694120  1
  N  N52  1  0.56362868  0.52960645  0.30531659  1
  N  N53  1  0.46436881  0.43745268  0.08744407  1
  N  N54  1  0.22364571  0.54309526  0.83206061  1
  N  N55  1  0.10988597  0.43421254  0.57948889  1
  N  N56  1  0.87407571  0.57090357  0.33434508  1
  N  N57  1  0.75697753  0.43244974  0.09077015  1
  N  N58  1  0.55062371  0.55427326  0.83205706  1
  N  N59  1  0.44682049  0.43262018  0.57885262  1
  N  N60  1  0.21254600  0.90893008  0.31348371  1
  N  N61  1  0.10408745  0.76543016  0.08194226  1
  N  N62  1  0.88608748  0.87341738  0.82394109  1
  N  N63  1  0.77414692  0.76726194  0.55295769  1
  N  N64  1  0.57993190  0.86802573  0.31490389  1
  N  N65  1  0.42232615  0.81912346  0.10180150  1
  N  N66  1  0.22257240  0.87579502  0.82233591  1
  N  N67  1  0.11259840  0.76612333  0.56940134  1
  N  N68  1  0.87525222  0.86449634  0.33322086  1
  N  N69  1  0.74046323  0.78036731  0.08049601  1
  N  N70  1  0.55020387  0.87715847  0.82036197  1
  N  N71  1  0.44631703  0.76164914  0.55731558  1
