# generated using pymatgen
data_Al31B5N36
_symmetry_space_group_name_H-M   'P 1'
_cell_length_a   9.16959288
_cell_length_b   9.26128407
_cell_length_c   10.15363970
_cell_angle_alpha   90.81791054
_cell_angle_beta   89.69060097
_cell_angle_gamma   60.20447061
_symmetry_Int_Tables_number   1
_chemical_formula_structural   Al31B5N36
_chemical_formula_sum   'Al31 B5 N36'
_cell_volume   748.12729284
_cell_formula_units_Z   1
loop_
 _symmetry_equiv_pos_site_id
 _symmetry_equiv_pos_as_xyz
  1  'x, y, z'
loop_
 _atom_site_type_symbol
 _atom_site_label
 _atom_site_symmetry_multiplicity
 _atom_site_fract_x
 _atom_site_fract_y
 _atom_site_fract_z
 _atom_site_occupancy
  B  B0  1  0.11530845  0.09705649  0.30981916  1
  B  B1  1  0.58715389  0.47978247  0.16212476  1
  B  B2  1  0.23417839  0.89289504  0.15603215  1
  B  B3  1  0.53572051  0.88673526  0.10863013  1
  B  B4  1  0.77352389  0.75707798  0.40246621  1
  Al  Al5  1  0.22671864  0.19601985  0.08269256  1
  Al  Al6  1  0.78184916  0.08973285  0.81909927  1
  Al  Al7  1  0.89963249  0.19237755  0.56300989  1
  Al  Al8  1  0.45757851  0.07587248  0.32022022  1
  Al  Al9  1  0.56385529  0.19485601  0.07149295  1
  Al  Al10  1  0.10702469  0.10189263  0.82211986  1
  Al  Al11  1  0.22384532  0.19308086  0.55671246  1
  Al  Al12  1  0.78810301  0.08257564  0.31913891  1
  Al  Al13  1  0.89576459  0.19567614  0.07924796  1
  Al  Al14  1  0.43759810  0.09830916  0.81346181  1
  Al  Al15  1  0.56010993  0.19695668  0.56751241  1
  Al  Al16  1  0.10206111  0.43144846  0.37497126  1
  Al  Al17  1  0.23119884  0.55317365  0.08272484  1
  Al  Al18  1  0.76660298  0.43630144  0.89948900  1
  Al  Al19  1  0.89237635  0.53230609  0.63829916  1
  Al  Al20  1  0.45194923  0.42456576  0.37254969  1
  Al  Al21  1  0.10130153  0.43195672  0.90202096  1
  Al  Al22  1  0.21991393  0.54200735  0.56510773  1
  Al  Al23  1  0.78476161  0.43050906  0.38651041  1
  Al  Al24  1  0.85865163  0.56542171  0.15105864  1
  Al  Al25  1  0.45029927  0.42628245  0.86943647  1
  Al  Al26  1  0.55661173  0.53900683  0.64057764  1
  Al  Al27  1  0.10983750  0.76746095  0.31316193  1
  Al  Al28  1  0.76113236  0.76368419  0.88652343  1
  Al  Al29  1  0.89248500  0.86775777  0.56404441  1
  Al  Al30  1  0.45350816  0.76147312  0.37768505  1
  Al  Al31  1  0.10775398  0.75454667  0.82221646  1
  Al  Al32  1  0.22987202  0.86482271  0.64119577  1
  Al  Al33  1  0.89167269  0.87493408  0.07073440  1
  Al  Al34  1  0.43304550  0.77361265  0.90178020  1
  Al  Al35  1  0.55725964  0.86317999  0.62027937  1
  N  N36  1  0.21678821  0.18659650  0.36411366  1
  N  N37  1  0.11263482  0.09182675  0.14981510  1
  N  N38  1  0.88895788  0.20250253  0.89023460  1
  N  N39  1  0.78195462  0.08921388  0.63078612  1
  N  N40  1  0.56356018  0.19530903  0.37839740  1
  N  N41  1  0.45681791  0.07710131  0.13058826  1
  N  N42  1  0.22417227  0.19990440  0.89264341  1
  N  N43  1  0.11035408  0.09752045  0.63359618  1
  N  N44  1  0.92264521  0.18450487  0.37088454  1
  N  N45  1  0.78037872  0.09124133  0.13463020  1
  N  N46  1  0.55813957  0.19726288  0.88168207  1
  N  N47  1  0.43859389  0.09913640  0.62523261  1
  N  N48  1  0.22253384  0.54703581  0.36901751  1
  N  N49  1  0.09601785  0.44206794  0.09659755  1
  N  N50  1  0.88670258  0.53687744  0.83031090  1
  N  N51  1  0.77605801  0.42613609  0.57410354  1
  N  N52  1  0.56708835  0.52864113  0.30798915  1
  N  N53  1  0.46850273  0.42905083  0.10398710  1
  N  N54  1  0.22308003  0.54127832  0.88819867  1
  N  N55  1  0.10826267  0.42315359  0.57026379  1
  N  N56  1  0.87268856  0.56859905  0.33587994  1
  N  N57  1  0.75221567  0.43853084  0.09563502  1
  N  N58  1  0.55296698  0.54675783  0.83027546  1
  N  N59  1  0.44839208  0.42596305  0.58814993  1
  N  N60  1  0.22897844  0.89203001  0.31561079  1
  N  N61  1  0.12192192  0.77989938  0.12662314  1
  N  N62  1  0.88767988  0.87150556  0.88295656  1
  N  N63  1  0.78144796  0.74675323  0.56574891  1
  N  N64  1  0.58899728  0.85554803  0.36235560  1
  N  N65  1  0.41597341  0.82179892  0.08756352  1
  N  N66  1  0.22289586  0.87087018  0.83058820  1
  N  N67  1  0.10591350  0.75457185  0.63228361  1
  N  N68  1  0.88620067  0.86095775  0.37673575  1
  N  N69  1  0.72999385  0.78229180  0.07715490  1
  N  N70  1  0.55188779  0.86519953  0.81476567  1
  N  N71  1  0.44163107  0.75166429  0.56611455  1
