# generated using pymatgen
data_Al31B5N36
_symmetry_space_group_name_H-M   'P 1'
_cell_length_a   9.10584109
_cell_length_b   9.20485772
_cell_length_c   10.29002753
_cell_angle_alpha   90.30348284
_cell_angle_beta   89.71391206
_cell_angle_gamma   60.41906068
_symmetry_Int_Tables_number   1
_chemical_formula_structural   Al31B5N36
_chemical_formula_sum   'Al31 B5 N36'
_cell_volume   750.03247664
_cell_formula_units_Z   1
loop_
 _symmetry_equiv_pos_site_id
 _symmetry_equiv_pos_as_xyz
  1  'x, y, z'
loop_
 _atom_site_type_symbol
 _atom_site_label
 _atom_site_symmetry_multiplicity
 _atom_site_fract_x
 _atom_site_fract_y
 _atom_site_fract_z
 _atom_site_occupancy
  B  B0  1  0.11903653  0.08627098  0.34967340  1
  B  B1  1  0.58908509  0.48480288  0.15235544  1
  B  B2  1  0.22867344  0.89183296  0.09696135  1
  B  B3  1  0.54028935  0.88257356  0.09325330  1
  B  B4  1  0.77801880  0.76427903  0.35450127  1
  Al  Al5  1  0.22482983  0.19841843  0.05922333  1
  Al  Al6  1  0.77974887  0.08897484  0.80662768  1
  Al  Al7  1  0.89824321  0.19320962  0.55734489  1
  Al  Al8  1  0.45392545  0.07847824  0.31144511  1
  Al  Al9  1  0.56120414  0.19481274  0.05784696  1
  Al  Al10  1  0.10963020  0.09743468  0.81488971  1
  Al  Al11  1  0.22119942  0.20389669  0.55775579  1
  Al  Al12  1  0.78609382  0.08299805  0.30803481  1
  Al  Al13  1  0.89728380  0.18622418  0.06106082  1
  Al  Al14  1  0.43964253  0.09827192  0.80493428  1
  Al  Al15  1  0.55742917  0.20340208  0.55600882  1
  Al  Al16  1  0.10649482  0.43215849  0.30643355  1
  Al  Al17  1  0.23330245  0.54838542  0.05974222  1
  Al  Al18  1  0.76256158  0.42864534  0.88796220  1
  Al  Al19  1  0.89308845  0.54225802  0.56082572  1
  Al  Al20  1  0.44393719  0.42184848  0.30801724  1
  Al  Al21  1  0.10822091  0.42657174  0.81112400  1
  Al  Al22  1  0.22596108  0.53671699  0.55675429  1
  Al  Al23  1  0.78213611  0.42862367  0.37047149  1
  Al  Al24  1  0.87055987  0.55555074  0.06694937  1
  Al  Al25  1  0.44131830  0.42166459  0.80932424  1
  Al  Al26  1  0.56282387  0.53854916  0.63331654  1
  Al  Al27  1  0.11587804  0.76998231  0.30784978  1
  Al  Al28  1  0.77815638  0.75578004  0.81916308  1
  Al  Al29  1  0.89084673  0.86556794  0.55852706  1
  Al  Al30  1  0.45255402  0.76317523  0.37642934  1
  Al  Al31  1  0.11004119  0.75508908  0.80730731  1
  Al  Al32  1  0.23029990  0.86782462  0.62208399  1
  Al  Al33  1  0.88317635  0.87212211  0.05735955  1
  Al  Al34  1  0.43972857  0.76621742  0.88760381  1
  Al  Al35  1  0.55674329  0.86522087  0.61949067  1
  N  N36  1  0.21029960  0.19331991  0.36644895  1
  N  N37  1  0.12291851  0.07166929  0.09614943  1
  N  N38  1  0.88696641  0.19940010  0.87406244  1
  N  N39  1  0.78049362  0.08894383  0.61853339  1
  N  N40  1  0.55933683  0.20429696  0.36994896  1
  N  N41  1  0.45218942  0.07608286  0.12227433  1
  N  N42  1  0.22243173  0.20868064  0.87398269  1
  N  N43  1  0.10891530  0.10162499  0.62700071  1
  N  N44  1  0.92343865  0.18235268  0.36368087  1
  N  N45  1  0.77879165  0.08780706  0.12564352  1
  N  N46  1  0.55665472  0.20201481  0.87284881  1
  N  N47  1  0.44135417  0.09918433  0.61592665  1
  N  N48  1  0.22496099  0.54161682  0.36906659  1
  N  N49  1  0.10868240  0.43525860  0.12201702  1
  N  N50  1  0.88939102  0.53519816  0.87832943  1
  N  N51  1  0.77476985  0.42474112  0.55741316  1
  N  N52  1  0.56637673  0.53786852  0.29589927  1
  N  N53  1  0.46386361  0.42264681  0.12000223  1
  N  N54  1  0.22201881  0.53815667  0.87522726  1
  N  N55  1  0.11317177  0.42499549  0.62071398  1
  N  N56  1  0.88035495  0.57076155  0.36675863  1
  N  N57  1  0.75297033  0.42931027  0.08408622  1
  N  N58  1  0.55385406  0.54435775  0.81930695  1
  N  N59  1  0.44453341  0.42058804  0.62127155  1
  N  N60  1  0.21338690  0.90327238  0.35698385  1
  N  N61  1  0.13284068  0.77722704  0.11783516  1
  N  N62  1  0.89059612  0.87067284  0.87276324  1
  N  N63  1  0.79012846  0.75208653  0.62911867  1
  N  N64  1  0.59406265  0.85691226  0.36185663  1
  N  N65  1  0.42048532  0.81033603  0.07215690  1
  N  N66  1  0.22870577  0.86677208  0.81494967  1
  N  N67  1  0.10957444  0.75373809  0.61808170  1
  N  N68  1  0.88233199  0.85652064  0.36687222  1
  N  N69  1  0.72898821  0.78581053  0.08535128  1
  N  N70  1  0.54692270  0.87036497  0.81228857  1
  N  N71  1  0.45096839  0.74806611  0.56065919  1
