# generated using pymatgen
data_Al31B5N36
_symmetry_space_group_name_H-M   'P 1'
_cell_length_a   9.17936734
_cell_length_b   9.24133302
_cell_length_c   10.00642053
_cell_angle_alpha   90.77201418
_cell_angle_beta   90.25281885
_cell_angle_gamma   60.19600547
_symmetry_Int_Tables_number   1
_chemical_formula_structural   Al31B5N36
_chemical_formula_sum   'Al31 B5 N36'
_cell_volume   736.49568243
_cell_formula_units_Z   1
loop_
 _symmetry_equiv_pos_site_id
 _symmetry_equiv_pos_as_xyz
  1  'x, y, z'
loop_
 _atom_site_type_symbol
 _atom_site_label
 _atom_site_symmetry_multiplicity
 _atom_site_fract_x
 _atom_site_fract_y
 _atom_site_fract_z
 _atom_site_occupancy
  B  B0  1  0.11029243  0.08985934  0.39864410  1
  B  B1  1  0.58452071  0.48310980  0.16843320  1
  B  B2  1  0.22868523  0.89051320  0.15888607  1
  B  B3  1  0.55044331  0.87195709  0.15626668  1
  B  B4  1  0.77142811  0.75573911  0.40096452  1
  Al  Al5  1  0.23081519  0.19914186  0.09409412  1
  Al  Al6  1  0.77989979  0.08434833  0.83325715  1
  Al  Al7  1  0.89446648  0.20248002  0.64482173  1
  Al  Al8  1  0.44625283  0.08642688  0.33198089  1
  Al  Al9  1  0.56535182  0.19133576  0.08474947  1
  Al  Al10  1  0.11086425  0.08739086  0.90506051  1
  Al  Al11  1  0.22200109  0.19948766  0.57111202  1
  Al  Al12  1  0.78017183  0.08226896  0.33606716  1
  Al  Al13  1  0.90358246  0.20023834  0.16057548  1
  Al  Al14  1  0.43712247  0.10170971  0.82852849  1
  Al  Al15  1  0.55721671  0.19786556  0.58224366  1
  Al  Al16  1  0.10247195  0.43808849  0.39457253  1
  Al  Al17  1  0.23241526  0.54860239  0.15439844  1
  Al  Al18  1  0.77447986  0.42827156  0.90613851  1
  Al  Al19  1  0.88600546  0.53945019  0.64942524  1
  Al  Al20  1  0.44547607  0.42941726  0.40087407  1
  Al  Al21  1  0.10541881  0.43819672  0.90613091  1
  Al  Al22  1  0.22225104  0.53806405  0.65294597  1
  Al  Al23  1  0.78523839  0.42444520  0.40172720  1
  Al  Al24  1  0.86626635  0.55847879  0.15985170  1
  Al  Al25  1  0.44949524  0.43432593  0.90555505  1
  Al  Al26  1  0.55374642  0.54195941  0.65345446  1
  Al  Al27  1  0.11547750  0.76484133  0.38974793  1
  Al  Al28  1  0.76469505  0.76438569  0.90522139  1
  Al  Al29  1  0.88453167  0.86836172  0.57366041  1
  Al  Al30  1  0.44906212  0.75933495  0.37791454  1
  Al  Al31  1  0.12514983  0.76220967  0.90723443  1
  Al  Al32  1  0.22449167  0.86796914  0.64270844  1
  Al  Al33  1  0.89072308  0.87347729  0.09683222  1
  Al  Al34  1  0.44269468  0.77240926  0.91778505  1
  Al  Al35  1  0.55363440  0.86342041  0.64018704  1
  N  N36  1  0.21185453  0.19437888  0.37660850  1
  N  N37  1  0.11968386  0.07374255  0.09679986  1
  N  N38  1  0.89325435  0.20823403  0.83985903  1
  N  N39  1  0.77669352  0.08313847  0.64221592  1
  N  N40  1  0.55815034  0.19700037  0.39276120  1
  N  N41  1  0.45605467  0.07915338  0.14426737  1
  N  N42  1  0.22375827  0.20731775  0.89701200  1
  N  N43  1  0.10782984  0.08059479  0.56555991  1
  N  N44  1  0.91816860  0.19249924  0.35138605  1
  N  N45  1  0.77950266  0.09303701  0.14836641  1
  N  N46  1  0.55868081  0.20064533  0.89435993  1
  N  N47  1  0.43586241  0.09889644  0.63720893  1
  N  N48  1  0.22680247  0.53834775  0.33986435  1
  N  N49  1  0.10049416  0.44612791  0.10013406  1
  N  N50  1  0.88493461  0.54208747  0.84214278  1
  N  N51  1  0.77622472  0.42412799  0.58964422  1
  N  N52  1  0.56647152  0.52173944  0.31856137  1
  N  N53  1  0.46569200  0.43405586  0.10206131  1
  N  N54  1  0.22615098  0.53931757  0.84561338  1
  N  N55  1  0.10760659  0.43104370  0.58899381  1
  N  N56  1  0.87312442  0.56404076  0.34796411  1
  N  N57  1  0.75830325  0.42975848  0.10401686  1
  N  N58  1  0.55377418  0.54796680  0.84456779  1
  N  N59  1  0.44425314  0.43085733  0.59287443  1
  N  N60  1  0.21238493  0.89893090  0.32655673  1
  N  N61  1  0.13780060  0.77444844  0.10295223  1
  N  N62  1  0.89269028  0.86999690  0.90007939  1
  N  N63  1  0.76850083  0.75240384  0.56814873  1
  N  N64  1  0.58457449  0.85161646  0.33644811  1
  N  N65  1  0.42474934  0.80896761  0.10896029  1
  N  N66  1  0.22701779  0.87325177  0.83300537  1
  N  N67  1  0.11604072  0.75476318  0.58508643  1
  N  N68  1  0.87837304  0.85658607  0.37807231  1
  N  N69  1  0.73830659  0.77742601  0.09564639  1
  N  N70  1  0.55541444  0.86788321  0.83093000  1
  N  N71  1  0.44377971  0.75388588  0.57262314  1
