# generated using pymatgen
data_Al31B5N36
_symmetry_space_group_name_H-M   'P 1'
_cell_length_a   9.11026474
_cell_length_b   9.21117151
_cell_length_c   10.25131889
_cell_angle_alpha   90.31164773
_cell_angle_beta   89.71782386
_cell_angle_gamma   60.37090023
_symmetry_Int_Tables_number   1
_chemical_formula_structural   Al31B5N36
_chemical_formula_sum   'Al31 B5 N36'
_cell_volume   747.72895862
_cell_formula_units_Z   1
loop_
 _symmetry_equiv_pos_site_id
 _symmetry_equiv_pos_as_xyz
  1  'x, y, z'
loop_
 _atom_site_type_symbol
 _atom_site_label
 _atom_site_symmetry_multiplicity
 _atom_site_fract_x
 _atom_site_fract_y
 _atom_site_fract_z
 _atom_site_occupancy
  B  B0  1  0.11816454  0.08682222  0.33760228  1
  B  B1  1  0.58926387  0.48426709  0.15462806  1
  B  B2  1  0.22905820  0.89304339  0.10411834  1
  B  B3  1  0.53974145  0.88481433  0.09472857  1
  B  B4  1  0.77713587  0.76471078  0.35562471  1
  Al  Al5  1  0.22434093  0.19966447  0.06389459  1
  Al  Al6  1  0.78109831  0.08847649  0.80885562  1
  Al  Al7  1  0.89907226  0.19196849  0.55519012  1
  Al  Al8  1  0.45373746  0.07945884  0.31292112  1
  Al  Al9  1  0.56162695  0.19551538  0.05888974  1
  Al  Al10  1  0.10969046  0.09721359  0.81333213  1
  Al  Al11  1  0.22078834  0.20296938  0.55623341  1
  Al  Al12  1  0.78497062  0.08325585  0.30947698  1
  Al  Al13  1  0.89932582  0.18613829  0.06698214  1
  Al  Al14  1  0.43904044  0.09776354  0.80718307  1
  Al  Al15  1  0.55741503  0.20296136  0.55825525  1
  Al  Al16  1  0.10622792  0.43319226  0.30767997  1
  Al  Al17  1  0.23342198  0.54972189  0.06126610  1
  Al  Al18  1  0.76370478  0.42686396  0.89072322  1
  Al  Al19  1  0.89290142  0.54154618  0.56227736  1
  Al  Al20  1  0.44353096  0.42233810  0.31016873  1
  Al  Al21  1  0.10839030  0.42524990  0.81336531  1
  Al  Al22  1  0.22577799  0.53575703  0.55859101  1
  Al  Al23  1  0.78171529  0.42908225  0.37051236  1
  Al  Al24  1  0.87015913  0.55648592  0.06901642  1
  Al  Al25  1  0.44154649  0.42136597  0.81088617  1
  Al  Al26  1  0.56358620  0.53762465  0.63477407  1
  Al  Al27  1  0.11558245  0.77022930  0.31067533  1
  Al  Al28  1  0.77783392  0.75522788  0.82105730  1
  Al  Al29  1  0.89014482  0.86526064  0.56016856  1
  Al  Al30  1  0.45166482  0.76381857  0.37762897  1
  Al  Al31  1  0.11026624  0.75479807  0.80815194  1
  Al  Al32  1  0.22937822  0.86770135  0.61948067  1
  Al  Al33  1  0.88285078  0.87257754  0.05880589  1
  Al  Al34  1  0.43873845  0.76622920  0.88925230  1
  Al  Al35  1  0.55630193  0.86494371  0.62085661  1
  N  N36  1  0.21000147  0.19437987  0.36443961  1
  N  N37  1  0.12260557  0.07577840  0.11631729  1
  N  N38  1  0.89007403  0.19675991  0.87910503  1
  N  N39  1  0.78120446  0.08887168  0.61990997  1
  N  N40  1  0.55884325  0.20475709  0.37168639  1
  N  N41  1  0.45294894  0.07735983  0.12335207  1
  N  N42  1  0.22156417  0.20693058  0.87774373  1
  N  N43  1  0.10865215  0.10137920  0.62658094  1
  N  N44  1  0.92187077  0.18330184  0.36188241  1
  N  N45  1  0.77880540  0.08785082  0.12681517  1
  N  N46  1  0.55701640  0.20151665  0.87363066  1
  N  N47  1  0.44041134  0.09907155  0.61719929  1
  N  N48  1  0.22450570  0.54193445  0.37057623  1
  N  N49  1  0.10823682  0.43762811  0.12312164  1
  N  N50  1  0.88925458  0.53445436  0.87996625  1
  N  N51  1  0.77529739  0.42363498  0.55822740  1
  N  N52  1  0.56507894  0.53883053  0.29768478  1
  N  N53  1  0.46413311  0.42300314  0.12119718  1
  N  N54  1  0.22201899  0.53768969  0.87637785  1
  N  N55  1  0.11337107  0.42355298  0.62192249  1
  N  N56  1  0.87959562  0.57130128  0.36743155  1
  N  N57  1  0.75360213  0.42939085  0.08725683  1
  N  N58  1  0.55468196  0.54320571  0.82183157  1
  N  N59  1  0.44462059  0.42046525  0.62262457  1
  N  N60  1  0.21278593  0.90297517  0.35966205  1
  N  N61  1  0.13348214  0.77912271  0.11962072  1
  N  N62  1  0.89084722  0.86971352  0.87397924  1
  N  N63  1  0.78976096  0.75155886  0.63056433  1
  N  N64  1  0.59313406  0.85762897  0.36319268  1
  N  N65  1  0.41804580  0.81417855  0.07424725  1
  N  N66  1  0.22803383  0.86700763  0.81601151  1
  N  N67  1  0.10925112  0.75311031  0.61881691  1
  N  N68  1  0.88145926  0.85671095  0.36804100  1
  N  N69  1  0.72828460  0.78663838  0.08661724  1
  N  N70  1  0.54659304  0.86998257  0.81442744  1
  N  N71  1  0.45171468  0.74696446  0.56223886  1
