# generated using pymatgen
data_Al31B5N36
_symmetry_space_group_name_H-M   'P 1'
_cell_length_a   9.15117320
_cell_length_b   9.22971328
_cell_length_c   9.89256761
_cell_angle_alpha   89.98843891
_cell_angle_beta   90.34391842
_cell_angle_gamma   60.36298670
_symmetry_Int_Tables_number   1
_chemical_formula_structural   Al31B5N36
_chemical_formula_sum   'Al31 B5 N36'
_cell_volume   726.22443159
_cell_formula_units_Z   1
loop_
 _symmetry_equiv_pos_site_id
 _symmetry_equiv_pos_as_xyz
  1  'x, y, z'
loop_
 _atom_site_type_symbol
 _atom_site_label
 _atom_site_symmetry_multiplicity
 _atom_site_fract_x
 _atom_site_fract_y
 _atom_site_fract_z
 _atom_site_occupancy
  B  B0  1  0.11135836  0.08938749  0.30633168  1
  B  B1  1  0.58855288  0.47233596  0.04971110  1
  B  B2  1  0.21264156  0.89012579  0.07257888  1
  B  B3  1  0.54093583  0.88484816  0.10532229  1
  B  B4  1  0.76806358  0.76709940  0.30958831  1
  Al  Al5  1  0.22346716  0.19890906  0.06909473  1
  Al  Al6  1  0.78077848  0.08938256  0.80973659  1
  Al  Al7  1  0.89522624  0.20336625  0.55837367  1
  Al  Al8  1  0.44772830  0.08767709  0.31701579  1
  Al  Al9  1  0.56146072  0.19204199  0.05799196  1
  Al  Al10  1  0.11659453  0.09032402  0.81917560  1
  Al  Al11  1  0.21871238  0.20351240  0.55654279  1
  Al  Al12  1  0.78217143  0.08792862  0.31190778  1
  Al  Al13  1  0.89443631  0.19456050  0.06432843  1
  Al  Al14  1  0.44364641  0.08806157  0.80948270  1
  Al  Al15  1  0.55536924  0.20770033  0.56117936  1
  Al  Al16  1  0.10521169  0.43229010  0.31057119  1
  Al  Al17  1  0.22892147  0.54658659  0.05987363  1
  Al  Al18  1  0.77983377  0.42603842  0.81445225  1
  Al  Al19  1  0.88506225  0.54412771  0.55524451  1
  Al  Al20  1  0.44928090  0.42782683  0.30597755  1
  Al  Al21  1  0.11012630  0.42799544  0.81280113  1
  Al  Al22  1  0.22407074  0.54185795  0.56267576  1
  Al  Al23  1  0.77713028  0.42861107  0.30663406  1
  Al  Al24  1  0.87120061  0.54939287  0.06622464  1
  Al  Al25  1  0.44571844  0.42579527  0.81477566  1
  Al  Al26  1  0.55513139  0.54073120  0.55777416  1
  Al  Al27  1  0.10964600  0.76802838  0.30835349  1
  Al  Al28  1  0.77561338  0.76033061  0.81230166  1
  Al  Al29  1  0.88948756  0.86767860  0.55608356  1
  Al  Al30  1  0.44412652  0.76836880  0.32615786  1
  Al  Al31  1  0.11388499  0.76583515  0.81909425  1
  Al  Al32  1  0.21931343  0.87949214  0.55779521  1
  Al  Al33  1  0.88653192  0.86979807  0.06755309  1
  Al  Al34  1  0.45084068  0.76068641  0.91805368  1
  Al  Al35  1  0.56014231  0.86905948  0.56543225  1
  N  N36  1  0.20905643  0.19454392  0.35991241  1
  N  N37  1  0.11652843  0.07827429  0.13659683  1
  N  N38  1  0.89105781  0.20253230  0.87373844  1
  N  N39  1  0.78157041  0.09123730  0.61564554  1
  N  N40  1  0.55535313  0.20804897  0.36898229  1
  N  N41  1  0.45514089  0.07478581  0.12333630  1
  N  N42  1  0.22297843  0.20702109  0.87760566  1
  N  N43  1  0.11255003  0.09361813  0.62950953  1
  N  N44  1  0.91318296  0.19518720  0.36116712  1
  N  N45  1  0.77923475  0.08943698  0.12281786  1
  N  N46  1  0.55661741  0.20122192  0.86858097  1
  N  N47  1  0.44241856  0.09640104  0.61554033  1
  N  N48  1  0.22529749  0.54105342  0.36772523  1
  N  N49  1  0.10893299  0.43345721  0.11992493  1
  N  N50  1  0.88750078  0.54014387  0.87611395  1
  N  N51  1  0.77901313  0.42631917  0.62090589  1
  N  N52  1  0.55807543  0.53655062  0.36619238  1
  N  N53  1  0.46527545  0.42531005  0.11164909  1
  N  N54  1  0.22302333  0.54098199  0.87051186  1
  N  N55  1  0.11074597  0.42725604  0.61652964  1
  N  N56  1  0.87341281  0.56401737  0.35840594  1
  N  N57  1  0.75683238  0.42683047  0.11371697  1
  N  N58  1  0.56379787  0.52298902  0.90228499  1
  N  N59  1  0.44776413  0.42787338  0.62475852  1
  N  N60  1  0.20244145  0.90404830  0.36424534  1
  N  N61  1  0.12721584  0.77383217  0.11884205  1
  N  N62  1  0.88941984  0.86944264  0.87649434  1
  N  N63  1  0.78313962  0.75810528  0.62344834  1
  N  N64  1  0.58390944  0.86280363  0.36896860  1
  N  N65  1  0.42805474  0.80351062  0.11600571  1
  N  N66  1  0.21569184  0.88019368  0.90763856  1
  N  N67  1  0.11184974  0.76474877  0.62350667  1
  N  N68  1  0.87889663  0.85701170  0.35992078  1
  N  N69  1  0.74434868  0.77559792  0.13966596  1
  N  N70  1  0.55627176  0.86988689  0.86302670  1
  N  N71  1  0.44204883  0.76163812  0.58572765  1
