# generated using pymatgen
data_Al31B5N36
_symmetry_space_group_name_H-M   'P 1'
_cell_length_a   9.17843667
_cell_length_b   9.28307452
_cell_length_c   10.19644726
_cell_angle_alpha   90.70141043
_cell_angle_beta   89.71495048
_cell_angle_gamma   59.95621375
_symmetry_Int_Tables_number   1
_chemical_formula_structural   Al31B5N36
_chemical_formula_sum   'Al31 B5 N36'
_cell_volume   751.93446523
_cell_formula_units_Z   1
loop_
 _symmetry_equiv_pos_site_id
 _symmetry_equiv_pos_as_xyz
  1  'x, y, z'
loop_
 _atom_site_type_symbol
 _atom_site_label
 _atom_site_symmetry_multiplicity
 _atom_site_fract_x
 _atom_site_fract_y
 _atom_site_fract_z
 _atom_site_occupancy
  B  B0  1  0.11181719  0.10397095  0.30585242  1
  B  B1  1  0.59112889  0.47959813  0.15880922  1
  B  B2  1  0.25656961  0.91552944  0.15873777  1
  B  B3  1  0.54176147  0.88935682  0.09317057  1
  B  B4  1  0.77753433  0.76611304  0.35468434  1
  Al  Al5  1  0.22880850  0.20115774  0.06491147  1
  Al  Al6  1  0.78170724  0.08995113  0.80962711  1
  Al  Al7  1  0.90173796  0.19102469  0.55437810  1
  Al  Al8  1  0.45664704  0.08129495  0.31409387  1
  Al  Al9  1  0.56475735  0.19806853  0.05988652  1
  Al  Al10  1  0.10741330  0.09880656  0.81412163  1
  Al  Al11  1  0.22221418  0.20025974  0.55504924  1
  Al  Al12  1  0.78658432  0.08394462  0.31177090  1
  Al  Al13  1  0.90056817  0.18738251  0.07109888  1
  Al  Al14  1  0.44012492  0.09725278  0.80688230  1
  Al  Al15  1  0.55880932  0.20262159  0.56072133  1
  Al  Al16  1  0.11296007  0.42923296  0.30888168  1
  Al  Al17  1  0.22473234  0.54126017  0.06254685  1
  Al  Al18  1  0.76433480  0.43243382  0.89589067  1
  Al  Al19  1  0.88682117  0.53194947  0.63917184  1
  Al  Al20  1  0.44450311  0.42209690  0.31445978  1
  Al  Al21  1  0.11811746  0.41833785  0.81713680  1
  Al  Al22  1  0.22334289  0.53490452  0.56155242  1
  Al  Al23  1  0.78745921  0.43481437  0.37828464  1
  Al  Al24  1  0.86062186  0.56367401  0.13067454  1
  Al  Al25  1  0.44270488  0.42285481  0.81284843  1
  Al  Al26  1  0.55956392  0.54104477  0.63505194  1
  Al  Al27  1  0.10881571  0.76066575  0.30035641  1
  Al  Al28  1  0.76496840  0.76125019  0.85108490  1
  Al  Al29  1  0.88916646  0.86296715  0.56268537  1
  Al  Al30  1  0.45872397  0.75945000  0.37273585  1
  Al  Al31  1  0.10584065  0.75381852  0.81394936  1
  Al  Al32  1  0.23089138  0.86322863  0.63414939  1
  Al  Al33  1  0.88212557  0.86966295  0.05830112  1
  Al  Al34  1  0.43100429  0.77153949  0.89743235  1
  Al  Al35  1  0.55681683  0.86381703  0.62189488  1
  N  N36  1  0.21262558  0.19496944  0.36363982  1
  N  N37  1  0.11940153  0.09560931  0.14355351  1
  N  N38  1  0.89059756  0.19819852  0.88427074  1
  N  N39  1  0.78326281  0.09065446  0.62025811  1
  N  N40  1  0.56028782  0.20447537  0.37332901  1
  N  N41  1  0.45884277  0.07930772  0.12271752  1
  N  N42  1  0.22309481  0.20150590  0.88021977  1
  N  N43  1  0.11228652  0.09630857  0.62566473  1
  N  N44  1  0.92357031  0.18504380  0.36200741  1
  N  N45  1  0.78157056  0.08766237  0.12762438  1
  N  N46  1  0.55648380  0.20246023  0.87354317  1
  N  N47  1  0.44233168  0.09795776  0.61665194  1
  N  N48  1  0.22455107  0.54032381  0.37364634  1
  N  N49  1  0.11142745  0.42478089  0.12156643  1
  N  N50  1  0.88523180  0.52761024  0.83302790  1
  N  N51  1  0.77792908  0.42658156  0.56331869  1
  N  N52  1  0.56994198  0.53272700  0.30267436  1
  N  N53  1  0.46363139  0.42468324  0.12373284  1
  N  N54  1  0.22280850  0.53450923  0.87686351  1
  N  N55  1  0.12070246  0.41734377  0.62417562  1
  N  N56  1  0.87331954  0.57570524  0.32315089  1
  N  N57  1  0.75324203  0.43321689  0.08962263  1
  N  N58  1  0.55150861  0.54705650  0.82669135  1
  N  N59  1  0.44515288  0.42210373  0.62332448  1
  N  N60  1  0.23295143  0.89183527  0.30479661  1
  N  N61  1  0.09523779  0.75255943  0.12236487  1
  N  N62  1  0.88548649  0.87339461  0.87254438  1
  N  N63  1  0.78466640  0.75376002  0.61938981  1
  N  N64  1  0.59385611  0.85710197  0.35481423  1
  N  N65  1  0.41822855  0.82841103  0.08268660  1
  N  N66  1  0.22159158  0.86841314  0.82395303  1
  N  N67  1  0.10941085  0.75327386  0.62155588  1
  N  N68  1  0.88037051  0.85868414  0.37123505  1
  N  N69  1  0.72775835  0.78220581  0.06394950  1
  N  N70  1  0.53922531  0.87038550  0.81489909  1
  N  N71  1  0.44449773  0.75211883  0.55849405  1
