# generated using pymatgen
data_Al31B5N36
_symmetry_space_group_name_H-M   'P 1'
_cell_length_a   9.16094657
_cell_length_b   9.24124533
_cell_length_c   9.76850670
_cell_angle_alpha   90.22898691
_cell_angle_beta   90.01660282
_cell_angle_gamma   60.22558535
_symmetry_Int_Tables_number   1
_chemical_formula_structural   Al31B5N36
_chemical_formula_sum   'Al31 B5 N36'
_cell_volume   717.80767526
_cell_formula_units_Z   1
loop_
 _symmetry_equiv_pos_site_id
 _symmetry_equiv_pos_as_xyz
  1  'x, y, z'
loop_
 _atom_site_type_symbol
 _atom_site_label
 _atom_site_symmetry_multiplicity
 _atom_site_fract_x
 _atom_site_fract_y
 _atom_site_fract_z
 _atom_site_occupancy
  B  B0  1  0.11223935  0.09462528  0.40013095  1
  B  B1  1  0.58290223  0.48563545  0.16716318  1
  B  B2  1  0.22829124  0.89412668  0.16167276  1
  B  B3  1  0.55186600  0.87507879  0.15953938  1
  B  B4  1  0.77795957  0.76114462  0.39804764  1
  Al  Al5  1  0.22373059  0.19722094  0.15572586  1
  Al  Al6  1  0.78127154  0.09065983  0.89991980  1
  Al  Al7  1  0.89354121  0.20277621  0.64460169  1
  Al  Al8  1  0.44683121  0.08519720  0.39555121  1
  Al  Al9  1  0.56145054  0.19785675  0.15243974  1
  Al  Al10  1  0.11567742  0.08813317  0.90215732  1
  Al  Al11  1  0.22178407  0.20287481  0.64388081  1
  Al  Al12  1  0.78285007  0.08569003  0.40246269  1
  Al  Al13  1  0.89914211  0.19282042  0.15713775  1
  Al  Al14  1  0.44606626  0.08796668  0.90407710  1
  Al  Al15  1  0.55510407  0.20391563  0.65193467  1
  Al  Al16  1  0.10627289  0.43081071  0.39987792  1
  Al  Al17  1  0.22924234  0.54585190  0.15130584  1
  Al  Al18  1  0.77372180  0.42840523  0.90355050  1
  Al  Al19  1  0.88517428  0.54309200  0.64543959  1
  Al  Al20  1  0.44672626  0.42428229  0.40065981  1
  Al  Al21  1  0.11015561  0.42725544  0.90165487  1
  Al  Al22  1  0.22285612  0.54025927  0.65210048  1
  Al  Al23  1  0.78403739  0.42646078  0.39883928  1
  Al  Al24  1  0.87088904  0.55141080  0.15603501  1
  Al  Al25  1  0.44989557  0.42953634  0.90436358  1
  Al  Al26  1  0.55355345  0.54391224  0.65055559  1
  Al  Al27  1  0.10905477  0.76574014  0.39257625  1
  Al  Al28  1  0.76947336  0.76366142  0.90214978  1
  Al  Al29  1  0.88888103  0.86770678  0.64445680  1
  Al  Al30  1  0.44864647  0.76002188  0.36945160  1
  Al  Al31  1  0.11448706  0.76470930  0.90527395  1
  Al  Al32  1  0.22677763  0.87050836  0.63992163  1
  Al  Al33  1  0.88555878  0.86738721  0.15307072  1
  Al  Al34  1  0.44126918  0.76788841  0.91862232  1
  Al  Al35  1  0.55449670  0.86815086  0.63967478  1
  N  N36  1  0.20812948  0.19574533  0.34932293  1
  N  N37  1  0.12164782  0.07520908  0.09530188  1
  N  N38  1  0.89170171  0.20541928  0.84140453  1
  N  N39  1  0.77896145  0.09169384  0.59415532  1
  N  N40  1  0.55771715  0.20261851  0.34356088  1
  N  N41  1  0.45451540  0.07652676  0.10237863  1
  N  N42  1  0.22199090  0.20432227  0.84095899  1
  N  N43  1  0.11405889  0.08996582  0.56753460  1
  N  N44  1  0.91444991  0.19144831  0.35034387  1
  N  N45  1  0.78331424  0.08835173  0.09412927  1
  N  N46  1  0.55456860  0.20578456  0.84717647  1
  N  N47  1  0.44575273  0.09176211  0.58800440  1
  N  N48  1  0.22482649  0.53804611  0.34204652  1
  N  N49  1  0.10760284  0.42929980  0.09758851  1
  N  N50  1  0.88548945  0.54094732  0.84275272  1
  N  N51  1  0.77688023  0.42660000  0.59021801  1
  N  N52  1  0.56426697  0.52408228  0.31928474  1
  N  N53  1  0.46582788  0.43125064  0.10103833  1
  N  N54  1  0.22431929  0.53937794  0.84857721  1
  N  N55  1  0.11107447  0.42805038  0.59319100  1
  N  N56  1  0.87526142  0.56477116  0.34845250  1
  N  N57  1  0.75791232  0.42821037  0.10399246  1
  N  N58  1  0.55231222  0.54765827  0.84462793  1
  N  N59  1  0.44704723  0.42635916  0.59306289  1
  N  N60  1  0.20888454  0.90039781  0.32812835  1
  N  N61  1  0.12264458  0.77355046  0.10132715  1
  N  N62  1  0.88984343  0.86698874  0.84111618  1
  N  N63  1  0.77510876  0.76142428  0.56679560  1
  N  N64  1  0.57994759  0.86155797  0.32779394  1
  N  N65  1  0.42415667  0.80487871  0.11424830  1
  N  N66  1  0.22573757  0.87153868  0.83459984  1
  N  N67  1  0.11285702  0.75960032  0.58649649  1
  N  N68  1  0.87707229  0.85761836  0.34682082  1
  N  N69  1  0.74530981  0.77419608  0.09434913  1
  N  N70  1  0.55275397  0.87080095  0.83376625  1
  N  N71  1  0.44678399  0.75554037  0.56998432  1
