# generated using pymatgen
data_Gd5Al31N36
_symmetry_space_group_name_H-M   'P 1'
_cell_length_a   9.69762076
_cell_length_b   9.67782493
_cell_length_c   10.56451207
_cell_angle_alpha   89.23994842
_cell_angle_beta   89.13254360
_cell_angle_gamma   60.11658515
_symmetry_Int_Tables_number   1
_chemical_formula_structural   Gd5Al31N36
_chemical_formula_sum   'Gd5 Al31 N36'
_cell_volume   859.55328403
_cell_formula_units_Z   1
loop_
 _symmetry_equiv_pos_site_id
 _symmetry_equiv_pos_as_xyz
  1  'x, y, z'
loop_
 _atom_site_type_symbol
 _atom_site_label
 _atom_site_symmetry_multiplicity
 _atom_site_fract_x
 _atom_site_fract_y
 _atom_site_fract_z
 _atom_site_occupancy
  Al  Al0  1  0.11910319  0.08483302  0.39017875  1
  Al  Al1  1  0.77427821  0.08935395  0.79910502  1
  Al  Al2  1  0.89284538  0.20038813  0.56839960  1
  Al  Al3  1  0.44607069  0.09695094  0.32515748  1
  Al  Al4  1  0.11109009  0.08037744  0.86486360  1
  Al  Al5  1  0.22518878  0.20877781  0.56278324  1
  Al  Al6  1  0.78822371  0.08841837  0.31653639  1
  Al  Al7  1  0.88763292  0.19875856  0.04405448  1
  Al  Al8  1  0.44174809  0.09182878  0.78438927  1
  Al  Al9  1  0.55817131  0.20155391  0.55540357  1
  Al  Al10  1  0.10843896  0.43488962  0.32734565  1
  Al  Al11  1  0.21120588  0.55078850  0.13342764  1
  Al  Al12  1  0.78330186  0.42208610  0.81608118  1
  Al  Al13  1  0.89567848  0.53930824  0.56529580  1
  Al  Al14  1  0.44387222  0.43236416  0.31197124  1
  Al  Al15  1  0.54129028  0.54631151  0.04540192  1
  Al  Al16  1  0.10759207  0.42410019  0.79575229  1
  Al  Al17  1  0.21673273  0.54032758  0.59318804  1
  Al  Al18  1  0.89155795  0.54715086  0.04995730  1
  Al  Al19  1  0.43575006  0.42193816  0.80021783  1
  Al  Al20  1  0.10325518  0.76958924  0.31927951  1
  Al  Al21  1  0.21181856  0.87869825  0.13115864  1
  Al  Al22  1  0.77813951  0.76143021  0.79997342  1
  Al  Al23  1  0.88843773  0.87214690  0.55779036  1
  Al  Al24  1  0.44328716  0.76332558  0.30577558  1
  Al  Al25  1  0.10311993  0.75498400  0.80986789  1
  Al  Al26  1  0.21383192  0.88208022  0.63133737  1
  Al  Al27  1  0.78634009  0.76271245  0.31607340  1
  Al  Al28  1  0.90128963  0.86730602  0.06444752  1
  Al  Al29  1  0.44393452  0.76329830  0.80045366  1
  Al  Al30  1  0.55704513  0.87447947  0.55606739  1
  Gd  Gd31  1  0.21940728  0.22099952  0.05679546  1
  Gd  Gd32  1  0.56825876  0.20838740  0.05845502  1
  Gd  Gd33  1  0.79145803  0.42421803  0.29294055  1
  Gd  Gd34  1  0.56127875  0.53745111  0.56503815  1
  Gd  Gd35  1  0.56193869  0.86785453  0.05516194  1
  N  N36  1  0.22227985  0.21259568  0.37497050  1
  N  N37  1  0.10763449  0.07356974  0.05004081  1
  N  N38  1  0.87823181  0.19933796  0.86134780  1
  N  N39  1  0.77830482  0.09098267  0.61751162  1
  N  N40  1  0.56175851  0.20863091  0.36924484  1
  N  N41  1  0.44728139  0.09672884  0.14959179  1
  N  N42  1  0.22042393  0.20026228  0.83627341  1
  N  N43  1  0.11744190  0.08912847  0.57373403  1
  N  N44  1  0.89465092  0.18745095  0.38526468  1
  N  N45  1  0.81272522  0.07930252  0.13486293  1
  N  N46  1  0.55071830  0.19863125  0.84338845  1
  N  N47  1  0.44750774  0.09314817  0.60248161  1
  N  N48  1  0.22219290  0.54426598  0.34767339  1
  N  N49  1  0.08376411  0.45586945  0.14318648  1
  N  N50  1  0.89083685  0.54143862  0.86575640  1
  N  N51  1  0.81364589  0.40959547  0.63347679  1
  N  N52  1  0.53966854  0.55040054  0.35616293  1
  N  N53  1  0.43099253  0.45227429  0.12723667  1
  N  N54  1  0.21601709  0.53426358  0.83445666  1
  N  N55  1  0.11016890  0.42647487  0.61388870  1
  N  N56  1  0.89754883  0.55480810  0.38778550  1
  N  N57  1  0.77436250  0.42818244  0.07652748  1
  N  N58  1  0.54808899  0.53850333  0.85539690  1
  N  N59  1  0.43344236  0.41069509  0.61870531  1
  N  N60  1  0.21743299  0.88412365  0.31857792  1
  N  N61  1  0.10387880  0.76622497  0.12946343  1
  N  N62  1  0.88337385  0.87222051  0.87303405  1
  N  N63  1  0.77885371  0.76171482  0.61791123  1
  N  N64  1  0.55969828  0.86814661  0.36906353  1
  N  N65  1  0.43485687  0.74860103  0.12099430  1
  N  N66  1  0.21648299  0.86838463  0.81554234  1
  N  N67  1  0.10315783  0.76377144  0.61625265  1
  N  N68  1  0.88796919  0.87450992  0.37662494  1
  N  N69  1  0.80470433  0.74966919  0.13199404  1
  N  N70  1  0.55442368  0.87308697  0.84079486  1
  N  N71  1  0.43476618  0.78760110  0.62017528  1
