# generated using pymatgen
data_Gd5Al31N36
_symmetry_space_group_name_H-M   'P 1'
_cell_length_a   9.59103144
_cell_length_b   9.62537199
_cell_length_c   10.75468129
_cell_angle_alpha   89.79040749
_cell_angle_beta   89.48543893
_cell_angle_gamma   59.95670222
_symmetry_Int_Tables_number   1
_chemical_formula_structural   Gd5Al31N36
_chemical_formula_sum   'Gd5 Al31 N36'
_cell_volume   859.41642387
_cell_formula_units_Z   1
loop_
 _symmetry_equiv_pos_site_id
 _symmetry_equiv_pos_as_xyz
  1  'x, y, z'
loop_
 _atom_site_type_symbol
 _atom_site_label
 _atom_site_symmetry_multiplicity
 _atom_site_fract_x
 _atom_site_fract_y
 _atom_site_fract_z
 _atom_site_occupancy
  Al  Al0  1  0.12092852  0.08339761  0.39730640  1
  Al  Al1  1  0.77699930  0.08925258  0.79923751  1
  Al  Al2  1  0.89092950  0.19991855  0.56723148  1
  Al  Al3  1  0.44876836  0.09375329  0.32963249  1
  Al  Al4  1  0.11713193  0.08572158  0.86612138  1
  Al  Al5  1  0.21387967  0.20970779  0.62111439  1
  Al  Al6  1  0.78892988  0.08707421  0.31452909  1
  Al  Al7  1  0.88935882  0.19501986  0.03965761  1
  Al  Al8  1  0.44756035  0.09174755  0.78618653  1
  Al  Al9  1  0.55421257  0.20332024  0.55599336  1
  Al  Al10  1  0.12091395  0.43105292  0.39755336  1
  Al  Al11  1  0.20882740  0.55225380  0.12707453  1
  Al  Al12  1  0.78593317  0.42253383  0.80994041  1
  Al  Al13  1  0.89115224  0.54255512  0.56761488  1
  Al  Al14  1  0.43907151  0.43235856  0.30319487  1
  Al  Al15  1  0.54823651  0.54274561  0.04391180  1
  Al  Al16  1  0.11770658  0.42797882  0.86650550  1
  Al  Al17  1  0.21064121  0.54583907  0.63208274  1
  Al  Al18  1  0.88993828  0.54713893  0.03981501  1
  Al  Al19  1  0.44432439  0.42201201  0.79849924  1
  Al  Al20  1  0.11793993  0.75903906  0.37858929  1
  Al  Al21  1  0.21005477  0.87138992  0.12541080  1
  Al  Al22  1  0.77779837  0.76441469  0.79884951  1
  Al  Al23  1  0.88445829  0.87479543  0.55456102  1
  Al  Al24  1  0.43954388  0.76630579  0.30326260  1
  Al  Al25  1  0.11454934  0.75825376  0.87976940  1
  Al  Al26  1  0.21098088  0.87649978  0.63200899  1
  Al  Al27  1  0.78922322  0.75923860  0.31527639  1
  Al  Al28  1  0.89619908  0.86803784  0.06433204  1
  Al  Al29  1  0.44431703  0.76396244  0.79886451  1
  Al  Al30  1  0.55465797  0.87577695  0.55709286  1
  Gd  Gd31  1  0.18279786  0.22394733  0.14597186  1
  Gd  Gd32  1  0.55819325  0.20680710  0.05554078  1
  Gd  Gd33  1  0.78219256  0.42743901  0.29513535  1
  Gd  Gd34  1  0.55779278  0.53755424  0.56077435  1
  Gd  Gd35  1  0.56042443  0.86962820  0.05377028  1
  N  N36  1  0.21721671  0.20940187  0.35822959  1
  N  N37  1  0.11541003  0.06903087  0.04290737  1
  N  N38  1  0.87974818  0.20182878  0.86061452  1
  N  N39  1  0.77895564  0.09009955  0.61912061  1
  N  N40  1  0.55801830  0.21154129  0.37097991  1
  N  N41  1  0.44193747  0.09544613  0.15380696  1
  N  N42  1  0.21401526  0.20878577  0.80652355  1
  N  N43  1  0.11808333  0.08595773  0.57448769  1
  N  N44  1  0.89251187  0.18908799  0.38691791  1
  N  N45  1  0.81183982  0.07843265  0.13425223  1
  N  N46  1  0.55113409  0.20247198  0.84431257  1
  N  N47  1  0.44744006  0.09282687  0.60611491  1
  N  N48  1  0.20801670  0.54426216  0.31176087  1
  N  N49  1  0.11639269  0.44728095  0.04382124  1
  N  N50  1  0.88041979  0.54897318  0.86080848  1
  N  N51  1  0.81428363  0.40922090  0.63230097  1
  N  N52  1  0.52601225  0.55579469  0.35697521  1
  N  N53  1  0.43807977  0.45038030  0.12364044  1
  N  N54  1  0.21199890  0.54914633  0.81067715  1
  N  N55  1  0.11812694  0.42926517  0.57485049  1
  N  N56  1  0.89262413  0.55391815  0.38803871  1
  N  N57  1  0.78648504  0.42247982  0.08117743  1
  N  N58  1  0.55054334  0.53963098  0.85748224  1
  N  N59  1  0.43543342  0.41039507  0.62287319  1
  N  N60  1  0.20861088  0.88400775  0.31055502  1
  N  N61  1  0.12092437  0.75593791  0.05936087  1
  N  N62  1  0.87594429  0.87735840  0.87558472  1
  N  N63  1  0.77974537  0.76373096  0.61926921  1
  N  N64  1  0.55843005  0.86695683  0.37198730  1
  N  N65  1  0.43905802  0.74656123  0.12105373  1
  N  N66  1  0.21181775  0.87062333  0.81053830  1
  N  N67  1  0.12054724  0.75667479  0.56112076  1
  N  N68  1  0.88456749  0.87557283  0.37525078  1
  N  N69  1  0.81310685  0.74028835  0.13498212  1
  N  N70  1  0.55172630  0.87634302  0.84269783  1
  N  N71  1  0.43584731  0.78598700  0.62289905  1
