# generated using pymatgen
data_Gd5Al31N36
_symmetry_space_group_name_H-M   'P 1'
_cell_length_a   9.73983843
_cell_length_b   9.75696717
_cell_length_c   10.42387482
_cell_angle_alpha   90.00211218
_cell_angle_beta   89.07900312
_cell_angle_gamma   59.93266189
_symmetry_Int_Tables_number   1
_chemical_formula_structural   Gd5Al31N36
_chemical_formula_sum   'Gd5 Al31 N36'
_cell_volume   857.14882827
_cell_formula_units_Z   1
loop_
 _symmetry_equiv_pos_site_id
 _symmetry_equiv_pos_as_xyz
  1  'x, y, z'
loop_
 _atom_site_type_symbol
 _atom_site_label
 _atom_site_symmetry_multiplicity
 _atom_site_fract_x
 _atom_site_fract_y
 _atom_site_fract_z
 _atom_site_occupancy
  Al  Al0  1  0.12252298  0.08120636  0.42406882  1
  Al  Al1  1  0.77244640  0.09270511  0.82949925  1
  Al  Al2  1  0.89012994  0.19991732  0.59458075  1
  Al  Al3  1  0.44344857  0.09494131  0.36563369  1
  Al  Al4  1  0.11630394  0.08698159  0.88711229  1
  Al  Al5  1  0.22185741  0.20573419  0.64383042  1
  Al  Al6  1  0.80206186  0.07769286  0.33942631  1
  Al  Al7  1  0.88845020  0.19468247  0.06525245  1
  Al  Al8  1  0.44612622  0.09360423  0.84177819  1
  Al  Al9  1  0.56124306  0.19485155  0.57862779  1
  Al  Al10  1  0.12252910  0.42960748  0.42406996  1
  Al  Al11  1  0.21163732  0.55192600  0.14582012  1
  Al  Al12  1  0.79128911  0.42102596  0.83298220  1
  Al  Al13  1  0.89013284  0.54328030  0.59457911  1
  Al  Al14  1  0.43125597  0.43136754  0.40439322  1
  Al  Al15  1  0.55562900  0.53884668  0.06417081  1
  Al  Al16  1  0.11630699  0.43005253  0.88711014  1
  Al  Al17  1  0.21618330  0.53949356  0.65361936  1
  Al  Al18  1  0.88845443  0.55020247  0.06525009  1
  Al  Al19  1  0.43246973  0.42940455  0.89610185  1
  Al  Al20  1  0.12265230  0.75534363  0.40210858  1
  Al  Al21  1  0.21163344  0.86976607  0.14582153  1
  Al  Al22  1  0.77244672  0.76818608  0.82950030  1
  Al  Al23  1  0.88852723  0.87240102  0.58503150  1
  Al  Al24  1  0.43125399  0.77070814  0.40439192  1
  Al  Al25  1  0.11593906  0.75870123  0.90057300  1
  Al  Al26  1  0.21618360  0.87765372  0.65361714  1
  Al  Al27  1  0.80206675  0.75358257  0.33942421  1
  Al  Al28  1  0.89705515  0.86813858  0.08513954  1
  Al  Al29  1  0.43246896  0.77146217  0.89610412  1
  Al  Al30  1  0.56124537  0.87722492  0.57862550  1
  Gd  Gd31  1  0.16945208  0.23194128  0.17069089  1
  Gd  Gd32  1  0.55752250  0.21152596  0.12148160  1
  Gd  Gd33  1  0.77640625  0.42847049  0.33505217  1
  Gd  Gd34  1  0.54202573  0.54564598  0.63301201  1
  Gd  Gd35  1  0.55752251  0.86426138  0.12148369  1
  N  N36  1  0.21642795  0.20844403  0.38996770  1
  N  N37  1  0.10946623  0.07140804  0.06876422  1
  N  N38  1  0.88196094  0.20296643  0.88074192  1
  N  N39  1  0.77639214  0.09174046  0.64408273  1
  N  N40  1  0.56970755  0.19952599  0.38136099  1
  N  N41  1  0.41990758  0.10671658  0.17391609  1
  N  N42  1  0.21898720  0.20716669  0.83591444  1
  N  N43  1  0.11317946  0.09040419  0.60809140  1
  N  N44  1  0.90088348  0.18104928  0.40956808  1
  N  N45  1  0.81974742  0.07291178  0.15671791  1
  N  N46  1  0.55272479  0.20345774  0.88387619  1
  N  N47  1  0.44848256  0.09243078  0.61515754  1
  N  N48  1  0.21998971  0.53612339  0.33652045  1
  N  N49  1  0.10947260  0.45246528  0.06876166  1
  N  N50  1  0.88196347  0.54839609  0.88074448  1
  N  N51  1  0.80767950  0.41283738  0.64766766  1
  N  N52  1  0.52624424  0.55353197  0.39123690  1
  N  N53  1  0.41908288  0.46126544  0.07807192  1
  N  N54  1  0.22136826  0.54451789  0.83434554  1
  N  N55  1  0.11318281  0.42976058  0.60809411  1
  N  N56  1  0.90089222  0.55138826  0.40956293  1
  N  N57  1  0.78050572  0.42642597  0.11020620  1
  N  N58  1  0.55925711  0.53703075  0.86810030  1
  N  N59  1  0.42121429  0.41144859  0.58654462  1
  N  N60  1  0.21998645  0.87721058  0.33652180  1
  N  N61  1  0.11559140  0.75887598  0.08626206  1
  N  N62  1  0.88138206  0.87597203  0.89349850  1
  N  N63  1  0.77639565  0.76521495  0.64408272  1
  N  N64  1  0.56970932  0.86407534  0.38136124  1
  N  N65  1  0.41907317  0.75300012  0.07807161  1
  N  N66  1  0.22137085  0.86743420  0.83434267  1
  N  N67  1  0.12176938  0.75578785  0.59085458  1
  N  N68  1  0.89404969  0.86963775  0.40036407  1
  N  N69  1  0.81974747  0.74069997  0.15671633  1
  N  N70  1  0.55272476  0.87713498  0.88388046  1
  N  N71  1  0.42121907  0.80067861  0.58654514  1
