# generated using pymatgen
data_Gd5Al31N36
_symmetry_space_group_name_H-M   'P 1'
_cell_length_a   9.70027189
_cell_length_b   9.68129346
_cell_length_c   10.29548992
_cell_angle_alpha   90.00013549
_cell_angle_beta   89.66810815
_cell_angle_gamma   60.06462738
_symmetry_Int_Tables_number   1
_chemical_formula_structural   Gd5Al31N36
_chemical_formula_sum   'Gd5 Al31 N36'
_cell_volume   837.85273567
_cell_formula_units_Z   1
loop_
 _symmetry_equiv_pos_site_id
 _symmetry_equiv_pos_as_xyz
  1  'x, y, z'
loop_
 _atom_site_type_symbol
 _atom_site_label
 _atom_site_symmetry_multiplicity
 _atom_site_fract_x
 _atom_site_fract_y
 _atom_site_fract_z
 _atom_site_occupancy
  Al  Al0  1  0.11190329  0.08506697  0.31566517  1
  Al  Al1  1  0.77876584  0.09063281  0.80004967  1
  Al  Al2  1  0.89796582  0.19666843  0.56394212  1
  Al  Al3  1  0.44275980  0.09528560  0.32719983  1
  Al  Al4  1  0.11169905  0.09070990  0.79794059  1
  Al  Al5  1  0.21688167  0.20822562  0.55943762  1
  Al  Al6  1  0.78794409  0.08472476  0.31642642  1
  Al  Al7  1  0.89502390  0.19265839  0.05075912  1
  Al  Al8  1  0.44408317  0.09462511  0.78318377  1
  Al  Al9  1  0.55507180  0.20422943  0.55590607  1
  Al  Al10  1  0.11190392  0.43636170  0.31566453  1
  Al  Al11  1  0.21363191  0.55072092  0.06123838  1
  Al  Al12  1  0.78740691  0.42296358  0.81866494  1
  Al  Al13  1  0.89796591  0.53869889  0.56394169  1
  Al  Al14  1  0.43476988  0.43652920  0.30766999  1
  Al  Al15  1  0.54279847  0.54526663  0.04661250  1
  Al  Al16  1  0.11169896  0.43092476  0.79794074  1
  Al  Al17  1  0.21688946  0.54028479  0.55687812  1
  Al  Al18  1  0.89502489  0.54565043  0.05075927  1
  Al  Al19  1  0.43427640  0.42528619  0.80343654  1
  Al  Al20  1  0.11100140  0.76116546  0.30926839  1
  Al  Al21  1  0.21363148  0.86897997  0.06123911  1
  Al  Al22  1  0.77876604  0.76393516  0.80004958  1
  Al  Al23  1  0.89130857  0.87101241  0.55856924  1
  Al  Al24  1  0.43476983  0.76203270  0.30767041  1
  Al  Al25  1  0.10963136  0.76185128  0.80952263  1
  Al  Al26  1  0.21688966  0.87615830  0.55687812  1
  Al  Al27  1  0.78794449  0.76066371  0.31642631  1
  Al  Al28  1  0.90049552  0.86641889  0.06300385  1
  Al  Al29  1  0.43427644  0.77377062  0.80343629  1
  Al  Al30  1  0.55507221  0.87403081  0.55590620  1
  Gd  Gd31  1  0.21279632  0.21026716  0.05607797  1
  Gd  Gd32  1  0.56287631  0.20732856  0.06090013  1
  Gd  Gd33  1  0.78633381  0.42349935  0.29868513  1
  Gd  Gd34  1  0.55762634  0.53785258  0.57401091  1
  Gd  Gd35  1  0.56287728  0.86312423  0.06089991  1
  N  N36  1  0.21399177  0.20967022  0.36874470  1
  N  N37  1  0.09745861  0.08039611  0.12948150  1
  N  N38  1  0.89295636  0.19607753  0.86398362  1
  N  N39  1  0.77821298  0.09262945  0.61483698  1
  N  N40  1  0.55917465  0.20972900  0.36528749  1
  N  N41  1  0.44132914  0.09600003  0.14753498  1
  N  N42  1  0.22317189  0.20508093  0.83421417  1
  N  N43  1  0.11259722  0.09001486  0.61431534  1
  N  N44  1  0.90200025  0.17960512  0.38164476  1
  N  N45  1  0.80853806  0.07688996  0.13052568  1
  N  N46  1  0.55462611  0.20150772  0.84142557  1
  N  N47  1  0.44405279  0.09463986  0.59677832  1
  N  N48  1  0.22142206  0.54277903  0.37052588  1
  N  N49  1  0.09746018  0.45547689  0.12948066  1
  N  N50  1  0.89295622  0.54430015  0.86398382  1
  N  N51  1  0.81504171  0.40914605  0.62919981  1
  N  N52  1  0.53527014  0.54903073  0.35878441  1
  N  N53  1  0.42510501  0.45660101  0.12119894  1
  N  N54  1  0.21810652  0.54004383  0.87032694  1
  N  N55  1  0.11259705  0.43072114  0.61431537  1
  N  N56  1  0.90200087  0.55172698  0.38164414  1
  N  N57  1  0.77585836  0.42873781  0.07669078  1
  N  N58  1  0.54875527  0.54228907  0.85221902  1
  N  N59  1  0.42447653  0.41444120  0.62136922  1
  N  N60  1  0.22142193  0.86913131  0.37052608  1
  N  N61  1  0.11041338  0.76145963  0.12027233  1
  N  N62  1  0.88706489  0.87313458  0.86929214  1
  N  N63  1  0.77821337  0.76249094  0.61483687  1
  N  N64  1  0.55917519  0.86442759  0.36528778  1
  N  N65  1  0.42510432  0.75162573  0.12119967  1
  N  N66  1  0.21810671  0.87518355  0.87032733  1
  N  N67  1  0.11101824  0.76115755  0.62031322  1
  N  N68  1  0.89330383  0.87001454  0.37338116  1
  N  N69  1  0.80853892  0.74790520  0.13052574  1
  N  N70  1  0.55462609  0.87719969  0.84142542  1
  N  N71  1  0.42447702  0.79441436  0.62136896  1
