# generated using pymatgen
data_Gd5Al31N36
_symmetry_space_group_name_H-M   'P 1'
_cell_length_a   9.60829871
_cell_length_b   9.64197576
_cell_length_c   10.76284837
_cell_angle_alpha   90.00003816
_cell_angle_beta   89.57966041
_cell_angle_gamma   59.88403026
_symmetry_Int_Tables_number   1
_chemical_formula_structural   Gd5Al31N36
_chemical_formula_sum   'Gd5 Al31 N36'
_cell_volume   862.47410688
_cell_formula_units_Z   1
loop_
 _symmetry_equiv_pos_site_id
 _symmetry_equiv_pos_as_xyz
  1  'x, y, z'
loop_
 _atom_site_type_symbol
 _atom_site_label
 _atom_site_symmetry_multiplicity
 _atom_site_fract_x
 _atom_site_fract_y
 _atom_site_fract_z
 _atom_site_occupancy
  Al  Al0  1  0.12207117  0.08119801  0.39980715  1
  Al  Al1  1  0.77825203  0.09073338  0.79654522  1
  Al  Al2  1  0.88961387  0.20015161  0.56683379  1
  Al  Al3  1  0.44763944  0.09284671  0.33003210  1
  Al  Al4  1  0.11851907  0.08830762  0.86707916  1
  Al  Al5  1  0.21415283  0.20959005  0.62060289  1
  Al  Al6  1  0.78657654  0.08843404  0.31359575  1
  Al  Al7  1  0.88787830  0.19651123  0.03842507  1
  Al  Al8  1  0.44923723  0.09204785  0.78440425  1
  Al  Al9  1  0.55507684  0.20265812  0.55599214  1
  Al  Al10  1  0.12207111  0.43006373  0.39980716  1
  Al  Al11  1  0.21295907  0.54464161  0.12469508  1
  Al  Al12  1  0.78566107  0.42383592  0.80801116  1
  Al  Al13  1  0.88961385  0.54356734  0.56683382  1
  Al  Al14  1  0.44151136  0.42838137  0.30145071  1
  Al  Al15  1  0.55013930  0.54159679  0.04412970  1
  Al  Al16  1  0.11851904  0.42650631  0.86707914  1
  Al  Al17  1  0.21105095  0.54401702  0.63397997  1
  Al  Al18  1  0.88787830  0.54894332  0.03842511  1
  Al  Al19  1  0.44798096  0.42165651  0.79858551  1
  Al  Al20  1  0.10616111  0.76358586  0.32223463  1
  Al  Al21  1  0.21295900  0.87573229  0.12469512  1
  Al  Al22  1  0.77825197  0.76434753  0.79654523  1
  Al  Al23  1  0.89212410  0.87060434  0.55268287  1
  Al  Al24  1  0.44151138  0.76344009  0.30145070  1
  Al  Al25  1  0.10707828  0.76312733  0.84555980  1
  Al  Al26  1  0.21105087  0.87826497  0.63397994  1
  Al  Al27  1  0.78657643  0.75832225  0.31359575  1
  Al  Al28  1  0.89652065  0.86840610  0.06521202  1
  Al  Al29  1  0.44798091  0.76369547  0.79858549  1
  Al  Al30  1  0.55507675  0.87559795  0.55599213  1
  Gd  Gd31  1  0.17872871  0.22730215  0.14969815  1
  Gd  Gd32  1  0.55637764  0.20477985  0.05325907  1
  Gd  Gd33  1  0.78597908  0.42367676  0.29482205  1
  Gd  Gd34  1  0.55431938  0.53950679  0.55745878  1
  Gd  Gd35  1  0.55637762  0.87217537  0.05325908  1
  N  N36  1  0.21731445  0.20800926  0.36160429  1
  N  N37  1  0.11437144  0.07189255  0.04316846  1
  N  N38  1  0.88124889  0.20261928  0.85899896  1
  N  N39  1  0.77875041  0.08961387  0.61690513  1
  N  N40  1  0.55850470  0.20938152  0.37077551  1
  N  N41  1  0.43761337  0.09785973  0.15444089  1
  N  N42  1  0.21623607  0.20854849  0.80634926  1
  N  N43  1  0.11663477  0.08719617  0.57660606  1
  N  N44  1  0.89374830  0.18619596  0.38683119  1
  N  N45  1  0.80755109  0.08287803  0.13242690  1
  N  N46  1  0.55424534  0.20169520  0.84218841  1
  N  N47  1  0.44747439  0.09292923  0.60498938  1
  N  N48  1  0.21247495  0.53474131  0.31046742  1
  N  N49  1  0.11437145  0.44706879  0.04316844  1
  N  N50  1  0.88124882  0.54946494  0.85899897  1
  N  N51  1  0.81042645  0.41145315  0.63009736  1
  N  N52  1  0.52932196  0.55200553  0.35285858  1
  N  N53  1  0.44013374  0.44790643  0.12075198  1
  N  N54  1  0.21745410  0.54335465  0.81527364  1
  N  N55  1  0.11663473  0.42950185  0.57660606  1
  N  N56  1  0.89374819  0.55338870  0.38683119  1
  N  N57  1  0.78719799  0.42306739  0.08076427  1
  N  N58  1  0.55238780  0.54047265  0.85789193  1
  N  N59  1  0.43596926  0.41039096  0.62302490  1
  N  N60  1  0.21247497  0.88611662  0.31046743  1
  N  N61  1  0.11058680  0.76137298  0.10275886  1
  N  N62  1  0.88026019  0.87653642  0.87511940  1
  N  N63  1  0.77875033  0.76496847  0.61690514  1
  N  N64  1  0.55850463  0.86544684  0.37077550  1
  N  N65  1  0.44013367  0.74529267  0.12075198  1
  N  N66  1  0.21745405  0.87252431  0.81527362  1
  N  N67  1  0.11116855  0.76108206  0.59297401  1
  N  N68  1  0.88635256  0.87349017  0.37086623  1
  N  N69  1  0.80755103  0.74290369  0.13242691  1
  N  N70  1  0.55424528  0.87739259  0.84218841  1
  N  N71  1  0.43596915  0.78697266  0.62302488  1
