# generated using pymatgen
data_Gd5Al31N36
_symmetry_space_group_name_H-M   'P 1'
_cell_length_a   9.69056744
_cell_length_b   9.69280032
_cell_length_c   10.59870219
_cell_angle_alpha   89.99977044
_cell_angle_beta   88.68386770
_cell_angle_gamma   59.99472796
_symmetry_Int_Tables_number   1
_chemical_formula_structural   Gd5Al31N36
_chemical_formula_sum   'Gd5 Al31 N36'
_cell_volume   861.79889178
_cell_formula_units_Z   1
loop_
 _symmetry_equiv_pos_site_id
 _symmetry_equiv_pos_as_xyz
  1  'x, y, z'
loop_
 _atom_site_type_symbol
 _atom_site_label
 _atom_site_symmetry_multiplicity
 _atom_site_fract_x
 _atom_site_fract_y
 _atom_site_fract_z
 _atom_site_occupancy
  Al  Al0  1  0.12742386  0.08237915  0.41822727  1
  Al  Al1  1  0.77993862  0.09153320  0.82461145  1
  Al  Al2  1  0.89199397  0.20158413  0.58948876  1
  Al  Al3  1  0.45346102  0.08993633  0.42278331  1
  Al  Al4  1  0.11310293  0.08765341  0.89110535  1
  Al  Al5  1  0.21789663  0.20771886  0.65379836  1
  Al  Al6  1  0.79353284  0.08770749  0.34924593  1
  Al  Al7  1  0.88494887  0.19795593  0.06661450  1
  Al  Al8  1  0.43724496  0.09804415  0.88921947  1
  Al  Al9  1  0.54560824  0.20525812  0.65185085  1
  Al  Al10  1  0.12742282  0.42352831  0.41822711  1
  Al  Al11  1  0.21584789  0.54903095  0.14444734  1
  Al  Al12  1  0.79189412  0.42071795  0.83211811  1
  Al  Al13  1  0.89199391  0.53975507  0.58948930  1
  Al  Al14  1  0.43649057  0.42320259  0.41361761  1
  Al  Al15  1  0.55588362  0.53872606  0.05324418  1
  Al  Al16  1  0.11310212  0.43257527  0.89110587  1
  Al  Al17  1  0.21226464  0.54123179  0.65434327  1
  Al  Al18  1  0.88494771  0.55042762  0.06661502  1
  Al  Al19  1  0.43003796  0.43040656  0.88945851  1
  Al  Al20  1  0.12651270  0.75340905  0.40049932  1
  Al  Al21  1  0.21584898  0.86845501  0.14444686  1
  Al  Al22  1  0.77993795  0.76185886  0.82461156  1
  Al  Al23  1  0.89143023  0.87095151  0.61255886  1
  Al  Al24  1  0.43649068  0.77364017  0.41361791  1
  Al  Al25  1  0.10205445  0.76563851  0.90315930  1
  Al  Al26  1  0.21226424  0.87983749  0.65434364  1
  Al  Al27  1  0.79353142  0.75209045  0.34924730  1
  Al  Al28  1  0.90899665  0.86216811  0.15884409  1
  Al  Al29  1  0.43003822  0.77288759  0.88945868  1
  Al  Al30  1  0.54560737  0.88247010  0.65185087  1
  Gd  Gd31  1  0.19911767  0.21710838  0.15544795  1
  Gd  Gd32  1  0.55104852  0.21783052  0.14901953  1
  Gd  Gd33  1  0.77590948  0.42870959  0.32803006  1
  Gd  Gd34  1  0.54789944  0.54271978  0.63007424  1
  Gd  Gd35  1  0.55104829  0.86446026  0.14901969  1
  N  N36  1  0.23192294  0.20070651  0.37248997  1
  N  N37  1  0.10686160  0.07355710  0.07125385  1
  N  N38  1  0.88027650  0.20413391  0.88509994  1
  N  N39  1  0.77823751  0.09551473  0.64010944  1
  N  N40  1  0.56218818  0.20082681  0.36662644  1
  N  N41  1  0.43548657  0.09892364  0.06497196  1
  N  N42  1  0.21361786  0.20985902  0.83776997  1
  N  N43  1  0.11601716  0.09123375  0.60133683  1
  N  N44  1  0.90262622  0.18478026  0.40940681  1
  N  N45  1  0.81348074  0.08310096  0.16234772  1
  N  N46  1  0.54622582  0.21099897  0.83741639  1
  N  N47  1  0.44304368  0.09514398  0.60296820  1
  N  N48  1  0.22782025  0.53128836  0.33471556  1
  N  N49  1  0.10686002  0.45291179  0.07125439  1
  N  N50  1  0.88027580  0.54892443  0.88509928  1
  N  N51  1  0.81333430  0.40999649  0.65196549  1
  N  N52  1  0.52898803  0.55217546  0.39983816  1
  N  N53  1  0.42196225  0.45512221  0.06740793  1
  N  N54  1  0.21497292  0.54804255  0.83403031  1
  N  N55  1  0.11601685  0.42607880  0.60133602  1
  N  N56  1  0.90262444  0.54592925  0.40940777  1
  N  N57  1  0.77431979  0.42950324  0.10756811  1
  N  N58  1  0.55822476  0.53755592  0.86323834  1
  N  N59  1  0.42075556  0.41096557  0.59229064  1
  N  N60  1  0.22782088  0.87422602  0.33471522  1
  N  N61  1  0.11220239  0.76056384  0.08999429  1
  N  N62  1  0.88760139  0.87286687  0.85536625  1
  N  N63  1  0.77823650  0.75957565  0.64010921  1
  N  N64  1  0.56218789  0.87032410  0.36662674  1
  N  N65  1  0.42196524  0.75624492  0.06740810  1
  N  N66  1  0.21497277  0.87032033  0.83403112  1
  N  N67  1  0.11909511  0.75711737  0.58556233  1
  N  N68  1  0.90279394  0.86527042  0.36911841  1
  N  N69  1  0.81348050  0.73674489  0.16234829  1
  N  N70  1  0.54622549  0.87611297  0.83741671  1
  N  N71  1  0.42075409  0.80161131  0.59229007  1
