# generated using pymatgen
data_Gd5Al31N36
_symmetry_space_group_name_H-M   'P 1'
_cell_length_a   9.68040608
_cell_length_b   9.69840035
_cell_length_c   10.56813623
_cell_angle_alpha   89.99752032
_cell_angle_beta   88.88275125
_cell_angle_gamma   59.92931754
_symmetry_Int_Tables_number   1
_chemical_formula_structural   Gd5Al31N36
_chemical_formula_sum   'Gd5 Al31 N36'
_cell_volume   858.42614790
_cell_formula_units_Z   1
loop_
 _symmetry_equiv_pos_site_id
 _symmetry_equiv_pos_as_xyz
  1  'x, y, z'
loop_
 _atom_site_type_symbol
 _atom_site_label
 _atom_site_symmetry_multiplicity
 _atom_site_fract_x
 _atom_site_fract_y
 _atom_site_fract_z
 _atom_site_occupancy
  Al  Al0  1  0.12667810  0.08219093  0.41826100  1
  Al  Al1  1  0.78062593  0.08930071  0.82881783  1
  Al  Al2  1  0.89169078  0.19902730  0.59003640  1
  Al  Al3  1  0.45495262  0.08919573  0.42150447  1
  Al  Al4  1  0.11320618  0.08802975  0.89087841  1
  Al  Al5  1  0.21940242  0.20696474  0.65273010  1
  Al  Al6  1  0.79901544  0.07900542  0.34069409  1
  Al  Al7  1  0.88371704  0.19873934  0.06682058  1
  Al  Al8  1  0.43632487  0.09850556  0.89006573  1
  Al  Al9  1  0.54951341  0.20231036  0.65180290  1
  Al  Al10  1  0.12667942  0.42447845  0.41825946  1
  Al  Al11  1  0.21237705  0.55232612  0.14500015  1
  Al  Al12  1  0.79195844  0.42068918  0.83067602  1
  Al  Al13  1  0.89169057  0.54261358  0.59003530  1
  Al  Al14  1  0.43745698  0.42211318  0.41242689  1
  Al  Al15  1  0.55542704  0.53894253  0.05596262  1
  Al  Al16  1  0.11320930  0.43209721  0.89087835  1
  Al  Al17  1  0.21390159  0.54019160  0.65275332  1
  Al  Al18  1  0.88371942  0.55086528  0.06681888  1
  Al  Al19  1  0.43197571  0.42895282  0.89064674  1
  Al  Al20  1  0.12735209  0.75299859  0.40090970  1
  Al  Al21  1  0.21237991  0.86861648  0.14499767  1
  Al  Al22  1  0.78062670  0.76340906  0.82881855  1
  Al  Al23  1  0.88786560  0.87273370  0.58109801  1
  Al  Al24  1  0.43745567  0.77377884  0.41242622  1
  Al  Al25  1  0.11473594  0.75930011  0.90172214  1
  Al  Al26  1  0.21390388  0.87923804  0.65275307  1
  Al  Al27  1  0.79901578  0.75532272  0.34069230  1
  Al  Al28  1  0.89177618  0.87077231  0.08445328  1
  Al  Al29  1  0.43197463  0.77240786  0.89064581  1
  Al  Al30  1  0.54951610  0.88149947  0.65180637  1
  Gd  Gd31  1  0.19463313  0.21933795  0.15659025  1
  Gd  Gd32  1  0.54770262  0.21894898  0.14913919  1
  Gd  Gd33  1  0.77588301  0.42873736  0.33177045  1
  Gd  Gd34  1  0.54551611  0.54389784  0.63047677  1
  Gd  Gd35  1  0.54770919  0.86664364  0.14912979  1
  N  N36  1  0.23107467  0.20112979  0.37328547  1
  N  N37  1  0.10564032  0.07343618  0.07127304  1
  N  N38  1  0.88041488  0.20460674  0.88456398  1
  N  N39  1  0.78406590  0.08762142  0.64649402  1
  N  N40  1  0.56441228  0.19953365  0.36518424  1
  N  N41  1  0.43047651  0.10142778  0.06603124  1
  N  N42  1  0.21373636  0.20979246  0.83734225  1
  N  N43  1  0.11620868  0.09137375  0.60138070  1
  N  N44  1  0.90186334  0.18123038  0.40780702  1
  N  N45  1  0.81257919  0.07655813  0.15490533  1
  N  N46  1  0.54725239  0.20972439  0.83950370  1
  N  N47  1  0.44532098  0.09401272  0.60242804  1
  N  N48  1  0.22638373  0.53244888  0.33462254  1
  N  N49  1  0.10564405  0.45426146  0.07127526  1
  N  N50  1  0.88041825  0.54829073  0.88456753  1
  N  N51  1  0.81205296  0.41064831  0.64906142  1
  N  N52  1  0.52732412  0.55300240  0.39901731  1
  N  N53  1  0.42069632  0.45651062  0.06857990  1
  N  N54  1  0.21662972  0.54621515  0.83278370  1
  N  N55  1  0.11621095  0.42577096  0.60138317  1
  N  N56  1  0.90186551  0.55022770  0.40780688  1
  N  N57  1  0.77515690  0.42909115  0.11027809  1
  N  N58  1  0.55899740  0.53716224  0.86428188  1
  N  N59  1  0.42321597  0.40783622  0.59143664  1
  N  N60  1  0.22638318  0.87450684  0.33462133  1
  N  N61  1  0.11394021  0.75970186  0.08593745  1
  N  N62  1  0.87918613  0.87706452  0.89715525  1
  N  N63  1  0.78406753  0.76166088  0.64649557  1
  N  N64  1  0.56440934  0.86938626  0.36517541  1
  N  N65  1  0.42069003  0.75613084  0.06858021  1
  N  N66  1  0.21663292  0.87047555  0.83278139  1
  N  N67  1  0.12335754  0.75499947  0.58752169  1
  N  N68  1  0.89568398  0.86881779  0.39856957  1
  N  N69  1  0.81258171  0.74419908  0.15490528  1
  N  N70  1  0.54725342  0.87634239  0.83950714  1
  N  N71  1  0.42322314  0.80229177  0.59143921  1
