# generated using pymatgen
data_Gd5Al31N36
_symmetry_space_group_name_H-M   'P 1'
_cell_length_a   9.70371986
_cell_length_b   9.73628206
_cell_length_c   10.31409227
_cell_angle_alpha   90.08681219
_cell_angle_beta   90.27469829
_cell_angle_gamma   59.87159367
_symmetry_Int_Tables_number   1
_chemical_formula_structural   Gd5Al31N36
_chemical_formula_sum   'Gd5 Al31 N36'
_cell_volume   842.79980632
_cell_formula_units_Z   1
loop_
 _symmetry_equiv_pos_site_id
 _symmetry_equiv_pos_as_xyz
  1  'x, y, z'
loop_
 _atom_site_type_symbol
 _atom_site_label
 _atom_site_symmetry_multiplicity
 _atom_site_fract_x
 _atom_site_fract_y
 _atom_site_fract_z
 _atom_site_occupancy
  Al  Al0  1  0.11206079  0.08591650  0.40558292  1
  Al  Al1  1  0.78517581  0.08778230  0.89215415  1
  Al  Al2  1  0.89319177  0.19854106  0.65036635  1
  Al  Al3  1  0.44380897  0.09415024  0.42397151  1
  Al  Al4  1  0.11056621  0.08987255  0.89308502  1
  Al  Al5  1  0.21525245  0.20883289  0.64560121  1
  Al  Al6  1  0.78336620  0.08409951  0.40660690  1
  Al  Al7  1  0.89925128  0.18749284  0.14178036  1
  Al  Al8  1  0.44357698  0.09524460  0.88377213  1
  Al  Al9  1  0.55436661  0.20066183  0.65012313  1
  Al  Al10  1  0.11225470  0.43471376  0.40577015  1
  Al  Al11  1  0.21929364  0.54938200  0.14493048  1
  Al  Al12  1  0.79065327  0.42149676  0.86061999  1
  Al  Al13  1  0.89311118  0.54132866  0.65032807  1
  Al  Al14  1  0.42955455  0.42661140  0.41284313  1
  Al  Al15  1  0.56021563  0.53706625  0.06758351  1
  Al  Al16  1  0.11039662  0.43333441  0.89314551  1
  Al  Al17  1  0.21027839  0.54053575  0.64961839  1
  Al  Al18  1  0.89913212  0.54733472  0.14219075  1
  Al  Al19  1  0.43506589  0.42582526  0.89137796  1
  Al  Al20  1  0.11441828  0.75913940  0.39468309  1
  Al  Al21  1  0.21928302  0.86528368  0.14504734  1
  Al  Al22  1  0.78524742  0.76060668  0.89240348  1
  Al  Al23  1  0.89288312  0.87000126  0.64843381  1
  Al  Al24  1  0.42973407  0.77594957  0.41252081  1
  Al  Al25  1  0.11085198  0.76140786  0.89955214  1
  Al  Al26  1  0.21043336  0.88204124  0.64943743  1
  Al  Al27  1  0.78344835  0.76535777  0.40644313  1
  Al  Al28  1  0.90110203  0.86650362  0.14542402  1
  Al  Al29  1  0.43508216  0.77282784  0.89135587  1
  Al  Al30  1  0.55445019  0.87771784  0.65025662  1
  Gd  Gd31  1  0.21194949  0.21132319  0.15134146  1
  Gd  Gd32  1  0.56339666  0.21174603  0.15127139  1
  Gd  Gd33  1  0.77540069  0.42891108  0.37409425  1
  Gd  Gd34  1  0.53866296  0.54700359  0.63693033  1
  Gd  Gd35  1  0.56296680  0.86022461  0.15085502  1
  N  N36  1  0.22067098  0.20590414  0.37350578  1
  N  N37  1  0.10580024  0.07429037  0.07522509  1
  N  N38  1  0.89208077  0.19965021  0.83660087  1
  N  N39  1  0.78027298  0.09146791  0.59432523  1
  N  N40  1  0.55588371  0.20166917  0.37092948  1
  N  N41  1  0.44538783  0.09508515  0.06451762  1
  N  N42  1  0.21544284  0.20905498  0.83752127  1
  N  N43  1  0.10457836  0.09520309  0.59159482  1
  N  N44  1  0.90467164  0.16828253  0.32958657  1
  N  N45  1  0.80647873  0.07434780  0.07435926  1
  N  N46  1  0.55985853  0.20532576  0.83924997  1
  N  N47  1  0.44215608  0.09521838  0.60845005  1
  N  N48  1  0.22226610  0.53645176  0.33526226  1
  N  N49  1  0.10542489  0.45423864  0.07514729  1
  N  N50  1  0.89199180  0.54184560  0.83653364  1
  N  N51  1  0.80125810  0.41582998  0.61265614  1
  N  N52  1  0.51789523  0.55702497  0.39788283  1
  N  N53  1  0.42592243  0.45304820  0.07321264  1
  N  N54  1  0.21782153  0.54422835  0.83441560  1
  N  N55  1  0.10453896  0.43306086  0.59166396  1
  N  N56  1  0.90517418  0.55973676  0.32979458  1
  N  N57  1  0.78441665  0.42476491  0.11154324  1
  N  N58  1  0.56258320  0.53557277  0.86988389  1
  N  N59  1  0.41848741  0.40922998  0.59507237  1
  N  N60  1  0.22213918  0.87387655  0.33538371  1
  N  N61  1  0.11278857  0.76059009  0.08816044  1
  N  N62  1  0.89365007  0.86982899  0.83338380  1
  N  N63  1  0.78023828  0.76116991  0.59418417  1
  N  N64  1  0.55603838  0.87433725  0.37064658  1
  N  N65  1  0.42597624  0.75550518  0.07328453  1
  N  N66  1  0.21789515  0.87134148  0.83430554  1
  N  N67  1  0.11254335  0.76010906  0.58492427  1
  N  N68  1  0.88903499  0.87194610  0.33850534  1
  N  N69  1  0.80638464  0.75310770  0.07466798  1
  N  N70  1  0.55984125  0.86848283  0.83951793  1
  N  N71  1  0.41874549  0.80477709  0.59495168  1
