# generated using pymatgen
data_Gd5Al31N36
_symmetry_space_group_name_H-M   'P 1'
_cell_length_a   9.70847451
_cell_length_b   9.68427144
_cell_length_c   10.61464008
_cell_angle_alpha   89.38288376
_cell_angle_beta   88.83488022
_cell_angle_gamma   60.10648215
_symmetry_Int_Tables_number   1
_chemical_formula_structural   Gd5Al31N36
_chemical_formula_sum   'Gd5 Al31 N36'
_cell_volume   865.02553389
_cell_formula_units_Z   1
loop_
 _symmetry_equiv_pos_site_id
 _symmetry_equiv_pos_as_xyz
  1  'x, y, z'
loop_
 _atom_site_type_symbol
 _atom_site_label
 _atom_site_symmetry_multiplicity
 _atom_site_fract_x
 _atom_site_fract_y
 _atom_site_fract_z
 _atom_site_occupancy
  Al  Al0  1  0.12028490  0.08315916  0.39181823  1
  Al  Al1  1  0.77261243  0.09074522  0.79839070  1
  Al  Al2  1  0.89115380  0.20089598  0.56753134  1
  Al  Al3  1  0.45039241  0.09491002  0.32669617  1
  Al  Al4  1  0.10857422  0.08144805  0.86589821  1
  Al  Al5  1  0.22893667  0.20010097  0.56898693  1
  Al  Al6  1  0.78837256  0.08953889  0.31612989  1
  Al  Al7  1  0.88400641  0.19918128  0.04243927  1
  Al  Al8  1  0.44080825  0.09298204  0.78667501  1
  Al  Al9  1  0.55803348  0.20209667  0.55594340  1
  Al  Al10  1  0.12003395  0.43421580  0.38524219  1
  Al  Al11  1  0.20930513  0.54653147  0.14019143  1
  Al  Al12  1  0.77873704  0.42360396  0.81366932  1
  Al  Al13  1  0.88930047  0.54310106  0.56981800  1
  Al  Al14  1  0.44717201  0.43126204  0.30754699  1
  Al  Al15  1  0.54149932  0.54642824  0.04624441  1
  Al  Al16  1  0.10396255  0.42448309  0.80643406  1
  Al  Al17  1  0.21736530  0.54167807  0.62483461  1
  Al  Al18  1  0.89057622  0.54724121  0.04019256  1
  Al  Al19  1  0.44054299  0.42147265  0.80007569  1
  Al  Al20  1  0.10345646  0.76953113  0.31712417  1
  Al  Al21  1  0.21097726  0.87698456  0.13008446  1
  Al  Al22  1  0.77341792  0.76569989  0.79812694  1
  Al  Al23  1  0.88843026  0.87305793  0.55637152  1
  Al  Al24  1  0.44480321  0.76293111  0.30339939  1
  Al  Al25  1  0.09688071  0.76301010  0.80979931  1
  Al  Al26  1  0.21340246  0.88125837  0.63173797  1
  Al  Al27  1  0.78855666  0.76139973  0.31608684  1
  Al  Al28  1  0.90197400  0.86525966  0.06725807  1
  Al  Al29  1  0.44267172  0.76395767  0.80050424  1
  Al  Al30  1  0.55681397  0.87425257  0.55624415  1
  Gd  Gd31  1  0.22115006  0.20999375  0.06609694  1
  Gd  Gd32  1  0.56717963  0.20829328  0.05784404  1
  Gd  Gd33  1  0.80038099  0.42369927  0.28948314  1
  Gd  Gd34  1  0.56023791  0.53800433  0.55909954  1
  Gd  Gd35  1  0.56536021  0.86642478  0.05578810  1
  N  N36  1  0.22697532  0.20801011  0.37927571  1
  N  N37  1  0.10183737  0.06984794  0.04799319  1
  N  N38  1  0.87570464  0.20108605  0.85979223  1
  N  N39  1  0.77748815  0.09139643  0.61729605  1
  N  N40  1  0.56234298  0.20938095  0.37108009  1
  N  N41  1  0.45408849  0.09303347  0.15312523  1
  N  N42  1  0.21819706  0.20185199  0.83812652  1
  N  N43  1  0.11583929  0.08805220  0.57495909  1
  N  N44  1  0.89570657  0.18855704  0.38483965  1
  N  N45  1  0.81026101  0.07990133  0.13532171  1
  N  N46  1  0.54911355  0.20036139  0.84326112  1
  N  N47  1  0.44869945  0.09218501  0.60549628  1
  N  N48  1  0.22276416  0.54211174  0.33363835  1
  N  N49  1  0.09261039  0.45759288  0.09383070  1
  N  N50  1  0.88227946  0.54659715  0.85677265  1
  N  N51  1  0.81032491  0.41048886  0.63242439  1
  N  N52  1  0.54486465  0.54840518  0.35068309  1
  N  N53  1  0.43184818  0.45227869  0.12501480  1
  N  N54  1  0.21367300  0.53869481  0.81341613  1
  N  N55  1  0.11248815  0.42592713  0.59938681  1
  N  N56  1  0.89914172  0.55604503  0.39155540  1
  N  N57  1  0.77426227  0.42884838  0.07385932  1
  N  N58  1  0.54576562  0.54023667  0.85627625  1
  N  N59  1  0.43678561  0.41043632  0.61931435  1
  N  N60  1  0.21868075  0.88332207  0.31835160  1
  N  N61  1  0.10448642  0.76457487  0.12992054  1
  N  N62  1  0.87981596  0.87406691  0.87414844  1
  N  N63  1  0.77686657  0.76499779  0.61783892  1
  N  N64  1  0.56138499  0.86651281  0.37064546  1
  N  N65  1  0.43435331  0.75075458  0.11985859  1
  N  N66  1  0.21508854  0.86976083  0.81499115  1
  N  N67  1  0.10036715  0.76711493  0.61623594  1
  N  N68  1  0.88848443  0.87507889  0.37602293  1
  N  N69  1  0.80614896  0.74527887  0.13377349  1
  N  N70  1  0.55116591  0.87545976  0.84163218  1
  N  N71  1  0.43472373  0.78690496  0.62065122  1
