# generated using pymatgen
data_Gd5Al31N36
_symmetry_space_group_name_H-M   'P 1'
_cell_length_a   9.70004346
_cell_length_b   9.68125539
_cell_length_c   10.29573877
_cell_angle_alpha   90.00000571
_cell_angle_beta   89.66978820
_cell_angle_gamma   60.06404290
_symmetry_Int_Tables_number   1
_chemical_formula_structural   Gd5Al31N36
_chemical_formula_sum   'Gd5 Al31 N36'
_cell_volume   837.84523595
_cell_formula_units_Z   1
loop_
 _symmetry_equiv_pos_site_id
 _symmetry_equiv_pos_as_xyz
  1  'x, y, z'
loop_
 _atom_site_type_symbol
 _atom_site_label
 _atom_site_symmetry_multiplicity
 _atom_site_fract_x
 _atom_site_fract_y
 _atom_site_fract_z
 _atom_site_occupancy
  Al  Al0  1  0.11197956  0.08504445  0.30341202  1
  Al  Al1  1  0.77887987  0.09057784  0.78778415  1
  Al  Al2  1  0.89804402  0.19664001  0.55167172  1
  Al  Al3  1  0.44280993  0.09526146  0.31494734  1
  Al  Al4  1  0.11180578  0.09064814  0.78564961  1
  Al  Al5  1  0.21696914  0.20818211  0.54719298  1
  Al  Al6  1  0.78801883  0.08468768  0.30416529  1
  Al  Al7  1  0.89511720  0.19259777  0.03849460  1
  Al  Al8  1  0.44420891  0.09456219  0.77088826  1
  Al  Al9  1  0.55517185  0.20418256  0.54362906  1
  Al  Al10  1  0.11197964  0.43630914  0.30341202  1
  Al  Al11  1  0.21373365  0.55066231  0.04898891  1
  Al  Al12  1  0.78751420  0.42290973  0.80643737  1
  Al  Al13  1  0.89804402  0.53864944  0.55167168  1
  Al  Al14  1  0.43485680  0.43648413  0.29540918  1
  Al  Al15  1  0.54289274  0.54522014  0.03433370  1
  Al  Al16  1  0.11180579  0.43087972  0.78564960  1
  Al  Al17  1  0.21698432  0.54024263  0.54460327  1
  Al  Al18  1  0.89511733  0.54561855  0.03849464  1
  Al  Al19  1  0.43438783  0.42522554  0.79117104  1
  Al  Al20  1  0.11108298  0.76112512  0.29699564  1
  Al  Al21  1  0.21373354  0.86893748  0.04898895  1
  Al  Al22  1  0.77887988  0.76387588  0.78778412  1
  Al  Al23  1  0.89141050  0.87096153  0.54630934  1
  Al  Al24  1  0.43485676  0.76199203  0.29540919  1
  Al  Al25  1  0.10975238  0.76179061  0.79727432  1
  Al  Al26  1  0.21698435  0.87610641  0.54460330  1
  Al  Al27  1  0.78801886  0.76062682  0.30416533  1
  Al  Al28  1  0.90058741  0.86637304  0.05073335  1
  Al  Al29  1  0.43438780  0.77371992  0.79117105  1
  Al  Al30  1  0.55517190  0.87397887  0.54362911  1
  Gd  Gd31  1  0.21284505  0.21024411  0.04375773  1
  Gd  Gd32  1  0.56294131  0.20727546  0.04863881  1
  Gd  Gd33  1  0.78639398  0.42346968  0.28638013  1
  Gd  Gd34  1  0.55772534  0.53780397  0.56175558  1
  Gd  Gd35  1  0.56294138  0.86311592  0.04863879  1
  N  N36  1  0.21405780  0.20963768  0.35651246  1
  N  N37  1  0.09754965  0.08035976  0.11722783  1
  N  N38  1  0.89307729  0.19601038  0.85172585  1
  N  N39  1  0.77831291  0.09258120  0.60257347  1
  N  N40  1  0.55925162  0.20968818  0.35301993  1
  N  N41  1  0.44134120  0.09599573  0.13527712  1
  N  N42  1  0.22328838  0.20502262  0.82188915  1
  N  N43  1  0.11268097  0.08996218  0.60203666  1
  N  N44  1  0.90205682  0.17959579  0.36937518  1
  N  N45  1  0.80861397  0.07684795  0.11826161  1
  N  N46  1  0.55474242  0.20144612  0.82916193  1
  N  N47  1  0.44416341  0.09458496  0.58449467  1
  N  N48  1  0.22150153  0.54273703  0.35825522  1
  N  N49  1  0.09754980  0.45542392  0.11722781  1
  N  N50  1  0.89307731  0.54424599  0.85172587  1
  N  N51  1  0.81513812  0.40909770  0.61697372  1
  N  N52  1  0.53535016  0.54899138  0.34653665  1
  N  N53  1  0.42522081  0.45654459  0.10893956  1
  N  N54  1  0.21822341  0.53997413  0.85807552  1
  N  N55  1  0.11268097  0.43069027  0.60203664  1
  N  N56  1  0.90205688  0.55168066  0.36937513  1
  N  N57  1  0.77595959  0.42868702  0.06438124  1
  N  N58  1  0.54885167  0.54224081  0.83995755  1
  N  N59  1  0.42457583  0.41438699  0.60910975  1
  N  N60  1  0.22150153  0.86909465  0.35825525  1
  N  N61  1  0.11051009  0.76141164  0.10799979  1
  N  N62  1  0.88717730  0.87307816  0.85702750  1
  N  N63  1  0.77831297  0.76243939  0.60257344  1
  N  N64  1  0.55925167  0.86439314  0.35302001  1
  N  N65  1  0.42522065  0.75156760  0.10893963  1
  N  N66  1  0.21822338  0.87513610  0.85807556  1
  N  N67  1  0.11112589  0.76110378  0.60806227  1
  N  N68  1  0.89338689  0.86997323  0.36112149  1
  N  N69  1  0.80861400  0.74787163  0.11826165  1
  N  N70  1  0.55474241  0.87714475  0.82916192  1
  N  N71  1  0.42457586  0.79437050  0.60910977  1
