# generated using pymatgen
data_Gd5Al31N36
_symmetry_space_group_name_H-M   'P 1'
_cell_length_a   9.58318548
_cell_length_b   9.62056812
_cell_length_c   10.77729732
_cell_angle_alpha   90.01511207
_cell_angle_beta   89.59301698
_cell_angle_gamma   59.87048717
_symmetry_Int_Tables_number   1
_chemical_formula_structural   Gd5Al31N36
_chemical_formula_sum   'Gd5 Al31 N36'
_cell_volume   859.34516146
_cell_formula_units_Z   1
loop_
 _symmetry_equiv_pos_site_id
 _symmetry_equiv_pos_as_xyz
  1  'x, y, z'
loop_
 _atom_site_type_symbol
 _atom_site_label
 _atom_site_symmetry_multiplicity
 _atom_site_fract_x
 _atom_site_fract_y
 _atom_site_fract_z
 _atom_site_occupancy
  Al  Al0  1  0.12152696  0.08157037  0.39795255  1
  Al  Al1  1  0.77805439  0.08987756  0.79791500  1
  Al  Al2  1  0.89027597  0.20011795  0.56686621  1
  Al  Al3  1  0.44853925  0.09231939  0.32913951  1
  Al  Al4  1  0.11809727  0.08686426  0.86584884  1
  Al  Al5  1  0.21392838  0.20970591  0.62071271  1
  Al  Al6  1  0.78846113  0.08642703  0.31381306  1
  Al  Al7  1  0.88918057  0.19604835  0.03838447  1
  Al  Al8  1  0.44843690  0.09251034  0.78475028  1
  Al  Al9  1  0.55440513  0.20331441  0.55564693  1
  Al  Al10  1  0.12153424  0.43011998  0.39794437  1
  Al  Al11  1  0.20911078  0.55167505  0.12551974  1
  Al  Al12  1  0.78501337  0.42422038  0.80873939  1
  Al  Al13  1  0.89025917  0.54293752  0.56684352  1
  Al  Al14  1  0.44017932  0.42917781  0.30087242  1
  Al  Al15  1  0.54878769  0.54225053  0.04445386  1
  Al  Al16  1  0.11806068  0.42851736  0.86582397  1
  Al  Al17  1  0.21055755  0.54615649  0.63228550  1
  Al  Al18  1  0.88915895  0.54819108  0.03838169  1
  Al  Al19  1  0.44539681  0.42361157  0.79796892  1
  Al  Al20  1  0.11755153  0.75781534  0.37617793  1
  Al  Al21  1  0.20905448  0.87259395  0.12559708  1
  Al  Al22  1  0.77801956  0.76554824  0.79793664  1
  Al  Al23  1  0.88483463  0.87423568  0.55306698  1
  Al  Al24  1  0.44015268  0.76376719  0.30090363  1
  Al  Al25  1  0.11494272  0.75926170  0.87965663  1
  Al  Al26  1  0.21055429  0.87663589  0.63228570  1
  Al  Al27  1  0.78845247  0.75833441  0.31377504  1
  Al  Al28  1  0.89545239  0.86896798  0.06364735  1
  Al  Al29  1  0.44540155  0.76446065  0.79795947  1
  Al  Al30  1  0.55439421  0.87560663  0.55561555  1
  Gd  Gd31  1  0.18096046  0.22626297  0.14710203  1
  Gd  Gd32  1  0.55796109  0.20507130  0.05304827  1
  Gd  Gd33  1  0.78503682  0.42404033  0.29436387  1
  Gd  Gd34  1  0.55617958  0.53856984  0.55709449  1
  Gd  Gd35  1  0.55785903  0.87020751  0.05312598  1
  N  N36  1  0.21714495  0.20802107  0.35903075  1
  N  N37  1  0.11600379  0.06998611  0.04262176  1
  N  N38  1  0.88037500  0.20311462  0.85964188  1
  N  N39  1  0.77939932  0.08962977  0.61829411  1
  N  N40  1  0.55797527  0.20999255  0.37076154  1
  N  N41  1  0.44057543  0.09637675  0.15363817  1
  N  N42  1  0.21480443  0.20931552  0.80561674  1
  N  N43  1  0.11773976  0.08604769  0.57485646  1
  N  N44  1  0.89288420  0.18703328  0.38733674  1
  N  N45  1  0.81127824  0.08016940  0.13347497  1
  N  N46  1  0.55204329  0.20367210  0.84231972  1
  N  N47  1  0.44760742  0.09286924  0.60511747  1
  N  N48  1  0.20865179  0.54181468  0.31005534  1
  N  N49  1  0.11596666  0.44741424  0.04256597  1
  N  N50  1  0.88032737  0.55001140  0.85963795  1
  N  N51  1  0.81176158  0.41080205  0.63113124  1
  N  N52  1  0.52798314  0.55257739  0.35333706  1
  N  N53  1  0.43870056  0.44852238  0.12165165  1
  N  N54  1  0.21257610  0.54967985  0.81061492  1
  N  N55  1  0.11772838  0.42954137  0.57483970  1
  N  N56  1  0.89288157  0.55329991  0.38727379  1
  N  N57  1  0.78706265  0.42318295  0.08089454  1
  N  N58  1  0.55069950  0.54139731  0.85852208  1
  N  N59  1  0.43595936  0.41121299  0.62257695  1
  N  N60  1  0.20862857  0.88269749  0.31012037  1
  N  N61  1  0.12044649  0.75645129  0.05972501  1
  N  N62  1  0.87646523  0.87851640  0.87492914  1
  N  N63  1  0.77937418  0.76433132  0.61829053  1
  N  N64  1  0.55796216  0.86521826  0.37072890  1
  N  N65  1  0.43862795  0.74602584  0.12173324  1
  N  N66  1  0.21259017  0.87116701  0.81062101  1
  N  N67  1  0.12061503  0.75634071  0.56029764  1
  N  N68  1  0.88422159  0.87449778  0.37369578  1
  N  N69  1  0.81122418  0.74202213  0.13344042  1
  N  N70  1  0.55201268  0.87780681  0.84238733  1
  N  N71  1  0.43595917  0.78620354  0.62257642  1
