# generated using pymatgen
data_Gd5Al31N36
_symmetry_space_group_name_H-M   'P 1'
_cell_length_a   9.71088524
_cell_length_b   9.70625695
_cell_length_c   10.27979646
_cell_angle_alpha   90.00020093
_cell_angle_beta   90.36065720
_cell_angle_gamma   60.01744236
_symmetry_Int_Tables_number   1
_chemical_formula_structural   Gd5Al31N36
_chemical_formula_sum   'Gd5 Al31 N36'
_cell_volume   839.24854398
_cell_formula_units_Z   1
loop_
 _symmetry_equiv_pos_site_id
 _symmetry_equiv_pos_as_xyz
  1  'x, y, z'
loop_
 _atom_site_type_symbol
 _atom_site_label
 _atom_site_symmetry_multiplicity
 _atom_site_fract_x
 _atom_site_fract_y
 _atom_site_fract_z
 _atom_site_occupancy
  Al  Al0  1  0.11104126  0.08677351  0.40786752  1
  Al  Al1  1  0.78460882  0.08917346  0.89084441  1
  Al  Al2  1  0.89387090  0.20270639  0.65273608  1
  Al  Al3  1  0.44249978  0.09541891  0.42477629  1
  Al  Al4  1  0.11040397  0.08999849  0.89218788  1
  Al  Al5  1  0.21578974  0.20877448  0.64692369  1
  Al  Al6  1  0.78213392  0.08569037  0.40780324  1
  Al  Al7  1  0.90141462  0.18302793  0.14188588  1
  Al  Al8  1  0.44397568  0.09468117  0.88239502  1
  Al  Al9  1  0.55409411  0.20376303  0.64907034  1
  Al  Al10  1  0.11104025  0.43552153  0.40786795  1
  Al  Al11  1  0.21605709  0.54989081  0.14804889  1
  Al  Al12  1  0.78963288  0.42185093  0.90313325  1
  Al  Al13  1  0.89387089  0.53675921  0.65273583  1
  Al  Al14  1  0.43041194  0.43108583  0.40792899  1
  Al  Al15  1  0.54841218  0.54246400  0.09532590  1
  Al  Al16  1  0.11040280  0.43293519  0.89218786  1
  Al  Al17  1  0.21371031  0.54176525  0.64952154  1
  Al  Al18  1  0.90141154  0.54889414  0.14188615  1
  Al  Al19  1  0.43555070  0.42820962  0.89694500  1
  Al  Al20  1  0.11081662  0.76125946  0.39615281  1
  Al  Al21  1  0.21605813  0.86739061  0.14804903  1
  Al  Al22  1  0.78460822  0.75955283  0.89084439  1
  Al  Al23  1  0.89228513  0.87052559  0.64886219  1
  Al  Al24  1  0.43041205  0.77183982  0.40792910  1
  Al  Al25  1  0.11054091  0.76139793  0.89988121  1
  Al  Al26  1  0.21370980  0.87786336  0.64952174  1
  Al  Al27  1  0.78213278  0.76551062  0.40780373  1
  Al  Al28  1  0.90052270  0.86640670  0.14521057  1
  Al  Al29  1  0.43555109  0.76957679  0.89694532  1
  Al  Al30  1  0.55409306  0.87548292  0.64907011  1
  Gd  Gd31  1  0.21362541  0.20985854  0.15181944  1
  Gd  Gd32  1  0.56492762  0.20815947  0.15207129  1
  Gd  Gd33  1  0.77828066  0.42752510  0.37378176  1
  Gd  Gd34  1  0.55369373  0.53982463  0.65005437  1
  Gd  Gd35  1  0.56492563  0.86025856  0.15207227  1
  N  N36  1  0.21933529  0.20700202  0.37495965  1
  N  N37  1  0.10558304  0.07466482  0.07516657  1
  N  N38  1  0.88917493  0.20614311  0.83968889  1
  N  N39  1  0.78037973  0.09361892  0.59585382  1
  N  N40  1  0.55464998  0.20290104  0.37199587  1
  N  N41  1  0.44585578  0.09374180  0.06393526  1
  N  N42  1  0.21624457  0.20854789  0.83836941  1
  N  N43  1  0.10671912  0.09322804  0.59473339  1
  N  N44  1  0.90490987  0.16749255  0.32798357  1
  N  N45  1  0.80645835  0.07362924  0.07351806  1
  N  N46  1  0.55872024  0.20788686  0.83952630  1
  N  N47  1  0.44213365  0.09560120  0.60987767  1
  N  N48  1  0.21886498  0.53880871  0.33796798  1
  N  N49  1  0.10557957  0.45308965  0.07516628  1
  N  N50  1  0.88917386  0.53802046  0.83968801  1
  N  N51  1  0.80702339  0.41315411  0.59464678  1
  N  N52  1  0.51882185  0.55725992  0.36284422  1
  N  N53  1  0.42227280  0.45154090  0.07941400  1
  N  N54  1  0.21936644  0.54378944  0.83537180  1
  N  N55  1  0.10671895  0.43338795  0.59473315  1
  N  N56  1  0.90490761  0.56093505  0.32798504  1
  N  N57  1  0.78608977  0.42362086  0.09965117  1
  N  N58  1  0.56066572  0.53633713  0.87699274  1
  N  N59  1  0.42338345  0.41615115  0.59183532  1
  N  N60  1  0.21886527  0.87566455  0.33796779  1
  N  N61  1  0.11176935  0.76078296  0.08937280  1
  N  N62  1  0.89336859  0.86998463  0.83367365  1
  N  N63  1  0.78037895  0.75933412  0.59585405  1
  N  N64  1  0.55464922  0.87579040  0.37199681  1
  N  N65  1  0.42227491  0.75952137  0.07941421  1
  N  N66  1  0.21936642  0.87018405  0.83537235  1
  N  N67  1  0.11035227  0.76149119  0.58579544  1
  N  N68  1  0.88623042  0.87355308  0.33917995  1
  N  N69  1  0.80645733  0.75324410  0.07351830  1
  N  N70  1  0.55871976  0.86673362  0.83952614  1
  N  N71  1  0.42338175  0.79380253  0.59183490  1
