# generated using pymatgen
data_Gd5Al31N36
_symmetry_space_group_name_H-M   'P 1'
_cell_length_a   9.61894282
_cell_length_b   9.63995205
_cell_length_c   10.77756726
_cell_angle_alpha   89.94037272
_cell_angle_beta   89.58386035
_cell_angle_gamma   59.96963258
_symmetry_Int_Tables_number   1
_chemical_formula_structural   Gd5Al31N36
_chemical_formula_sum   'Gd5 Al31 N36'
_cell_volume   865.18146949
_cell_formula_units_Z   1
loop_
 _symmetry_equiv_pos_site_id
 _symmetry_equiv_pos_as_xyz
  1  'x, y, z'
loop_
 _atom_site_type_symbol
 _atom_site_label
 _atom_site_symmetry_multiplicity
 _atom_site_fract_x
 _atom_site_fract_y
 _atom_site_fract_z
 _atom_site_occupancy
  Al  Al0  1  0.12251517  0.08136208  0.39878138  1
  Al  Al1  1  0.77706290  0.09166894  0.79692366  1
  Al  Al2  1  0.88973069  0.20022955  0.56610692  1
  Al  Al3  1  0.44816141  0.09284533  0.32913041  1
  Al  Al4  1  0.11858770  0.08717605  0.86814770  1
  Al  Al5  1  0.21407922  0.20957415  0.62103381  1
  Al  Al6  1  0.78776450  0.08727881  0.31385209  1
  Al  Al7  1  0.88749890  0.19631178  0.03876047  1
  Al  Al8  1  0.44859377  0.09214309  0.78491919  1
  Al  Al9  1  0.55508044  0.20250875  0.55546692  1
  Al  Al10  1  0.12244161  0.42969250  0.39883424  1
  Al  Al11  1  0.21347675  0.54405698  0.12581894  1
  Al  Al12  1  0.78628710  0.42328888  0.80849782  1
  Al  Al13  1  0.88980105  0.54329543  0.56623216  1
  Al  Al14  1  0.44179799  0.42870625  0.30231790  1
  Al  Al15  1  0.54973499  0.54197839  0.04383063  1
  Al  Al16  1  0.11872643  0.42701398  0.86820979  1
  Al  Al17  1  0.21335796  0.53799040  0.63471895  1
  Al  Al18  1  0.88748562  0.54941206  0.03870434  1
  Al  Al19  1  0.44740422  0.42196384  0.79890005  1
  Al  Al20  1  0.10247544  0.76562562  0.30663258  1
  Al  Al21  1  0.21372298  0.87586429  0.12551982  1
  Al  Al22  1  0.77706370  0.76407552  0.79684985  1
  Al  Al23  1  0.89012065  0.87157422  0.55474788  1
  Al  Al24  1  0.44188823  0.76339872  0.30217304  1
  Al  Al25  1  0.09944754  0.76661925  0.80950450  1
  Al  Al26  1  0.21321824  0.88192820  0.63481259  1
  Al  Al27  1  0.78773688  0.75854884  0.31397296  1
  Al  Al28  1  0.90020464  0.86652247  0.06188585  1
  Al  Al29  1  0.44725443  0.76358288  0.79902026  1
  Al  Al30  1  0.55498028  0.87585884  0.55552626  1
  Gd  Gd31  1  0.17989302  0.22662367  0.14890491  1
  Gd  Gd32  1  0.55685218  0.20536602  0.05346665  1
  Gd  Gd33  1  0.78649732  0.42368101  0.29410338  1
  Gd  Gd34  1  0.55699642  0.53834595  0.55761050  1
  Gd  Gd35  1  0.55711157  0.87188257  0.05330568  1
  N  N36  1  0.21794284  0.20791719  0.36028418  1
  N  N37  1  0.11351816  0.07132363  0.04397797  1
  N  N38  1  0.88115459  0.20230461  0.85955122  1
  N  N39  1  0.77771179  0.09086964  0.61700501  1
  N  N40  1  0.55974224  0.20842532  0.37053815  1
  N  N41  1  0.43826620  0.09774731  0.15371957  1
  N  N42  1  0.21571343  0.20863301  0.80695493  1
  N  N43  1  0.11633860  0.08810981  0.57526565  1
  N  N44  1  0.89414344  0.18629161  0.38638309  1
  N  N45  1  0.80765507  0.08174900  0.13196534  1
  N  N46  1  0.55384479  0.20178941  0.84231496  1
  N  N47  1  0.44709379  0.09306913  0.60538762  1
  N  N48  1  0.21434057  0.53378914  0.31302402  1
  N  N49  1  0.11353957  0.44854303  0.04412140  1
  N  N50  1  0.88133281  0.54931638  0.85947195  1
  N  N51  1  0.81197928  0.41051940  0.63055845  1
  N  N52  1  0.53104726  0.55145700  0.35326985  1
  N  N53  1  0.43946455  0.44876986  0.12099739  1
  N  N54  1  0.21866236  0.54072347  0.81484050  1
  N  N55  1  0.11640016  0.42873111  0.57530943  1
  N  N56  1  0.89406484  0.55324227  0.38661956  1
  N  N57  1  0.78647644  0.42327792  0.08036689  1
  N  N58  1  0.55280696  0.54004068  0.85748158  1
  N  N59  1  0.43659003  0.41062083  0.62200120  1
  N  N60  1  0.21440986  0.88573139  0.31271255  1
  N  N61  1  0.10569502  0.76390968  0.12236356  1
  N  N62  1  0.88218498  0.87527493  0.87298180  1
  N  N63  1  0.77765551  0.76451379  0.61699513  1
  N  N64  1  0.55969352  0.86568805  0.37058517  1
  N  N65  1  0.43977972  0.74549204  0.12070749  1
  N  N66  1  0.21845348  0.87362418  0.81498214  1
  N  N67  1  0.10126117  0.76591339  0.62010490  1
  N  N68  1  0.88995134  0.87183693  0.37399736  1
  N  N69  1  0.80777232  0.74349342  0.13205001  1
  N  N70  1  0.55387739  0.87713435  0.84219073  1
  N  N71  1  0.43637754  0.78611967  0.62209873  1
