# generated using pymatgen
data_Gd5Al31N36
_symmetry_space_group_name_H-M   'P 1'
_cell_length_a   9.71700973
_cell_length_b   9.68705385
_cell_length_c   10.39096125
_cell_angle_alpha   89.99496661
_cell_angle_beta   89.32157134
_cell_angle_gamma   60.02400013
_symmetry_Int_Tables_number   1
_chemical_formula_structural   Gd5Al31N36
_chemical_formula_sum   'Gd5 Al31 N36'
_cell_volume   847.17944616
_cell_formula_units_Z   1
loop_
 _symmetry_equiv_pos_site_id
 _symmetry_equiv_pos_as_xyz
  1  'x, y, z'
loop_
 _atom_site_type_symbol
 _atom_site_label
 _atom_site_symmetry_multiplicity
 _atom_site_fract_x
 _atom_site_fract_y
 _atom_site_fract_z
 _atom_site_occupancy
  Al  Al0  1  0.11706367  0.08637360  0.36525607  1
  Al  Al1  1  0.77473802  0.09107506  0.80156646  1
  Al  Al2  1  0.89169106  0.19994935  0.57020073  1
  Al  Al3  1  0.44524760  0.09476268  0.32832254  1
  Al  Al4  1  0.10527148  0.09842616  0.79817818  1
  Al  Al5  1  0.22174229  0.21215872  0.56751107  1
  Al  Al6  1  0.78960431  0.08435647  0.31788126  1
  Al  Al7  1  0.89574210  0.19336141  0.04463390  1
  Al  Al8  1  0.44397100  0.09425679  0.78466803  1
  Al  Al9  1  0.55476881  0.20394487  0.55723446  1
  Al  Al10  1  0.11308499  0.43449016  0.31770678  1
  Al  Al11  1  0.21231067  0.55208459  0.06438636  1
  Al  Al12  1  0.78280991  0.42655421  0.82130435  1
  Al  Al13  1  0.89693829  0.53877098  0.56509756  1
  Al  Al14  1  0.43664168  0.43587542  0.30775053  1
  Al  Al15  1  0.54124528  0.54658316  0.04738649  1
  Al  Al16  1  0.10832532  0.43412501  0.79905871  1
  Al  Al17  1  0.21675436  0.53886842  0.55824006  1
  Al  Al18  1  0.89439281  0.54640873  0.05156118  1
  Al  Al19  1  0.43221924  0.42649038  0.80557490  1
  Al  Al20  1  0.10737720  0.75603215  0.31641208  1
  Al  Al21  1  0.21127809  0.87692822  0.13816563  1
  Al  Al22  1  0.77709700  0.76462851  0.80112833  1
  Al  Al23  1  0.88888442  0.87066399  0.55935422  1
  Al  Al24  1  0.44591820  0.75732356  0.31135053  1
  Al  Al25  1  0.10387280  0.75972944  0.81154985  1
  Al  Al26  1  0.21760781  0.87113810  0.61997306  1
  Al  Al27  1  0.78820615  0.75913922  0.31670697  1
  Al  Al28  1  0.90127791  0.86792209  0.06637921  1
  Al  Al29  1  0.44005743  0.76898548  0.80151693  1
  Al  Al30  1  0.55829039  0.87285540  0.55579736  1
  Gd  Gd31  1  0.21778674  0.21149919  0.05248339  1
  Gd  Gd32  1  0.56481955  0.20707795  0.06373098  1
  Gd  Gd33  1  0.79530450  0.41550132  0.29262317  1
  Gd  Gd34  1  0.56127323  0.53176839  0.56951653  1
  Gd  Gd35  1  0.56345000  0.86386392  0.06037272  1
  N  N36  1  0.21931166  0.21123422  0.37852817  1
  N  N37  1  0.09568834  0.09069662  0.11128403  1
  N  N38  1  0.88678983  0.19861656  0.85932242  1
  N  N39  1  0.77609365  0.09196853  0.61811536  1
  N  N40  1  0.56041375  0.20951301  0.36791230  1
  N  N41  1  0.44323517  0.09531788  0.15083747  1
  N  N42  1  0.21991071  0.20728458  0.82925050  1
  N  N43  1  0.11214601  0.09371682  0.60344598  1
  N  N44  1  0.89863298  0.18062157  0.38969538  1
  N  N45  1  0.81040094  0.07939890  0.13341295  1
  N  N46  1  0.55100161  0.20255068  0.84559012  1
  N  N47  1  0.44707253  0.09284189  0.60077715  1
  N  N48  1  0.22369150  0.53946636  0.37365572  1
  N  N49  1  0.09536327  0.45543148  0.13302068  1
  N  N50  1  0.89085391  0.54643759  0.86589093  1
  N  N51  1  0.81388801  0.41101710  0.63402990  1
  N  N52  1  0.54347453  0.54321107  0.35625645  1
  N  N53  1  0.42388854  0.45706183  0.12296869  1
  N  N54  1  0.21548835  0.54037006  0.87405022  1
  N  N55  1  0.11032832  0.43346622  0.61725486  1
  N  N56  1  0.90165065  0.54972477  0.38338223  1
  N  N57  1  0.77383966  0.42985573  0.07249484  1
  N  N58  1  0.54602987  0.54298033  0.85455548  1
  N  N59  1  0.42321155  0.41443319  0.62442160  1
  N  N60  1  0.22222983  0.86911010  0.33589231  1
  N  N61  1  0.10798058  0.76010915  0.12697167  1
  N  N62  1  0.88329235  0.87464510  0.87305524  1
  N  N63  1  0.77795702  0.76228413  0.61709780  1
  N  N64  1  0.56163027  0.86495878  0.36806258  1
  N  N65  1  0.43234531  0.74926553  0.12439282  1
  N  N66  1  0.21494312  0.87422796  0.81676007  1
  N  N67  1  0.10456662  0.75629166  0.61986063  1
  N  N68  1  0.89088184  0.87011754  0.37607417  1
  N  N69  1  0.80776859  0.74881563  0.13237640  1
  N  N70  1  0.55261435  0.87748807  0.84222171  1
  N  N71  1  0.43631282  0.78548431  0.61711183  1
