# generated using pymatgen
data_Gd5Al31N36
_symmetry_space_group_name_H-M   'P 1'
_cell_length_a   9.67458615
_cell_length_b   9.67448148
_cell_length_c   10.67061673
_cell_angle_alpha   89.72539925
_cell_angle_beta   89.29502224
_cell_angle_gamma   60.06757210
_symmetry_Int_Tables_number   1
_chemical_formula_structural   Gd5Al31N36
_chemical_formula_sum   'Gd5 Al31 N36'
_cell_volume   865.45034569
_cell_formula_units_Z   1
loop_
 _symmetry_equiv_pos_site_id
 _symmetry_equiv_pos_as_xyz
  1  'x, y, z'
loop_
 _atom_site_type_symbol
 _atom_site_label
 _atom_site_symmetry_multiplicity
 _atom_site_fract_x
 _atom_site_fract_y
 _atom_site_fract_z
 _atom_site_occupancy
  Al  Al0  1  0.11932387  0.07930392  0.39310945  1
  Al  Al1  1  0.77523064  0.09132828  0.79757374  1
  Al  Al2  1  0.89140044  0.20029133  0.56676613  1
  Al  Al3  1  0.45309875  0.09163343  0.32773423  1
  Al  Al4  1  0.11674919  0.08602405  0.87126844  1
  Al  Al5  1  0.22642468  0.20309201  0.57482309  1
  Al  Al6  1  0.78727433  0.08791890  0.31426641  1
  Al  Al7  1  0.88464576  0.19692572  0.04095762  1
  Al  Al8  1  0.43804996  0.09637700  0.78812518  1
  Al  Al9  1  0.55742715  0.20241436  0.55681007  1
  Al  Al10  1  0.11930934  0.43632926  0.39415888  1
  Al  Al11  1  0.21190300  0.54666463  0.12921448  1
  Al  Al12  1  0.78486625  0.42291718  0.81043451  1
  Al  Al13  1  0.89172847  0.54158540  0.56787233  1
  Al  Al14  1  0.44365712  0.43005235  0.30400204  1
  Al  Al15  1  0.54589299  0.54441319  0.04422851  1
  Al  Al16  1  0.11742799  0.42702666  0.87070261  1
  Al  Al17  1  0.21377084  0.53718823  0.63270669  1
  Al  Al18  1  0.88501795  0.55095589  0.04021435  1
  Al  Al19  1  0.44475161  0.42153203  0.79893836  1
  Al  Al20  1  0.10231396  0.76658402  0.31107014  1
  Al  Al21  1  0.21283795  0.87411583  0.12750455  1
  Al  Al22  1  0.77531358  0.76429852  0.79727106  1
  Al  Al23  1  0.89011946  0.87166397  0.55562266  1
  Al  Al24  1  0.44366827  0.76292406  0.30301042  1
  Al  Al25  1  0.09811990  0.76590726  0.80952024  1
  Al  Al26  1  0.21319938  0.88196810  0.63329821  1
  Al  Al27  1  0.78737585  0.76020893  0.31487479  1
  Al  Al28  1  0.90011757  0.86631221  0.06376934  1
  Al  Al29  1  0.44441439  0.76474998  0.79964774  1
  Al  Al30  1  0.55706412  0.87394306  0.55699105  1
  Gd  Gd31  1  0.19220574  0.21979840  0.13226259  1
  Gd  Gd32  1  0.55983804  0.20747556  0.05285828  1
  Gd  Gd33  1  0.78980392  0.42413160  0.29391147  1
  Gd  Gd34  1  0.55780262  0.53843322  0.55976755  1
  Gd  Gd35  1  0.56089241  0.86957855  0.05227055  1
  N  N36  1  0.22161783  0.20702678  0.36545863  1
  N  N37  1  0.10601349  0.06939012  0.04937368  1
  N  N38  1  0.87889681  0.20184834  0.86014406  1
  N  N39  1  0.77888683  0.09066166  0.61660651  1
  N  N40  1  0.56085579  0.20907012  0.37081411  1
  N  N41  1  0.44720692  0.09438506  0.15275124  1
  N  N42  1  0.22095529  0.20464427  0.83929892  1
  N  N43  1  0.11748559  0.08745071  0.57234094  1
  N  N44  1  0.89476681  0.18611816  0.38457892  1
  N  N45  1  0.80637489  0.08084764  0.13291553  1
  N  N46  1  0.55233127  0.20106273  0.84033496  1
  N  N47  1  0.44800610  0.09250426  0.60422665  1
  N  N48  1  0.21756282  0.53699718  0.31768213  1
  N  N49  1  0.10674394  0.45698658  0.04961195  1
  N  N50  1  0.87992087  0.54938438  0.85940903  1
  N  N51  1  0.81197920  0.41012233  0.63008254  1
  N  N52  1  0.53578681  0.55047581  0.35280999  1
  N  N53  1  0.43615482  0.45083189  0.12151436  1
  N  N54  1  0.21683454  0.54050824  0.81451817  1
  N  N55  1  0.11779713  0.42734001  0.57347899  1
  N  N56  1  0.89503980  0.55508334  0.38638713  1
  N  N57  1  0.78157035  0.42538720  0.07920307  1
  N  N58  1  0.55005411  0.54023105  0.85623297  1
  N  N59  1  0.43578876  0.41077850  0.62013992  1
  N  N60  1  0.21742140  0.88171543  0.31542961  1
  N  N61  1  0.10370873  0.76482855  0.12537507  1
  N  N62  1  0.88087595  0.87470426  0.87333303  1
  N  N63  1  0.77862718  0.76346831  0.61670339  1
  N  N64  1  0.56061742  0.86600484  0.37080090  1
  N  N65  1  0.43744621  0.74832383  0.11977646  1
  N  N66  1  0.21614857  0.87350698  0.81532570  1
  N  N67  1  0.10174914  0.76536015  0.61781844  1
  N  N68  1  0.88900906  0.87324383  0.37467759  1
  N  N69  1  0.80709385  0.74397143  0.13325632  1
  N  N70  1  0.55263120  0.87671207  0.83991774  1
  N  N71  1  0.43499530  0.78694494  0.62073038  1
