# generated using pymatgen
data_Gd5Al31N36
_symmetry_space_group_name_H-M   'P 1'
_cell_length_a   9.71596295
_cell_length_b   9.74520516
_cell_length_c   10.47275702
_cell_angle_alpha   89.99757187
_cell_angle_beta   88.99158463
_cell_angle_gamma   59.91712459
_symmetry_Int_Tables_number   1
_chemical_formula_structural   Gd5Al31N36
_chemical_formula_sum   'Gd5 Al31 N36'
_cell_volume   857.85834022
_cell_formula_units_Z   1
loop_
 _symmetry_equiv_pos_site_id
 _symmetry_equiv_pos_as_xyz
  1  'x, y, z'
loop_
 _atom_site_type_symbol
 _atom_site_label
 _atom_site_symmetry_multiplicity
 _atom_site_fract_x
 _atom_site_fract_y
 _atom_site_fract_z
 _atom_site_occupancy
  Al  Al0  1  0.12489254  0.08209862  0.41980158  1
  Al  Al1  1  0.77333470  0.09250654  0.83020139  1
  Al  Al2  1  0.89253370  0.19957843  0.59282561  1
  Al  Al3  1  0.44657963  0.09339159  0.41224065  1
  Al  Al4  1  0.11493656  0.08687108  0.88930846  1
  Al  Al5  1  0.22352940  0.20490910  0.65430802  1
  Al  Al6  1  0.80199608  0.07743839  0.33957991  1
  Al  Al7  1  0.88431887  0.19666564  0.06500012  1
  Al  Al8  1  0.43963540  0.09686215  0.89733151  1
  Al  Al9  1  0.55975411  0.19775335  0.60806349  1
  Al  Al10  1  0.12487068  0.42633900  0.41979889  1
  Al  Al11  1  0.21058604  0.55370215  0.14507151  1
  Al  Al12  1  0.79203913  0.42063096  0.83273021  1
  Al  Al13  1  0.89252150  0.54121685  0.59283262  1
  Al  Al14  1  0.43340148  0.42906126  0.40781408  1
  Al  Al15  1  0.55535925  0.53899828  0.06074211  1
  Al  Al16  1  0.11492588  0.43151568  0.88931640  1
  Al  Al17  1  0.21538980  0.53905019  0.65386995  1
  Al  Al18  1  0.88430542  0.55231262  0.06500719  1
  Al  Al19  1  0.43421618  0.42660973  0.89502416  1
  Al  Al20  1  0.12486893  0.75422502  0.40152018  1
  Al  Al21  1  0.21059797  0.86903618  0.14506817  1
  Al  Al22  1  0.77333130  0.76747868  0.83020509  1
  Al  Al23  1  0.89014875  0.87158672  0.58356428  1
  Al  Al24  1  0.43340815  0.77089521  0.40781225  1
  Al  Al25  1  0.11558598  0.75886374  0.90046766  1
  Al  Al26  1  0.21538920  0.87889242  0.65387438  1
  Al  Al27  1  0.80197958  0.75388401  0.33958647  1
  Al  Al28  1  0.89247215  0.87041619  0.08266371  1
  Al  Al29  1  0.43421979  0.77251262  0.89502761  1
  Al  Al30  1  0.55974036  0.87587472  0.60806800  1
  Gd  Gd31  1  0.18351889  0.22490088  0.15788503  1
  Gd  Gd32  1  0.54844675  0.21844580  0.14356517  1
  Gd  Gd33  1  0.77727704  0.42800395  0.33326939  1
  Gd  Gd34  1  0.54315107  0.54511837  0.63482669  1
  Gd  Gd35  1  0.54844659  0.86650727  0.14355469  1
  N  N36  1  0.22532900  0.20402083  0.37434360  1
  N  N37  1  0.10493336  0.07179399  0.07050940  1
  N  N38  1  0.88229482  0.20320370  0.88106130  1
  N  N39  1  0.78169653  0.08902834  0.64433067  1
  N  N40  1  0.56619888  0.19967758  0.37399356  1
  N  N41  1  0.41961920  0.10687187  0.07827602  1
  N  N42  1  0.21792406  0.20771925  0.83891567  1
  N  N43  1  0.11686823  0.09134085  0.60411782  1
  N  N44  1  0.90187437  0.18072126  0.40881271  1
  N  N45  1  0.81377288  0.07511663  0.15501124  1
  N  N46  1  0.55254424  0.20689287  0.86604093  1
  N  N47  1  0.44541250  0.09396047  0.59576457  1
  N  N48  1  0.22267836  0.53476825  0.33574380  1
  N  N49  1  0.10491855  0.45656771  0.07051944  1
  N  N50  1  0.88228017  0.54785124  0.88105862  1
  N  N51  1  0.80913630  0.41206610  0.64781875  1
  N  N52  1  0.52737813  0.55301337  0.39401430  1
  N  N53  1  0.41932979  0.45978448  0.07513727  1
  N  N54  1  0.22031945  0.54461013  0.83391442  1
  N  N55  1  0.11685585  0.42509905  0.60411085  1
  N  N56  1  0.90184441  0.55075956  0.40882584  1
  N  N57  1  0.77812499  0.42755862  0.10994550  1
  N  N58  1  0.55960572  0.53688588  0.86734713  1
  N  N59  1  0.42212266  0.41089451  0.58802205  1
  N  N60  1  0.22268827  0.87590453  0.33573800  1
  N  N61  1  0.11315604  0.76006987  0.08612196  1
  N  N62  1  0.88142237  0.87596099  0.89345462  1
  N  N63  1  0.78168056  0.76256501  0.64433308  1
  N  N64  1  0.56618736  0.86754032  0.37398679  1
  N  N65  1  0.41936292  0.75419169  0.07514661  1
  N  N66  1  0.22031979  0.86842321  0.83392085  1
  N  N67  1  0.12340411  0.75494736  0.58963549  1
  N  N68  1  0.89520178  0.86906967  0.39959750  1
  N  N69  1  0.81377880  0.74435711  0.15501631  1
  N  N70  1  0.55253751  0.87396258  0.86605222  1
  N  N71  1  0.42210856  0.80032094  0.58801617  1
