# generated using pymatgen
data_Gd5Al31N36
_symmetry_space_group_name_H-M   'P 1'
_cell_length_a   9.70958225
_cell_length_b   9.68779119
_cell_length_c   10.61692162
_cell_angle_alpha   89.44946417
_cell_angle_beta   88.90237508
_cell_angle_gamma   60.09810591
_symmetry_Int_Tables_number   1
_chemical_formula_structural   Gd5Al31N36
_chemical_formula_sum   'Gd5 Al31 N36'
_cell_volume   865.57229242
_cell_formula_units_Z   1
loop_
 _symmetry_equiv_pos_site_id
 _symmetry_equiv_pos_as_xyz
  1  'x, y, z'
loop_
 _atom_site_type_symbol
 _atom_site_label
 _atom_site_symmetry_multiplicity
 _atom_site_fract_x
 _atom_site_fract_y
 _atom_site_fract_z
 _atom_site_occupancy
  Al  Al0  1  0.12023352  0.08265452  0.39166652  1
  Al  Al1  1  0.77283121  0.09089202  0.79815709  1
  Al  Al2  1  0.89128992  0.20073434  0.56739701  1
  Al  Al3  1  0.45074320  0.09445371  0.32678723  1
  Al  Al4  1  0.10931599  0.08184110  0.86682232  1
  Al  Al5  1  0.22879490  0.20045218  0.56870596  1
  Al  Al6  1  0.78811723  0.08926523  0.31600498  1
  Al  Al7  1  0.88359765  0.19867063  0.04223823  1
  Al  Al8  1  0.44015687  0.09366358  0.78754878  1
  Al  Al9  1  0.55774417  0.20225809  0.55626329  1
  Al  Al10  1  0.12050135  0.43483694  0.39293646  1
  Al  Al11  1  0.20971127  0.54667766  0.13766972  1
  Al  Al12  1  0.77931963  0.42348008  0.81260394  1
  Al  Al13  1  0.88992671  0.54267164  0.56990413  1
  Al  Al14  1  0.44615075  0.43122493  0.30697378  1
  Al  Al15  1  0.54198681  0.54637756  0.04610619  1
  Al  Al16  1  0.10646131  0.42673303  0.83034068  1
  Al  Al17  1  0.21621665  0.54014745  0.62690609  1
  Al  Al18  1  0.88821028  0.54881128  0.03994324  1
  Al  Al19  1  0.44171919  0.42133686  0.79970479  1
  Al  Al20  1  0.10325477  0.76868044  0.31630612  1
  Al  Al21  1  0.21109117  0.87597943  0.13003090  1
  Al  Al22  1  0.77313920  0.76605705  0.79764176  1
  Al  Al23  1  0.88871002  0.87283700  0.55624432  1
  Al  Al24  1  0.44455554  0.76305284  0.30355992  1
  Al  Al25  1  0.09667865  0.76417639  0.80936397  1
  Al  Al26  1  0.21345475  0.88124123  0.63164688  1
  Al  Al27  1  0.78839450  0.76099155  0.31639257  1
  Al  Al28  1  0.90202041  0.86509188  0.06694702  1
  Al  Al29  1  0.44282732  0.76421880  0.80042871  1
  Al  Al30  1  0.55673365  0.87428827  0.55638083  1
  Gd  Gd31  1  0.21726724  0.20897019  0.07661284  1
  Gd  Gd32  1  0.56627895  0.20854660  0.05691018  1
  Gd  Gd33  1  0.79838972  0.42377212  0.29082035  1
  Gd  Gd34  1  0.55970350  0.53813661  0.55922804  1
  Gd  Gd35  1  0.56584601  0.86616134  0.05552389  1
  N  N36  1  0.22640540  0.20728142  0.37596083  1
  N  N37  1  0.10114186  0.06818520  0.04785670  1
  N  N38  1  0.87584705  0.20145777  0.85967773  1
  N  N39  1  0.77767840  0.09127086  0.61715457  1
  N  N40  1  0.56196533  0.20942293  0.37119837  1
  N  N41  1  0.45525377  0.09230395  0.15289365  1
  N  N42  1  0.21917282  0.20169898  0.84220576  1
  N  N43  1  0.11617594  0.08811086  0.57477555  1
  N  N44  1  0.89572203  0.18791783  0.38484713  1
  N  N45  1  0.80941748  0.07993713  0.13503955  1
  N  N46  1  0.54963086  0.20056634  0.84264484  1
  N  N47  1  0.44821462  0.09235543  0.60577636  1
  N  N48  1  0.22117399  0.54067843  0.32973251  1
  N  N49  1  0.09780571  0.46034848  0.07182902  1
  N  N50  1  0.87987570  0.54808831  0.85664133  1
  N  N51  1  0.81043662  0.41041796  0.63182291  1
  N  N52  1  0.54318379  0.54879223  0.35099225  1
  N  N53  1  0.43267504  0.45229738  0.12445388  1
  N  N54  1  0.21451770  0.53968121  0.81304591  1
  N  N55  1  0.11463918  0.42621097  0.58862298  1
  N  N56  1  0.89814401  0.55593022  0.39028860  1
  N  N57  1  0.77571000  0.42835671  0.07489218  1
  N  N58  1  0.54637875  0.54029117  0.85633071  1
  N  N59  1  0.43653417  0.41065788  0.61950226  1
  N  N60  1  0.21858654  0.88270094  0.31825026  1
  N  N61  1  0.10418604  0.76466652  0.12968162  1
  N  N62  1  0.87985523  0.87411401  0.87404193  1
  N  N63  1  0.77699060  0.76495818  0.61754460  1
  N  N64  1  0.56115751  0.86656776  0.37071176  1
  N  N65  1  0.43464463  0.75088743  0.11975829  1
  N  N66  1  0.21524658  0.87033750  0.81487595  1
  N  N67  1  0.10060769  0.76667182  0.61646511  1
  N  N68  1  0.88848551  0.87482136  0.37585049  1
  N  N69  1  0.80716543  0.74392015  0.13430080  1
  N  N70  1  0.55121524  0.87575682  0.84156111  1
  N  N71  1  0.43477705  0.78694140  0.62067058  1
