# generated using pymatgen
data_Gd5Al31N36
_symmetry_space_group_name_H-M   'P 1'
_cell_length_a   9.69571305
_cell_length_b   9.67531305
_cell_length_c   10.60973456
_cell_angle_alpha   89.32955348
_cell_angle_beta   89.17111065
_cell_angle_gamma   60.10715236
_symmetry_Int_Tables_number   1
_chemical_formula_structural   Gd5Al31N36
_chemical_formula_sum   'Gd5 Al31 N36'
_cell_volume   862.77303759
_cell_formula_units_Z   1
loop_
 _symmetry_equiv_pos_site_id
 _symmetry_equiv_pos_as_xyz
  1  'x, y, z'
loop_
 _atom_site_type_symbol
 _atom_site_label
 _atom_site_symmetry_multiplicity
 _atom_site_fract_x
 _atom_site_fract_y
 _atom_site_fract_z
 _atom_site_occupancy
  Al  Al0  1  0.11903042  0.08463177  0.39057798  1
  Al  Al1  1  0.77412791  0.08987311  0.79894203  1
  Al  Al2  1  0.89265155  0.20072154  0.56843571  1
  Al  Al3  1  0.44661646  0.09628144  0.32547877  1
  Al  Al4  1  0.11092370  0.08099407  0.86636633  1
  Al  Al5  1  0.22535759  0.20947648  0.56168192  1
  Al  Al6  1  0.78826352  0.08845325  0.31693987  1
  Al  Al7  1  0.88701293  0.19923217  0.04433898  1
  Al  Al8  1  0.44152038  0.09224051  0.78468709  1
  Al  Al9  1  0.55808598  0.20185528  0.55553456  1
  Al  Al10  1  0.10855239  0.43472747  0.32704711  1
  Al  Al11  1  0.21147077  0.55017515  0.14128334  1
  Al  Al12  1  0.78257225  0.42253545  0.81555644  1
  Al  Al13  1  0.89606075  0.53924983  0.56522524  1
  Al  Al14  1  0.44485470  0.43129864  0.31030603  1
  Al  Al15  1  0.54162697  0.54561539  0.04570826  1
  Al  Al16  1  0.10490744  0.42195293  0.79687569  1
  Al  Al17  1  0.21626687  0.54033027  0.62015121  1
  Al  Al18  1  0.89120655  0.54660607  0.05033075  1
  Al  Al19  1  0.44037570  0.42051030  0.80098477  1
  Al  Al20  1  0.10318855  0.76979591  0.31848409  1
  Al  Al21  1  0.21159037  0.87837751  0.13088814  1
  Al  Al22  1  0.77782311  0.76188974  0.79980284  1
  Al  Al23  1  0.88908290  0.87192715  0.55770862  1
  Al  Al24  1  0.44324132  0.76325516  0.30513759  1
  Al  Al25  1  0.10052365  0.76012000  0.81096826  1
  Al  Al26  1  0.21358897  0.88302307  0.63197794  1
  Al  Al27  1  0.78635931  0.76255963  0.31644434  1
  Al  Al28  1  0.90108872  0.86730337  0.06520792  1
  Al  Al29  1  0.44435319  0.76337981  0.80024043  1
  Al  Al30  1  0.55696150  0.87454305  0.55657678  1
  Gd  Gd31  1  0.22015252  0.21913809  0.05889006  1
  Gd  Gd32  1  0.56914648  0.20606573  0.05852970  1
  Gd  Gd33  1  0.79217653  0.42382927  0.29262144  1
  Gd  Gd34  1  0.56048678  0.53787775  0.56305990  1
  Gd  Gd35  1  0.56231087  0.86678746  0.05480879  1
  N  N36  1  0.22246189  0.21254834  0.37501674  1
  N  N37  1  0.10696863  0.07333834  0.05018999  1
  N  N38  1  0.87792598  0.19990866  0.86185322  1
  N  N39  1  0.77833594  0.09104351  0.61787936  1
  N  N40  1  0.56177738  0.20843469  0.36982639  1
  N  N41  1  0.44862997  0.09467198  0.15077500  1
  N  N42  1  0.22077204  0.20049946  0.83900569  1
  N  N43  1  0.11767585  0.08954325  0.57339942  1
  N  N44  1  0.89433858  0.18778995  0.38598076  1
  N  N45  1  0.81297641  0.07960185  0.13584428  1
  N  N46  1  0.55091647  0.19861688  0.84409227  1
  N  N47  1  0.44717350  0.09357720  0.60325713  1
  N  N48  1  0.22245756  0.54401684  0.33465197  1
  N  N49  1  0.08290864  0.45475047  0.14193861  1
  N  N50  1  0.88998758  0.54202364  0.86642322  1
  N  N51  1  0.81256154  0.41032777  0.63371834  1
  N  N52  1  0.53984122  0.54997665  0.35487141  1
  N  N53  1  0.43217281  0.45037199  0.12451122  1
  N  N54  1  0.21543635  0.53621979  0.82088534  1
  N  N55  1  0.10958606  0.42537990  0.61535094  1
  N  N56  1  0.89802488  0.55453996  0.38822979  1
  N  N57  1  0.77412785  0.42829418  0.07703812  1
  N  N58  1  0.54820346  0.53914153  0.85626919  1
  N  N59  1  0.43585798  0.40986644  0.62008582  1
  N  N60  1  0.21713105  0.88439976  0.31786456  1
  N  N61  1  0.10412464  0.76598938  0.12722202  1
  N  N62  1  0.88236702  0.87318320  0.87389578  1
  N  N63  1  0.77911966  0.76178778  0.61827799  1
  N  N64  1  0.55971411  0.86770672  0.37014339  1
  N  N65  1  0.43493129  0.74832457  0.12126660  1
  N  N66  1  0.21678729  0.86962507  0.81594672  1
  N  N67  1  0.10206435  0.76612664  0.61761422  1
  N  N68  1  0.88831555  0.87433175  0.37686081  1
  N  N69  1  0.80444975  0.74960038  0.13269999  1
  N  N70  1  0.55437420  0.87355497  0.84087305  1
  N  N71  1  0.43483567  0.78745131  0.62091074  1
