# generated using pymatgen
data_Gd5Al31N36
_symmetry_space_group_name_H-M   'P 1'
_cell_length_a   9.71511684
_cell_length_b   9.72983671
_cell_length_c   10.48025344
_cell_angle_alpha   90.00257095
_cell_angle_beta   89.14647991
_cell_angle_gamma   59.93891581
_symmetry_Int_Tables_number   1
_chemical_formula_structural   Gd5Al31N36
_chemical_formula_sum   'Gd5 Al31 N36'
_cell_volume   857.28222608
_cell_formula_units_Z   1
loop_
 _symmetry_equiv_pos_site_id
 _symmetry_equiv_pos_as_xyz
  1  'x, y, z'
loop_
 _atom_site_type_symbol
 _atom_site_label
 _atom_site_symmetry_multiplicity
 _atom_site_fract_x
 _atom_site_fract_y
 _atom_site_fract_z
 _atom_site_occupancy
  Al  Al0  1  0.12319333  0.08033284  0.42563827  1
  Al  Al1  1  0.77327444  0.09273177  0.82838623  1
  Al  Al2  1  0.88865280  0.20039884  0.59352437  1
  Al  Al3  1  0.44652335  0.09339696  0.35579352  1
  Al  Al4  1  0.11705457  0.08811465  0.88835456  1
  Al  Al5  1  0.21725728  0.20803202  0.64367837  1
  Al  Al6  1  0.79926313  0.07894599  0.33959813  1
  Al  Al7  1  0.88905014  0.19460314  0.06589746  1
  Al  Al8  1  0.44778781  0.09276837  0.82216685  1
  Al  Al9  1  0.55969949  0.19390266  0.57975446  1
  Al  Al10  1  0.12321074  0.42980592  0.42564157  1
  Al  Al11  1  0.21373671  0.55023902  0.14692401  1
  Al  Al12  1  0.79179771  0.42077674  0.83272809  1
  Al  Al13  1  0.88866108  0.54427974  0.59352029  1
  Al  Al14  1  0.43193246  0.42937672  0.40490091  1
  Al  Al15  1  0.55783102  0.53774212  0.06439681  1
  Al  Al16  1  0.11706301  0.42816835  0.88834940  1
  Al  Al17  1  0.21526018  0.54020089  0.65451660  1
  Al  Al18  1  0.88906317  0.54969416  0.06589354  1
  Al  Al19  1  0.43246141  0.43025987  0.89466016  1
  Al  Al20  1  0.12300329  0.75516815  0.40234323  1
  Al  Al21  1  0.21372376  0.86935915  0.14692657  1
  Al  Al22  1  0.77327563  0.76733664  0.82839008  1
  Al  Al23  1  0.88838712  0.87247466  0.58380568  1
  Al  Al24  1  0.43192688  0.77201051  0.40490149  1
  Al  Al25  1  0.11537730  0.75898477  0.90157139  1
  Al  Al26  1  0.21526028  0.87787316  0.65451278  1
  Al  Al27  1  0.79927937  0.75512667  0.33959414  1
  Al  Al28  1  0.89806813  0.86763886  0.08686852  1
  Al  Al29  1  0.43245700  0.77061548  0.89466446  1
  Al  Al30  1  0.55970585  0.87970656  0.57974721  1
  Gd  Gd31  1  0.16745410  0.23294460  0.17571929  1
  Gd  Gd32  1  0.55843625  0.20514409  0.10659235  1
  Gd  Gd33  1  0.77509867  0.42912990  0.33426377  1
  Gd  Gd34  1  0.54120739  0.54604948  0.63215766  1
  Gd  Gd35  1  0.55843198  0.86970256  0.10661376  1
  N  N36  1  0.22102395  0.20614022  0.39578669  1
  N  N37  1  0.11124812  0.07176899  0.06977640  1
  N  N38  1  0.88186644  0.20286064  0.88228345  1
  N  N39  1  0.77645340  0.09138175  0.64415996  1
  N  N40  1  0.56955843  0.19671369  0.38691779  1
  N  N41  1  0.41997180  0.10668059  0.17889584  1
  N  N42  1  0.21623583  0.20853725  0.83450862  1
  N  N43  1  0.11140017  0.09027382  0.60810454  1
  N  N44  1  0.90054484  0.18156697  0.40925328  1
  N  N45  1  0.81753454  0.07450192  0.15746724  1
  N  N46  1  0.55184595  0.20350652  0.88018027  1
  N  N47  1  0.45074364  0.09129777  0.63596637  1
  N  N48  1  0.22045737  0.53556292  0.33651446  1
  N  N49  1  0.11126391  0.45032720  0.06976958  1
  N  N50  1  0.88187360  0.54859662  0.88228643  1
  N  N51  1  0.80732291  0.41302476  0.64847685  1
  N  N52  1  0.52560336  0.55384264  0.39264829  1
  N  N53  1  0.42195872  0.45843436  0.07851777  1
  N  N54  1  0.22059079  0.54490821  0.83480766  1
  N  N55  1  0.11140893  0.43167445  0.60810972  1
  N  N56  1  0.90056844  0.55120105  0.40924316  1
  N  N57  1  0.78234158  0.42552350  0.11078314  1
  N  N58  1  0.55916100  0.53707388  0.86831814  1
  N  N59  1  0.41993525  0.41133441  0.58671725  1
  N  N60  1  0.22044948  0.87729873  0.33651753  1
  N  N61  1  0.11724854  0.75805032  0.08677637  1
  N  N62  1  0.88045339  0.87643836  0.89527840  1
  N  N63  1  0.77646093  0.76552469  0.64416001  1
  N  N64  1  0.56956491  0.86700966  0.38691311  1
  N  N65  1  0.42193360  0.75295417  0.07851467  1
  N  N66  1  0.22059184  0.86781973  0.83480323  1
  N  N67  1  0.12159116  0.75588146  0.59067792  1
  N  N68  1  0.89421378  0.86955597  0.39997243  1
  N  N69  1  0.81754192  0.74134364  0.15746415  1
  N  N70  1  0.55184646  0.87795768  0.88019547  1
  N  N71  1  0.41994359  0.80206864  0.58671949  1
