# generated using pymatgen
data_Gd5Al31N36
_symmetry_space_group_name_H-M   'P 1'
_cell_length_a   9.68758254
_cell_length_b   9.69209900
_cell_length_c   10.55647858
_cell_angle_alpha   90.30304504
_cell_angle_beta   89.47726541
_cell_angle_gamma   60.03565891
_symmetry_Int_Tables_number   1
_chemical_formula_structural   Gd5Al31N36
_chemical_formula_sum   'Gd5 Al31 N36'
_cell_volume   858.60373538
_cell_formula_units_Z   1
loop_
 _symmetry_equiv_pos_site_id
 _symmetry_equiv_pos_as_xyz
  1  'x, y, z'
loop_
 _atom_site_type_symbol
 _atom_site_label
 _atom_site_symmetry_multiplicity
 _atom_site_fract_x
 _atom_site_fract_y
 _atom_site_fract_z
 _atom_site_occupancy
  Al  Al0  1  0.12521469  0.08037643  0.41812059  1
  Al  Al1  1  0.77752225  0.09422752  0.85687550  1
  Al  Al2  1  0.89521101  0.20050236  0.59312533  1
  Al  Al3  1  0.44676241  0.09054071  0.42662553  1
  Al  Al4  1  0.11831010  0.08717715  0.88955626  1
  Al  Al5  1  0.22025488  0.20623572  0.65495068  1
  Al  Al6  1  0.78101783  0.07981467  0.41478715  1
  Al  Al7  1  0.88557645  0.20149679  0.05748385  1
  Al  Al8  1  0.44191793  0.09696681  0.89207326  1
  Al  Al9  1  0.54694552  0.20352105  0.65160027  1
  Al  Al10  1  0.12478686  0.42391600  0.41663072  1
  Al  Al11  1  0.21676226  0.55001500  0.14423048  1
  Al  Al12  1  0.79481024  0.42218675  0.82635872  1
  Al  Al13  1  0.89419056  0.53693144  0.59100591  1
  Al  Al14  1  0.43295225  0.42473179  0.41582519  1
  Al  Al15  1  0.55681975  0.54004705  0.05438118  1
  Al  Al16  1  0.11742084  0.43068431  0.88974463  1
  Al  Al17  1  0.21217406  0.54147693  0.65375002  1
  Al  Al18  1  0.88845549  0.54276895  0.05878893  1
  Al  Al19  1  0.43364903  0.42975888  0.88997017  1
  Al  Al20  1  0.11532873  0.75698019  0.39747200  1
  Al  Al21  1  0.21595137  0.86887296  0.14462923  1
  Al  Al22  1  0.77850056  0.77077546  0.89094493  1
  Al  Al23  1  0.89482945  0.86541670  0.65239935  1
  Al  Al24  1  0.43385800  0.77230437  0.41471753  1
  Al  Al25  1  0.10921232  0.76373581  0.90363414  1
  Al  Al26  1  0.21405155  0.87833859  0.65374194  1
  Al  Al27  1  0.77967288  0.76727532  0.41601534  1
  Al  Al28  1  0.89684806  0.87038303  0.15057763  1
  Al  Al29  1  0.43530273  0.77296886  0.89024962  1
  Al  Al30  1  0.55255776  0.87972683  0.65458733  1
  Gd  Gd31  1  0.20248504  0.21568178  0.15597220  1
  Gd  Gd32  1  0.55453835  0.21785220  0.15721034  1
  Gd  Gd33  1  0.77638317  0.42345366  0.32895853  1
  Gd  Gd34  1  0.54665697  0.54316598  0.63008527  1
  Gd  Gd35  1  0.55910819  0.86201641  0.15503826  1
  N  N36  1  0.22781697  0.20042388  0.37391532  1
  N  N37  1  0.10651233  0.07473570  0.07094290  1
  N  N38  1  0.88891533  0.20627905  0.87352781  1
  N  N39  1  0.77577773  0.09043043  0.61486771  1
  N  N40  1  0.56004879  0.19865350  0.37578712  1
  N  N41  1  0.43897187  0.09715104  0.06875457  1
  N  N42  1  0.22001991  0.20774924  0.83921804  1
  N  N43  1  0.11761154  0.09019792  0.60283625  1
  N  N44  1  0.90232963  0.17910609  0.40900284  1
  N  N45  1  0.79742453  0.07922805  0.09265390  1
  N  N46  1  0.55113862  0.20961872  0.83627991  1
  N  N47  1  0.44200054  0.09401045  0.60659079  1
  N  N48  1  0.22555826  0.53154569  0.33515824  1
  N  N49  1  0.10774511  0.45259044  0.07227139  1
  N  N50  1  0.88947879  0.54150168  0.87488670  1
  N  N51  1  0.81103042  0.41118023  0.64660987  1
  N  N52  1  0.52868438  0.55051541  0.39964948  1
  N  N53  1  0.42395807  0.45496715  0.06845441  1
  N  N54  1  0.21804280  0.54745443  0.83432090  1
  N  N55  1  0.11660548  0.42483461  0.60118874  1
  N  N56  1  0.90192782  0.54503252  0.40374832  1
  N  N57  1  0.77706591  0.42968957  0.10643432  1
  N  N58  1  0.56160343  0.53746467  0.86386321  1
  N  N59  1  0.41955155  0.41118836  0.59436445  1
  N  N60  1  0.22474780  0.87265129  0.33591561  1
  N  N61  1  0.10952176  0.76253340  0.09019387  1
  N  N62  1  0.89562970  0.86983248  0.83369124  1
  N  N63  1  0.77515645  0.76732344  0.60176387  1
  N  N64  1  0.55925964  0.87068629  0.37169286  1
  N  N65  1  0.42422761  0.75869650  0.06933905  1
  N  N66  1  0.21944452  0.86923857  0.83438443  1
  N  N67  1  0.11325802  0.75931769  0.58561926  1
  N  N68  1  0.89141036  0.86697856  0.34372822  1
  N  N69  1  0.79934383  0.76192019  0.07415115  1
  N  N70  1  0.55619828  0.87359688  0.83910984  1
  N  N71  1  0.42217096  0.80122160  0.59461189  1
