# generated using pymatgen
data_Gd5Al31N36
_symmetry_space_group_name_H-M   'P 1'
_cell_length_a   9.67433037
_cell_length_b   9.69463500
_cell_length_c   10.58575821
_cell_angle_alpha   90.19743725
_cell_angle_beta   89.61391365
_cell_angle_gamma   59.93940141
_symmetry_Int_Tables_number   1
_chemical_formula_structural   Gd5Al31N36
_chemical_formula_sum   'Gd5 Al31 N36'
_cell_volume   859.24321455
_cell_formula_units_Z   1
loop_
 _symmetry_equiv_pos_site_id
 _symmetry_equiv_pos_as_xyz
  1  'x, y, z'
loop_
 _atom_site_type_symbol
 _atom_site_label
 _atom_site_symmetry_multiplicity
 _atom_site_fract_x
 _atom_site_fract_y
 _atom_site_fract_z
 _atom_site_occupancy
  Al  Al0  1  0.12131682  0.08222708  0.39737995  1
  Al  Al1  1  0.77867794  0.08847014  0.79844876  1
  Al  Al2  1  0.88831395  0.20168752  0.56466258  1
  Al  Al3  1  0.44788972  0.09515741  0.32840604  1
  Al  Al4  1  0.11669498  0.08707502  0.86392784  1
  Al  Al5  1  0.21400809  0.20987285  0.61787968  1
  Al  Al6  1  0.79183311  0.08396349  0.31289459  1
  Al  Al7  1  0.88849848  0.19389070  0.04013302  1
  Al  Al8  1  0.44676039  0.08908765  0.78938047  1
  Al  Al9  1  0.55809870  0.19864809  0.56008109  1
  Al  Al10  1  0.12072952  0.42919477  0.39789156  1
  Al  Al11  1  0.21835394  0.54724133  0.12539151  1
  Al  Al12  1  0.79373892  0.41895920  0.80712384  1
  Al  Al13  1  0.89030653  0.54368516  0.56537384  1
  Al  Al14  1  0.43679961  0.42947543  0.34784077  1
  Al  Al15  1  0.55519546  0.53105807  0.03287031  1
  Al  Al16  1  0.11898863  0.42771181  0.86551643  1
  Al  Al17  1  0.20886386  0.54701047  0.62871694  1
  Al  Al18  1  0.89135186  0.54758864  0.03974221  1
  Al  Al19  1  0.44226153  0.41861072  0.79942227  1
  Al  Al20  1  0.12037365  0.75756289  0.37636196  1
  Al  Al21  1  0.21787558  0.86548347  0.11960358  1
  Al  Al22  1  0.77511305  0.76549495  0.80074600  1
  Al  Al23  1  0.88687634  0.87377106  0.55452365  1
  Al  Al24  1  0.42912213  0.77687032  0.37930721  1
  Al  Al25  1  0.11558785  0.75728393  0.87826497  1
  Al  Al26  1  0.21307017  0.87986472  0.62794002  1
  Al  Al27  1  0.79630809  0.75603351  0.31248646  1
  Al  Al28  1  0.89789275  0.86751221  0.06322902  1
  Al  Al29  1  0.43185262  0.76689702  0.86483219  1
  Al  Al30  1  0.55826141  0.88335230  0.55191043  1
  Gd  Gd31  1  0.17300328  0.22859978  0.14832884  1
  Gd  Gd32  1  0.55501972  0.20498219  0.05688960  1
  Gd  Gd33  1  0.77155731  0.43077149  0.30019331  1
  Gd  Gd34  1  0.55198273  0.55108199  0.59398717  1
  Gd  Gd35  1  0.56045510  0.86913922  0.07182783  1
  N  N36  1  0.22033351  0.20620376  0.36513334  1
  N  N37  1  0.11227073  0.06883014  0.04341263  1
  N  N38  1  0.88180050  0.20120648  0.85769993  1
  N  N39  1  0.78002890  0.08960732  0.61699388  1
  N  N40  1  0.56320809  0.20357690  0.37363955  1
  N  N41  1  0.42800394  0.10472544  0.15276227  1
  N  N42  1  0.21483692  0.20845121  0.80729134  1
  N  N43  1  0.11062159  0.09136037  0.57796144  1
  N  N44  1  0.89632012  0.18588526  0.38157763  1
  N  N45  1  0.80986677  0.07811251  0.13167015  1
  N  N46  1  0.55282087  0.20120362  0.83979204  1
  N  N47  1  0.44762430  0.09381872  0.60812253  1
  N  N48  1  0.21494946  0.53850153  0.31631029  1
  N  N49  1  0.11596238  0.44769264  0.04509962  1
  N  N50  1  0.88286100  0.54840304  0.85798034  1
  N  N51  1  0.81541972  0.41027414  0.62618768  1
  N  N52  1  0.52518806  0.55533419  0.37447563  1
  N  N53  1  0.43854522  0.45049322  0.10486666  1
  N  N54  1  0.21475300  0.54745830  0.80929301  1
  N  N55  1  0.11423497  0.43148331  0.57715293  1
  N  N56  1  0.89606762  0.55105862  0.38270661  1
  N  N57  1  0.78492333  0.42450348  0.08030420  1
  N  N58  1  0.55759035  0.53227320  0.83923627  1
  N  N59  1  0.43030976  0.41215914  0.60769393  1
  N  N60  1  0.21951551  0.87759226  0.30830798  1
  N  N61  1  0.11916132  0.75475794  0.06164371  1
  N  N62  1  0.87919180  0.87651654  0.87178358  1
  N  N63  1  0.77693910  0.76531670  0.61741625  1
  N  N64  1  0.56874437  0.86894297  0.36246659  1
  N  N65  1  0.42403099  0.74976328  0.04612504  1
  N  N66  1  0.21789678  0.86806934  0.80699138  1
  N  N67  1  0.11966950  0.75831553  0.56207935  1
  N  N68  1  0.89036158  0.87261419  0.37250358  1
  N  N69  1  0.81749408  0.73953597  0.13220879  1
  N  N70  1  0.55152595  0.87565056  0.84884111  1
  N  N71  1  0.41551504  0.80916530  0.55906568  1
