# generated using pymatgen
data_Gd5Al31N36
_symmetry_space_group_name_H-M   'P 1'
_cell_length_a   9.72560520
_cell_length_b   9.73208754
_cell_length_c   10.38485143
_cell_angle_alpha   90.36321776
_cell_angle_beta   90.18717034
_cell_angle_gamma   59.80191923
_symmetry_Int_Tables_number   1
_chemical_formula_structural   Gd5Al31N36
_chemical_formula_sum   'Gd5 Al31 N36'
_cell_volume   849.52178342
_cell_formula_units_Z   1
loop_
 _symmetry_equiv_pos_site_id
 _symmetry_equiv_pos_as_xyz
  1  'x, y, z'
loop_
 _atom_site_type_symbol
 _atom_site_label
 _atom_site_symmetry_multiplicity
 _atom_site_fract_x
 _atom_site_fract_y
 _atom_site_fract_z
 _atom_site_occupancy
  Al  Al0  1  0.11989488  0.08340222  0.41621283  1
  Al  Al1  1  0.78075833  0.08498483  0.88619968  1
  Al  Al2  1  0.89277575  0.19755037  0.60118961  1
  Al  Al3  1  0.44435898  0.09270396  0.42508154  1
  Al  Al4  1  0.11898491  0.08714313  0.88578895  1
  Al  Al5  1  0.21840246  0.20917501  0.64963730  1
  Al  Al6  1  0.77800733  0.08059432  0.41694052  1
  Al  Al7  1  0.89145035  0.20550706  0.05999135  1
  Al  Al8  1  0.44343597  0.09597638  0.88808325  1
  Al  Al9  1  0.55127496  0.20019604  0.65394193  1
  Al  Al10  1  0.11151228  0.43359531  0.40726902  1
  Al  Al11  1  0.22047084  0.54970150  0.14557023  1
  Al  Al12  1  0.79070144  0.42085782  0.82919123  1
  Al  Al13  1  0.89543472  0.54271276  0.65164339  1
  Al  Al14  1  0.42773967  0.42537181  0.41475826  1
  Al  Al15  1  0.55989700  0.53858402  0.06011275  1
  Al  Al16  1  0.11004473  0.43435639  0.89463788  1
  Al  Al17  1  0.20984289  0.54089195  0.65094574  1
  Al  Al18  1  0.90083037  0.55031673  0.14131543  1
  Al  Al19  1  0.43451426  0.42677691  0.89060304  1
  Al  Al20  1  0.11293736  0.76108491  0.39537180  1
  Al  Al21  1  0.21785422  0.86824618  0.14465916  1
  Al  Al22  1  0.78577453  0.75947701  0.89439851  1
  Al  Al23  1  0.89293724  0.86699015  0.65135481  1
  Al  Al24  1  0.43026495  0.77508962  0.41238160  1
  Al  Al25  1  0.11136217  0.76095831  0.90124420  1
  Al  Al26  1  0.21330583  0.87884555  0.65206754  1
  Al  Al27  1  0.78339570  0.76265759  0.40630382  1
  Al  Al28  1  0.90048224  0.87027539  0.14631005  1
  Al  Al29  1  0.43659315  0.77138503  0.89042043  1
  Al  Al30  1  0.55469792  0.87725923  0.65142478  1
  Gd  Gd31  1  0.20964645  0.21191169  0.15462774  1
  Gd  Gd32  1  0.56483530  0.21326517  0.15339052  1
  Gd  Gd33  1  0.76925579  0.42448569  0.34413492  1
  Gd  Gd34  1  0.53907755  0.54569389  0.63080753  1
  Gd  Gd35  1  0.56170766  0.86184728  0.15105851  1
  N  N36  1  0.22232579  0.20425831  0.37572158  1
  N  N37  1  0.11026477  0.07375756  0.07072803  1
  N  N38  1  0.89035143  0.20460264  0.86881487  1
  N  N39  1  0.77424391  0.08682265  0.60527140  1
  N  N40  1  0.55581251  0.20062847  0.37241484  1
  N  N41  1  0.44410250  0.09801682  0.06790864  1
  N  N42  1  0.21873633  0.21042316  0.83844683  1
  N  N43  1  0.11468884  0.09195639  0.60393094  1
  N  N44  1  0.90102304  0.17536460  0.40271365  1
  N  N45  1  0.80405763  0.07453830  0.07144422  1
  N  N46  1  0.55663549  0.20578016  0.84026418  1
  N  N47  1  0.44263702  0.09384865  0.60811495  1
  N  N48  1  0.22173235  0.53609729  0.33581409  1
  N  N49  1  0.10659241  0.45398891  0.07595569  1
  N  N50  1  0.89373517  0.54351246  0.83737556  1
  N  N51  1  0.80309269  0.41338224  0.63793019  1
  N  N52  1  0.51793774  0.55488035  0.39967601  1
  N  N53  1  0.42691066  0.45335644  0.07206145  1
  N  N54  1  0.21761599  0.54428574  0.83495860  1
  N  N55  1  0.10494687  0.43278454  0.59185729  1
  N  N56  1  0.90537361  0.55557605  0.33041456  1
  N  N57  1  0.78076518  0.42810099  0.11451636  1
  N  N58  1  0.56227343  0.53584350  0.86667769  1
  N  N59  1  0.41745636  0.40812962  0.59617223  1
  N  N60  1  0.22134956  0.87584924  0.33549840  1
  N  N61  1  0.11261603  0.76164351  0.08946161  1
  N  N62  1  0.89535734  0.86627852  0.83444017  1
  N  N63  1  0.78033297  0.75959916  0.59334062  1
  N  N64  1  0.55672504  0.87228651  0.36997007  1
  N  N65  1  0.42567318  0.75686252  0.07204476  1
  N  N66  1  0.22045110  0.86753414  0.83440700  1
  N  N67  1  0.11211094  0.76063551  0.58524733  1
  N  N68  1  0.88764585  0.87300985  0.33887775  1
  N  N69  1  0.80581507  0.75563359  0.07616359  1
  N  N70  1  0.55999929  0.86924278  0.84035329  1
  N  N71  1  0.42037418  0.80349069  0.59429395  1
