# generated using pymatgen
data_Gd5Al31N36
_symmetry_space_group_name_H-M   'P 1'
_cell_length_a   9.71622667
_cell_length_b   9.69159654
_cell_length_c   10.34601189
_cell_angle_alpha   90.10797509
_cell_angle_beta   89.71978354
_cell_angle_gamma   59.99365964
_symmetry_Int_Tables_number   1
_chemical_formula_structural   Gd5Al31N36
_chemical_formula_sum   'Gd5 Al31 N36'
_cell_volume   843.64200389
_cell_formula_units_Z   1
loop_
 _symmetry_equiv_pos_site_id
 _symmetry_equiv_pos_as_xyz
  1  'x, y, z'
loop_
 _atom_site_type_symbol
 _atom_site_label
 _atom_site_symmetry_multiplicity
 _atom_site_fract_x
 _atom_site_fract_y
 _atom_site_fract_z
 _atom_site_occupancy
  Al  Al0  1  0.10938886  0.09140440  0.32585709  1
  Al  Al1  1  0.77870581  0.09072874  0.80248049  1
  Al  Al2  1  0.89631547  0.19820291  0.56636791  1
  Al  Al3  1  0.44331195  0.09537238  0.32782834  1
  Al  Al4  1  0.11033306  0.09354620  0.79731365  1
  Al  Al5  1  0.21836973  0.20935935  0.56119855  1
  Al  Al6  1  0.78750039  0.08526287  0.31810789  1
  Al  Al7  1  0.89424306  0.19342424  0.05130356  1
  Al  Al8  1  0.44390972  0.09479144  0.78485997  1
  Al  Al9  1  0.55479562  0.20363208  0.55790599  1
  Al  Al10  1  0.11236170  0.43530577  0.31675540  1
  Al  Al11  1  0.21347849  0.55115574  0.06280126  1
  Al  Al12  1  0.78677418  0.42396529  0.82129030  1
  Al  Al13  1  0.89798850  0.53837296  0.56549506  1
  Al  Al14  1  0.43536003  0.43631454  0.30894321  1
  Al  Al15  1  0.54210468  0.54599801  0.04693179  1
  Al  Al16  1  0.11114075  0.43163334  0.79978500  1
  Al  Al17  1  0.21705005  0.53785670  0.55884655  1
  Al  Al18  1  0.89498979  0.54604644  0.05184234  1
  Al  Al19  1  0.43363467  0.42578048  0.80553961  1
  Al  Al20  1  0.10732859  0.75700097  0.31792912  1
  Al  Al21  1  0.21302504  0.87067541  0.12425289  1
  Al  Al22  1  0.77872621  0.76406942  0.80135628  1
  Al  Al23  1  0.88937191  0.87130442  0.56030249  1
  Al  Al24  1  0.44249602  0.75928377  0.31484147  1
  Al  Al25  1  0.10896696  0.76200718  0.81107558  1
  Al  Al26  1  0.21688846  0.87457787  0.58673005  1
  Al  Al27  1  0.78767118  0.76044370  0.31710785  1
  Al  Al28  1  0.90032075  0.86696666  0.06459245  1
  Al  Al29  1  0.43598531  0.77246988  0.80143409  1
  Al  Al30  1  0.55783201  0.87357085  0.55658936  1
  Gd  Gd31  1  0.21248168  0.20936031  0.05633726  1
  Gd  Gd32  1  0.56224998  0.20768198  0.06264235  1
  Gd  Gd33  1  0.78803581  0.42236309  0.29732396  1
  Gd  Gd34  1  0.56056462  0.53244118  0.57444261  1
  Gd  Gd35  1  0.56263197  0.86330124  0.06009932  1
  N  N36  1  0.21561661  0.21073458  0.37229181  1
  N  N37  1  0.09084534  0.09108193  0.13825389  1
  N  N38  1  0.89268440  0.19681180  0.86564784  1
  N  N39  1  0.77804038  0.09285086  0.61772444  1
  N  N40  1  0.55895878  0.20955032  0.36731634  1
  N  N41  1  0.44076346  0.09575675  0.14876758  1
  N  N42  1  0.22270730  0.20619394  0.83535039  1
  N  N43  1  0.11145950  0.09472856  0.61228469  1
  N  N44  1  0.89854771  0.18192479  0.38574246  1
  N  N45  1  0.80834526  0.07771447  0.13234939  1
  N  N46  1  0.55431725  0.20167543  0.84417417  1
  N  N47  1  0.44485341  0.09390604  0.59931992  1
  N  N48  1  0.22275681  0.53956649  0.37360083  1
  N  N49  1  0.09785435  0.45452012  0.13088630  1
  N  N50  1  0.89266271  0.54507969  0.86598547  1
  N  N51  1  0.81566826  0.40953962  0.63285049  1
  N  N52  1  0.53864482  0.54573972  0.36069087  1
  N  N53  1  0.42484643  0.45757790  0.12302037  1
  N  N54  1  0.21745190  0.54033319  0.87289031  1
  N  N55  1  0.11205415  0.43061565  0.61674171  1
  N  N56  1  0.90214981  0.55126050  0.38309119  1
  N  N57  1  0.77494232  0.42973302  0.07639364  1
  N  N58  1  0.54861700  0.54224585  0.85384554  1
  N  N59  1  0.42375663  0.41357352  0.62422898  1
  N  N60  1  0.22138290  0.86872470  0.35247557  1
  N  N61  1  0.10715339  0.75914942  0.12773926  1
  N  N62  1  0.88628340  0.87330613  0.87187734  1
  N  N63  1  0.77887923  0.76209913  0.61683320  1
  N  N64  1  0.56111417  0.86542584  0.36763509  1
  N  N65  1  0.43179815  0.74889911  0.12713358  1
  N  N66  1  0.21743491  0.87512724  0.83861556  1
  N  N67  1  0.10775307  0.75782584  0.61946875  1
  N  N68  1  0.89040383  0.87105456  0.37628962  1
  N  N69  1  0.80762643  0.74852917  0.13186473  1
  N  N70  1  0.55449570  0.87695478  0.84146264  1
  N  N71  1  0.43278952  0.78850561  0.61725619  1
