# generated using pymatgen
data_Gd5Al31N36
_symmetry_space_group_name_H-M   'P 1'
_cell_length_a   9.62801077
_cell_length_b   9.65896079
_cell_length_c   10.68491345
_cell_angle_alpha   89.77369663
_cell_angle_beta   89.40425292
_cell_angle_gamma   59.99786135
_symmetry_Int_Tables_number   1
_chemical_formula_structural   Gd5Al31N36
_chemical_formula_sum   'Gd5 Al31 N36'
_cell_volume   860.46918565
_cell_formula_units_Z   1
loop_
 _symmetry_equiv_pos_site_id
 _symmetry_equiv_pos_as_xyz
  1  'x, y, z'
loop_
 _atom_site_type_symbol
 _atom_site_label
 _atom_site_symmetry_multiplicity
 _atom_site_fract_x
 _atom_site_fract_y
 _atom_site_fract_z
 _atom_site_occupancy
  Al  Al0  1  0.12094256  0.08446227  0.39712807  1
  Al  Al1  1  0.77622673  0.08831145  0.79928259  1
  Al  Al2  1  0.89017990  0.20052103  0.56627614  1
  Al  Al3  1  0.44919590  0.09701409  0.32783648  1
  Al  Al4  1  0.11655391  0.08542714  0.86446034  1
  Al  Al5  1  0.21364556  0.21018896  0.62028135  1
  Al  Al6  1  0.78935669  0.08752842  0.31386938  1
  Al  Al7  1  0.88930343  0.19281849  0.04003523  1
  Al  Al8  1  0.44677330  0.08860125  0.78809904  1
  Al  Al9  1  0.55374008  0.20377249  0.55521929  1
  Al  Al10  1  0.12214328  0.43108215  0.39768586  1
  Al  Al11  1  0.20951251  0.55233953  0.12762600  1
  Al  Al12  1  0.79009936  0.41853658  0.80841951  1
  Al  Al13  1  0.89180535  0.54312555  0.56679783  1
  Al  Al14  1  0.43997512  0.43633069  0.30721626  1
  Al  Al15  1  0.55488289  0.53156493  0.03789136  1
  Al  Al16  1  0.11795203  0.42700438  0.86634878  1
  Al  Al17  1  0.20954084  0.54652074  0.63140001  1
  Al  Al18  1  0.89110813  0.54616153  0.04012219  1
  Al  Al19  1  0.44331154  0.41591477  0.79750963  1
  Al  Al20  1  0.11936488  0.75895270  0.37748327  1
  Al  Al21  1  0.21892099  0.86552892  0.12016266  1
  Al  Al22  1  0.77556546  0.76328510  0.79949351  1
  Al  Al23  1  0.88585941  0.87524868  0.55468257  1
  Al  Al24  1  0.42997052  0.77927289  0.37928996  1
  Al  Al25  1  0.11340824  0.75748006  0.87869447  1
  Al  Al26  1  0.21533564  0.87679644  0.62831422  1
  Al  Al27  1  0.79338827  0.75930596  0.31466684  1
  Al  Al28  1  0.89665617  0.86755795  0.06436858  1
  Al  Al29  1  0.43239724  0.76128441  0.86251420  1
  Al  Al30  1  0.55870612  0.88186909  0.55525909  1
  Gd  Gd31  1  0.17850171  0.22432782  0.14652271  1
  Gd  Gd32  1  0.55492399  0.20934799  0.05813403  1
  Gd  Gd33  1  0.77815075  0.43179206  0.29869895  1
  Gd  Gd34  1  0.55649568  0.53917024  0.57874223  1
  Gd  Gd35  1  0.56329935  0.86962667  0.06159803  1
  N  N36  1  0.21910228  0.20898609  0.36028147  1
  N  N37  1  0.11350222  0.06809512  0.04262537  1
  N  N38  1  0.88096687  0.19939469  0.85944748  1
  N  N39  1  0.77759960  0.09130213  0.61805611  1
  N  N40  1  0.55891740  0.21285263  0.36970893  1
  N  N41  1  0.43554529  0.10021978  0.15216400  1
  N  N42  1  0.21384462  0.20816163  0.80716132  1
  N  N43  1  0.11401014  0.08927522  0.57629541  1
  N  N44  1  0.89474673  0.18831511  0.38404591  1
  N  N45  1  0.80897216  0.07793964  0.13277989  1
  N  N46  1  0.55123832  0.19872541  0.84575795  1
  N  N47  1  0.44731759  0.09438674  0.60798133  1
  N  N48  1  0.20966791  0.54427743  0.31297507  1
  N  N49  1  0.11714508  0.44644075  0.04469678  1
  N  N50  1  0.88107544  0.54729115  0.86037500  1
  N  N51  1  0.81726797  0.40879714  0.63014245  1
  N  N52  1  0.52720628  0.55700637  0.36600276  1
  N  N53  1  0.43942138  0.45372357  0.12666007  1
  N  N54  1  0.21254229  0.54802390  0.81139692  1
  N  N55  1  0.11722140  0.43009570  0.57582043  1
  N  N56  1  0.89506133  0.55436527  0.38682893  1
  N  N57  1  0.78594089  0.42189057  0.08167365  1
  N  N58  1  0.55661780  0.52668463  0.84751273  1
  N  N59  1  0.43204828  0.40877738  0.62127533  1
  N  N60  1  0.21923625  0.87988824  0.30826551  1
  N  N61  1  0.11888327  0.75616322  0.06037992  1
  N  N62  1  0.87608978  0.87598394  0.87422415  1
  N  N63  1  0.77921456  0.76432918  0.61903389  1
  N  N64  1  0.56768566  0.87308987  0.36799835  1
  N  N65  1  0.42473221  0.75033386  0.04555626  1
  N  N66  1  0.21661299  0.86735410  0.80648691  1
  N  N67  1  0.11994729  0.75759996  0.56177552  1
  N  N68  1  0.88806712  0.87599038  0.37407266  1
  N  N69  1  0.81675215  0.73737579  0.13469974  1
  N  N70  1  0.55023459  0.87237809  0.84297882  1
  N  N71  1  0.41999241  0.80058559  0.56111880  1
