# generated using pymatgen
data_Gd5Al31N36
_symmetry_space_group_name_H-M   'P 1'
_cell_length_a   9.70027036
_cell_length_b   9.68129572
_cell_length_c   10.29548009
_cell_angle_alpha   89.99998949
_cell_angle_beta   89.66809175
_cell_angle_gamma   60.06470380
_symmetry_Int_Tables_number   1
_chemical_formula_structural   Gd5Al31N36
_chemical_formula_sum   'Gd5 Al31 N36'
_cell_volume   837.85264801
_cell_formula_units_Z   1
loop_
 _symmetry_equiv_pos_site_id
 _symmetry_equiv_pos_as_xyz
  1  'x, y, z'
loop_
 _atom_site_type_symbol
 _atom_site_label
 _atom_site_symmetry_multiplicity
 _atom_site_fract_x
 _atom_site_fract_y
 _atom_site_fract_z
 _atom_site_occupancy
  Al  Al0  1  0.11195657  0.08504098  0.30861831  1
  Al  Al1  1  0.77881914  0.09060582  0.79300420  1
  Al  Al2  1  0.89801850  0.19664220  0.55689563  1
  Al  Al3  1  0.44281313  0.09526005  0.32015651  1
  Al  Al4  1  0.11175194  0.09068331  0.79089496  1
  Al  Al5  1  0.21693401  0.20819961  0.55239175  1
  Al  Al6  1  0.78799723  0.08469842  0.30938081  1
  Al  Al7  1  0.89507770  0.19263184  0.04371381  1
  Al  Al8  1  0.44413602  0.09459861  0.77613810  1
  Al  Al9  1  0.55512481  0.20420392  0.54886196  1
  Al  Al10  1  0.11195657  0.43633566  0.30861832  1
  Al  Al11  1  0.21368478  0.55069486  0.05419433  1
  Al  Al12  1  0.78745967  0.42293678  0.81161999  1
  Al  Al13  1  0.89801851  0.53867256  0.55689564  1
  Al  Al14  1  0.43482270  0.43650340  0.30062480  1
  Al  Al15  1  0.54285205  0.54524062  0.03956903  1
  Al  Al16  1  0.11175194  0.43089797  0.79089495  1
  Al  Al17  1  0.21694238  0.54025837  0.54983226  1
  Al  Al18  1  0.89507765  0.54562369  0.04371380  1
  Al  Al19  1  0.43432899  0.42525982  0.79639329  1
  Al  Al20  1  0.11105440  0.76113940  0.30222320  1
  Al  Al21  1  0.21368477  0.86895363  0.05419431  1
  Al  Al22  1  0.77881914  0.76390826  0.79300418  1
  Al  Al23  1  0.89136146  0.87098590  0.55152370  1
  Al  Al24  1  0.43482269  0.76200713  0.30062478  1
  Al  Al25  1  0.10968430  0.76182444  0.80247755  1
  Al  Al26  1  0.21694234  0.87613251  0.54983226  1
  Al  Al27  1  0.78799721  0.76063755  0.30938083  1
  Al  Al28  1  0.90054888  0.86639215  0.05595945  1
  Al  Al29  1  0.43432895  0.77374446  0.79639330  1
  Al  Al30  1  0.55512477  0.87400460  0.54886197  1
  Gd  Gd31  1  0.21285083  0.21024125  0.04903298  1
  Gd  Gd32  1  0.56293030  0.20730318  0.05385549  1
  Gd  Gd33  1  0.78638542  0.42347389  0.29164146  1
  Gd  Gd34  1  0.55767757  0.53782791  0.56696732  1
  Gd  Gd35  1  0.56293028  0.86309992  0.05385547  1
  N  N36  1  0.21404454  0.20964436  0.36169893  1
  N  N37  1  0.09751288  0.08036963  0.12243505  1
  N  N38  1  0.89300922  0.19605109  0.85693833  1
  N  N39  1  0.77826618  0.09260273  0.60779146  1
  N  N40  1  0.55922811  0.20970361  0.35824319  1
  N  N41  1  0.44138322  0.09597505  0.14049123  1
  N  N42  1  0.22322502  0.20505412  0.82716890  1
  N  N43  1  0.11264959  0.08998881  0.60726959  1
  N  N44  1  0.90205396  0.17957842  0.37459825  1
  N  N45  1  0.80859212  0.07686283  0.12348032  1
  N  N46  1  0.55467933  0.20148066  0.83438077  1
  N  N47  1  0.44410545  0.09461391  0.58973255  1
  N  N48  1  0.22147487  0.54275277  0.36348018  1
  N  N49  1  0.09751282  0.45545074  0.12243507  1
  N  N50  1  0.89300922  0.54427295  0.85693831  1
  N  N51  1  0.81509376  0.40911972  0.62215385  1
  N  N52  1  0.53532168  0.54900580  0.35174037  1
  N  N53  1  0.42515794  0.45657532  0.11415423  1
  N  N54  1  0.21815916  0.54001706  0.86328263  1
  N  N55  1  0.11264962  0.43069479  0.60726959  1
  N  N56  1  0.90205395  0.55170086  0.37459827  1
  N  N57  1  0.77591167  0.42871072  0.06964698  1
  N  N58  1  0.54880830  0.54226250  0.84517533  1
  N  N59  1  0.42452888  0.41441514  0.61432552  1
  N  N60  1  0.22147488  0.86910560  0.36348017  1
  N  N61  1  0.11046669  0.76143326  0.11322755  1
  N  N62  1  0.88711809  0.87310757  0.86224716  1
  N  N63  1  0.77826617  0.76246429  0.60779145  1
  N  N64  1  0.55922808  0.86440158  0.35824321  1
  N  N65  1  0.42515797  0.75160001  0.11415420  1
  N  N66  1  0.21815914  0.87515703  0.86328263  1
  N  N67  1  0.11107116  0.76113100  0.61326764  1
  N  N68  1  0.89335677  0.86998822  0.36633553  1
  N  N69  1  0.80859210  0.74787818  0.12348033  1
  N  N70  1  0.55467932  0.87717327  0.83438075  1
  N  N71  1  0.42452880  0.79438929  0.61432553  1
