# generated using pymatgen
data_Gd5Al31N36
_symmetry_space_group_name_H-M   'P 1'
_cell_length_a   9.66786531
_cell_length_b   9.67968911
_cell_length_c   10.60655705
_cell_angle_alpha   90.22465314
_cell_angle_beta   89.29296873
_cell_angle_gamma   60.14242809
_symmetry_Int_Tables_number   1
_chemical_formula_structural   Gd5Al31N36
_chemical_formula_sum   'Gd5 Al31 N36'
_cell_volume   860.70883429
_cell_formula_units_Z   1
loop_
 _symmetry_equiv_pos_site_id
 _symmetry_equiv_pos_as_xyz
  1  'x, y, z'
loop_
 _atom_site_type_symbol
 _atom_site_label
 _atom_site_symmetry_multiplicity
 _atom_site_fract_x
 _atom_site_fract_y
 _atom_site_fract_z
 _atom_site_occupancy
  Al  Al0  1  0.12602452  0.08002589  0.41855025  1
  Al  Al1  1  0.77792984  0.09910518  0.82528881  1
  Al  Al2  1  0.89111246  0.19784597  0.58803749  1
  Al  Al3  1  0.44994199  0.09099418  0.42571875  1
  Al  Al4  1  0.11510885  0.08760619  0.89224549  1
  Al  Al5  1  0.21913729  0.20566201  0.65451610  1
  Al  Al6  1  0.79278755  0.08202521  0.34480011  1
  Al  Al7  1  0.88396089  0.19915904  0.06577850  1
  Al  Al8  1  0.43957916  0.09673913  0.89161352  1
  Al  Al9  1  0.54592468  0.20472725  0.65251542  1
  Al  Al10  1  0.12565617  0.42315607  0.41732089  1
  Al  Al11  1  0.21546923  0.55111443  0.14410209  1
  Al  Al12  1  0.79434799  0.42011841  0.82789017  1
  Al  Al13  1  0.89445117  0.53555800  0.59209975  1
  Al  Al14  1  0.43584090  0.42257291  0.41402503  1
  Al  Al15  1  0.55685082  0.54141099  0.05386142  1
  Al  Al16  1  0.11682573  0.43037071  0.88927521  1
  Al  Al17  1  0.21262631  0.54084402  0.65322960  1
  Al  Al18  1  0.88749879  0.54343867  0.05795542  1
  Al  Al19  1  0.43204625  0.43153626  0.89006441  1
  Al  Al20  1  0.11749968  0.75461633  0.39862298  1
  Al  Al21  1  0.21626378  0.86839364  0.14481728  1
  Al  Al22  1  0.77774855  0.77169367  0.89013280  1
  Al  Al23  1  0.89517036  0.86600634  0.65226776  1
  Al  Al24  1  0.43421699  0.77295829  0.41601169  1
  Al  Al25  1  0.10850191  0.76374480  0.90234821  1
  Al  Al26  1  0.21347351  0.87924797  0.65399324  1
  Al  Al27  1  0.78083382  0.76753677  0.41826971  1
  Al  Al28  1  0.90210736  0.86107264  0.15370017  1
  Al  Al29  1  0.43452031  0.77394175  0.89004057  1
  Al  Al30  1  0.55255669  0.88024366  0.65440999  1
  Gd  Gd31  1  0.20001843  0.21581117  0.15696794  1
  Gd  Gd32  1  0.54590537  0.22137222  0.15029038  1
  Gd  Gd33  1  0.77604927  0.42567788  0.32949316  1
  Gd  Gd34  1  0.54729905  0.54252148  0.63020488  1
  Gd  Gd35  1  0.55893745  0.86117775  0.15698076  1
  N  N36  1  0.22936673  0.19978342  0.37379002  1
  N  N37  1  0.10584375  0.07388548  0.07193346  1
  N  N38  1  0.88257690  0.20571827  0.88472709  1
  N  N39  1  0.77671358  0.09640204  0.64300369  1
  N  N40  1  0.56156164  0.19852779  0.36770042  1
  N  N41  1  0.43598679  0.09388717  0.06764928  1
  N  N42  1  0.21732390  0.20750478  0.83857814  1
  N  N43  1  0.11553916  0.09050128  0.60155133  1
  N  N44  1  0.90186230  0.17813211  0.40854143  1
  N  N45  1  0.80729167  0.08605603  0.15523368  1
  N  N46  1  0.54717191  0.21146902  0.84054439  1
  N  N47  1  0.44257445  0.09454370  0.60563523  1
  N  N48  1  0.22729637  0.53009836  0.33451821  1
  N  N49  1  0.10747257  0.45255314  0.07186303  1
  N  N50  1  0.88846947  0.54117865  0.87547816  1
  N  N51  1  0.81250142  0.40766552  0.64838761  1
  N  N52  1  0.52904401  0.55149529  0.40078513  1
  N  N53  1  0.42154846  0.45895845  0.06751360  1
  N  N54  1  0.21758046  0.54746830  0.83318548  1
  N  N55  1  0.11705825  0.42413538  0.60120840  1
  N  N56  1  0.90224971  0.54445522  0.40605396  1
  N  N57  1  0.77577515  0.43179479  0.10836759  1
  N  N58  1  0.56084595  0.53820215  0.86391206  1
  N  N59  1  0.42026523  0.41021168  0.59227575  1
  N  N60  1  0.22545422  0.87221095  0.33576491  1
  N  N61  1  0.10983136  0.76258365  0.08781098  1
  N  N62  1  0.89542624  0.87040814  0.83618702  1
  N  N63  1  0.77576309  0.76745398  0.60260406  1
  N  N64  1  0.56076810  0.87041722  0.37272660  1
  N  N65  1  0.42415636  0.75972556  0.06870181  1
  N  N66  1  0.21827864  0.87049676  0.83429655  1
  N  N67  1  0.11362060  0.75901333  0.58580225  1
  N  N68  1  0.89875124  0.85550603  0.34194043  1
  N  N69  1  0.79822842  0.76402183  0.07279071  1
  N  N70  1  0.55561932  0.87409418  0.83802176  1
  N  N71  1  0.42218777  0.80128367  0.59512634  1
