# generated using pymatgen
data_Gd5Al31N36
_symmetry_space_group_name_H-M   'P 1'
_cell_length_a   9.67866337
_cell_length_b   9.69981392
_cell_length_c   10.57780340
_cell_angle_alpha   90.20358291
_cell_angle_beta   89.60749696
_cell_angle_gamma   59.92903540
_symmetry_Int_Tables_number   1
_chemical_formula_structural   Gd5Al31N36
_chemical_formula_sum   'Gd5 Al31 N36'
_cell_volume   859.34898242
_cell_formula_units_Z   1
loop_
 _symmetry_equiv_pos_site_id
 _symmetry_equiv_pos_as_xyz
  1  'x, y, z'
loop_
 _atom_site_type_symbol
 _atom_site_label
 _atom_site_symmetry_multiplicity
 _atom_site_fract_x
 _atom_site_fract_y
 _atom_site_fract_z
 _atom_site_occupancy
  Al  Al0  1  0.12138363  0.08213784  0.39733638  1
  Al  Al1  1  0.77893692  0.08848195  0.79831054  1
  Al  Al2  1  0.88830557  0.20166812  0.56448692  1
  Al  Al3  1  0.44800783  0.09511815  0.32827380  1
  Al  Al4  1  0.11666479  0.08717756  0.86391300  1
  Al  Al5  1  0.21391756  0.20989184  0.61752667  1
  Al  Al6  1  0.79186388  0.08381817  0.31294762  1
  Al  Al7  1  0.88855727  0.19390071  0.04027831  1
  Al  Al8  1  0.44648468  0.08922584  0.78937947  1
  Al  Al9  1  0.55932638  0.19623807  0.56026948  1
  Al  Al10  1  0.12056212  0.42929986  0.39773816  1
  Al  Al11  1  0.21983463  0.54631546  0.12503960  1
  Al  Al12  1  0.79445036  0.41881696  0.80682992  1
  Al  Al13  1  0.89007690  0.54376353  0.56522682  1
  Al  Al14  1  0.43408095  0.42940557  0.36896649  1
  Al  Al15  1  0.55613417  0.53166546  0.03244312  1
  Al  Al16  1  0.11887314  0.42753472  0.86546105  1
  Al  Al17  1  0.20919854  0.54660063  0.62796309  1
  Al  Al18  1  0.89132544  0.54780441  0.03988250  1
  Al  Al19  1  0.44125520  0.42113268  0.80975638  1
  Al  Al20  1  0.12061339  0.75740143  0.37594648  1
  Al  Al21  1  0.21780012  0.86557928  0.11959771  1
  Al  Al22  1  0.77502913  0.76566611  0.80073159  1
  Al  Al23  1  0.88716525  0.87348317  0.55441005  1
  Al  Al24  1  0.42939695  0.77644331  0.37920785  1
  Al  Al25  1  0.11554774  0.75751510  0.87835639  1
  Al  Al26  1  0.21300524  0.87990082  0.62780008  1
  Al  Al27  1  0.79636450  0.75596376  0.31252312  1
  Al  Al28  1  0.89807733  0.86750402  0.06353229  1
  Al  Al29  1  0.43160826  0.76792688  0.86501297  1
  Al  Al30  1  0.55825707  0.88320955  0.55173905  1
  Gd  Gd31  1  0.17263135  0.22896047  0.14847939  1
  Gd  Gd32  1  0.55581284  0.20355552  0.05724982  1
  Gd  Gd33  1  0.77100455  0.43061446  0.30049795  1
  Gd  Gd34  1  0.55149135  0.55186445  0.59607066  1
  Gd  Gd35  1  0.56042773  0.86933859  0.07238074  1
  N  N36  1  0.22042964  0.20619757  0.36555705  1
  N  N37  1  0.11228945  0.06895569  0.04335750  1
  N  N38  1  0.88168748  0.20140165  0.85762896  1
  N  N39  1  0.78031598  0.08935799  0.61705429  1
  N  N40  1  0.56462597  0.20146248  0.37346757  1
  N  N41  1  0.42719020  0.10474115  0.15278931  1
  N  N42  1  0.21476609  0.20850269  0.80727438  1
  N  N43  1  0.11056580  0.09133043  0.57811768  1
  N  N44  1  0.89647411  0.18562782  0.38161662  1
  N  N45  1  0.81065898  0.07800241  0.13179979  1
  N  N46  1  0.55266602  0.20180530  0.83844917  1
  N  N47  1  0.44754134  0.09347286  0.60842280  1
  N  N48  1  0.21727858  0.53726202  0.31643779  1
  N  N49  1  0.11551344  0.44796359  0.04501502  1
  N  N50  1  0.88293358  0.54853130  0.85780111  1
  N  N51  1  0.81514209  0.41030499  0.62585233  1
  N  N52  1  0.52526718  0.55543336  0.37403271  1
  N  N53  1  0.43578438  0.45057701  0.09029487  1
  N  N54  1  0.21558838  0.54699436  0.80818374  1
  N  N55  1  0.11360930  0.43164444  0.57746731  1
  N  N56  1  0.89618197  0.55101003  0.38250531  1
  N  N57  1  0.78471045  0.42479365  0.08021488  1
  N  N58  1  0.55808905  0.53354132  0.83788639  1
  N  N59  1  0.42806011  0.41351262  0.59395443  1
  N  N60  1  0.21961972  0.87761895  0.30832507  1
  N  N61  1  0.11909280  0.75477037  0.06177951  1
  N  N62  1  0.87927668  0.87655067  0.87165494  1
  N  N63  1  0.77682833  0.76540239  0.61735095  1
  N  N64  1  0.56876004  0.86880842  0.36235539  1
  N  N65  1  0.42415070  0.75016952  0.04622278  1
  N  N66  1  0.21792739  0.86805611  0.80701053  1
  N  N67  1  0.11969090  0.75830783  0.56213146  1
  N  N68  1  0.89075918  0.87224127  0.37237572  1
  N  N69  1  0.81750222  0.73972074  0.13218202  1
  N  N70  1  0.55156268  0.87606248  0.84904785  1
  N  N71  1  0.41560795  0.80911375  0.55913017  1
