# generated using pymatgen
data_Gd5Al31N36
_symmetry_space_group_name_H-M   'P 1'
_cell_length_a   9.66546127
_cell_length_b   9.68055822
_cell_length_c   10.60885683
_cell_angle_alpha   89.89739645
_cell_angle_beta   88.95205665
_cell_angle_gamma   60.15393725
_symmetry_Int_Tables_number   1
_chemical_formula_structural   Gd5Al31N36
_chemical_formula_sum   'Gd5 Al31 N36'
_cell_volume   860.80683191
_cell_formula_units_Z   1
loop_
 _symmetry_equiv_pos_site_id
 _symmetry_equiv_pos_as_xyz
  1  'x, y, z'
loop_
 _atom_site_type_symbol
 _atom_site_label
 _atom_site_symmetry_multiplicity
 _atom_site_fract_x
 _atom_site_fract_y
 _atom_site_fract_z
 _atom_site_occupancy
  Al  Al0  1  0.12692459  0.08145145  0.41810016  1
  Al  Al1  1  0.77747322  0.09852017  0.82565080  1
  Al  Al2  1  0.89111126  0.19852879  0.58703294  1
  Al  Al3  1  0.45115008  0.09309082  0.42506892  1
  Al  Al4  1  0.11410255  0.08690341  0.89260924  1
  Al  Al5  1  0.21910571  0.20571326  0.65420743  1
  Al  Al6  1  0.79452961  0.08366669  0.34223306  1
  Al  Al7  1  0.88417553  0.19852648  0.06684949  1
  Al  Al8  1  0.43820275  0.09553810  0.89138198  1
  Al  Al9  1  0.54610541  0.20504611  0.65277298  1
  Al  Al10  1  0.12669159  0.42440360  0.41774769  1
  Al  Al11  1  0.21532440  0.55008064  0.14443977  1
  Al  Al12  1  0.79371141  0.41894708  0.82840338  1
  Al  Al13  1  0.89525218  0.53569793  0.59336777  1
  Al  Al14  1  0.43735951  0.42359694  0.41245275  1
  Al  Al15  1  0.55624692  0.54000828  0.05379791  1
  Al  Al16  1  0.11620201  0.42967024  0.88886625  1
  Al  Al17  1  0.21362650  0.54065489  0.65301786  1
  Al  Al18  1  0.88636736  0.54364575  0.05760678  1
  Al  Al19  1  0.43133887  0.43079528  0.89019930  1
  Al  Al20  1  0.11879151  0.75547875  0.39904289  1
  Al  Al21  1  0.21577150  0.86770900  0.14442724  1
  Al  Al22  1  0.77605524  0.77094449  0.88824153  1
  Al  Al23  1  0.89552422  0.86656248  0.65227184  1
  Al  Al24  1  0.43460946  0.77473878  0.41696862  1
  Al  Al25  1  0.10723373  0.76300894  0.90259926  1
  Al  Al26  1  0.21295868  0.87968111  0.65420827  1
  Al  Al27  1  0.78182226  0.76902105  0.41992024  1
  Al  Al28  1  0.90209233  0.85905369  0.15514547  1
  Al  Al29  1  0.43327846  0.77301438  0.88967713  1
  Al  Al30  1  0.55184181  0.88096235  0.65374852  1
  Gd  Gd31  1  0.19905318  0.21548342  0.15694421  1
  Gd  Gd32  1  0.54754394  0.21749122  0.14766102  1
  Gd  Gd33  1  0.77699305  0.42894663  0.32947339  1
  Gd  Gd34  1  0.54798614  0.54237359  0.62990776  1
  Gd  Gd35  1  0.55694811  0.85945633  0.15811473  1
  N  N36  1  0.23057185  0.20141175  0.37346985  1
  N  N37  1  0.10586522  0.07327066  0.07204199  1
  N  N38  1  0.88142549  0.20484323  0.88602821  1
  N  N39  1  0.77700283  0.09702436  0.64340266  1
  N  N40  1  0.56254370  0.20050420  0.36519116  1
  N  N41  1  0.43492263  0.09155079  0.06738504  1
  N  N42  1  0.21625198  0.20697026  0.83827739  1
  N  N43  1  0.11555093  0.09085418  0.60077162  1
  N  N44  1  0.90245951  0.18045225  0.40711945  1
  N  N45  1  0.80911796  0.08387977  0.15590167  1
  N  N46  1  0.54634081  0.21068764  0.84092414  1
  N  N47  1  0.44281809  0.09545856  0.60509903  1
  N  N48  1  0.22801278  0.53172965  0.33468799  1
  N  N49  1  0.10647596  0.45250556  0.07164069  1
  N  N50  1  0.88752555  0.54063644  0.87534409  1
  N  N51  1  0.81315677  0.40714910  0.64900688  1
  N  N52  1  0.52985206  0.55357653  0.40061294  1
  N  N53  1  0.42148729  0.45668198  0.06767883  1
  N  N54  1  0.21735062  0.54693264  0.83304097  1
  N  N55  1  0.11789497  0.42428147  0.60175096  1
  N  N56  1  0.90328880  0.54616174  0.40768492  1
  N  N57  1  0.77506370  0.43112203  0.10837253  1
  N  N58  1  0.56011616  0.53729155  0.86369074  1
  N  N59  1  0.42137887  0.41021282  0.59124306  1
  N  N60  1  0.22670373  0.87369030  0.33547142  1
  N  N61  1  0.10948508  0.76154189  0.08807544  1
  N  N62  1  0.89463503  0.86982589  0.83616327  1
  N  N63  1  0.77610795  0.76766315  0.60441179  1
  N  N64  1  0.56202214  0.87202364  0.37403499  1
  N  N65  1  0.42350793  0.75798659  0.06815100  1
  N  N66  1  0.21688937  0.87032765  0.83443454  1
  N  N67  1  0.11435605  0.75924909  0.58604027  1
  N  N68  1  0.90015570  0.85675600  0.34359584  1
  N  N69  1  0.79647070  0.76387828  0.07374257  1
  N  N70  1  0.55396616  0.87371340  0.83716906  1
  N  N71  1  0.42194983  0.80161286  0.59567869  1
