# generated using pymatgen
data_Gd5Al31N36
_symmetry_space_group_name_H-M   'P 1'
_cell_length_a   9.68456408
_cell_length_b   9.70650266
_cell_length_c   10.55876759
_cell_angle_alpha   90.00001470
_cell_angle_beta   89.20106169
_cell_angle_gamma   59.92500784
_symmetry_Int_Tables_number   1
_chemical_formula_structural   Gd5Al31N36
_chemical_formula_sum   'Gd5 Al31 N36'
_cell_volume   858.81901531
_cell_formula_units_Z   1
loop_
 _symmetry_equiv_pos_site_id
 _symmetry_equiv_pos_as_xyz
  1  'x, y, z'
loop_
 _atom_site_type_symbol
 _atom_site_label
 _atom_site_symmetry_multiplicity
 _atom_site_fract_x
 _atom_site_fract_y
 _atom_site_fract_z
 _atom_site_occupancy
  Al  Al0  1  0.12362567  0.08032572  0.42120432  1
  Al  Al1  1  0.77394869  0.09259092  0.82247727  1
  Al  Al2  1  0.88780632  0.20108523  0.58736099  1
  Al  Al3  1  0.44885337  0.09223966  0.35025072  1
  Al  Al4  1  0.11688244  0.08850997  0.88502364  1
  Al  Al5  1  0.21531550  0.20900860  0.63894929  1
  Al  Al6  1  0.79755189  0.08004304  0.33506603  1
  Al  Al7  1  0.88968310  0.19443857  0.06190284  1
  Al  Al8  1  0.44632819  0.09350227  0.81412182  1
  Al  Al9  1  0.55900200  0.19387971  0.57589758  1
  Al  Al10  1  0.12362572  0.42938132  0.42120435  1
  Al  Al11  1  0.21620123  0.54849119  0.14258259  1
  Al  Al12  1  0.79237156  0.42048063  0.82757822  1
  Al  Al13  1  0.88780633  0.54444122  0.58736100  1
  Al  Al14  1  0.43242136  0.42819765  0.40162945  1
  Al  Al15  1  0.55997236  0.53668017  0.05761959  1
  Al  Al16  1  0.11688248  0.42794035  0.88502360  1
  Al  Al17  1  0.21393144  0.54089272  0.65015039  1
  Al  Al18  1  0.88968322  0.54921113  0.06190282  1
  Al  Al19  1  0.43174089  0.43155305  0.88812840  1
  Al  Al20  1  0.12373870  0.75479700  0.39735854  1
  Al  Al21  1  0.21620115  0.86864039  0.14258261  1
  Al  Al22  1  0.77394869  0.76679323  0.82247730  1
  Al  Al23  1  0.88835542  0.87248869  0.57739513  1
  Al  Al24  1  0.43242134  0.77271363  0.40162943  1
  Al  Al25  1  0.11409375  0.75961954  0.89816636  1
  Al  Al26  1  0.21393146  0.87850859  0.65015037  1
  Al  Al27  1  0.79755197  0.75573781  0.33506601  1
  Al  Al28  1  0.89895302  0.86718991  0.08454006  1
  Al  Al29  1  0.43174089  0.77003886  0.88812844  1
  Al  Al30  1  0.55900201  0.88045097  0.57589751  1
  Gd  Gd31  1  0.16831010  0.23251136  0.17331343  1
  Gd  Gd32  1  0.55988415  0.20173610  0.09369094  1
  Gd  Gd33  1  0.77386799  0.42973240  0.32789096  1
  Gd  Gd34  1  0.54110465  0.54611402  0.62675278  1
  Gd  Gd35  1  0.55988415  0.87171230  0.09369113  1
  N  N36  1  0.22264551  0.20534357  0.39118534  1
  N  N37  1  0.11297122  0.07158772  0.06530798  1
  N  N38  1  0.88126957  0.20294858  0.87938790  1
  N  N39  1  0.77708972  0.09086710  0.63965254  1
  N  N40  1  0.56997897  0.19600858  0.38547643  1
  N  N41  1  0.42239570  0.10546853  0.17469759  1
  N  N42  1  0.21444079  0.20944595  0.82865056  1
  N  N43  1  0.11069316  0.09052855  0.60222607  1
  N  N44  1  0.89980737  0.18260142  0.40457579  1
  N  N45  1  0.81673311  0.07542572  0.15393196  1
  N  N46  1  0.55061736  0.20452914  0.87130526  1
  N  N47  1  0.44928364  0.09202455  0.63181891  1
  N  N48  1  0.22134463  0.53473016  0.33128024  1
  N  N49  1  0.11297134  0.44877381  0.06530793  1
  N  N50  1  0.88126960  0.54911464  0.87938790  1
  N  N51  1  0.80790330  0.41271478  0.64519247  1
  N  N52  1  0.52556906  0.55388175  0.39042707  1
  N  N53  1  0.42424254  0.45637695  0.07207712  1
  N  N54  1  0.21873007  0.54602978  0.82977709  1
  N  N55  1  0.11069317  0.43211108  0.60222610  1
  N  N56  1  0.89980744  0.55092390  0.40457577  1
  N  N57  1  0.78351146  0.42491075  0.10613032  1
  N  N58  1  0.55901188  0.53716043  0.86274728  1
  N  N59  1  0.41888107  0.41176835  0.58252681  1
  N  N60  1  0.22134460  0.87725789  0.33128025  1
  N  N61  1  0.11896550  0.75718365  0.08235328  1
  N  N62  1  0.87848312  0.87742486  0.89303776  1
  N  N63  1  0.77708971  0.76537605  0.63965255  1
  N  N64  1  0.56997899  0.86734503  0.38547636  1
  N  N65  1  0.42424242  0.75271330  0.07207712  1
  N  N66  1  0.21873008  0.86857290  0.82977707  1
  N  N67  1  0.12152197  0.75590541  0.58496179  1
  N  N68  1  0.89420385  0.86956446  0.39484770  1
  N  N69  1  0.81673321  0.74117405  0.15393196  1
  N  N70  1  0.55061738  0.87818624  0.87130541  1
  N  N71  1  0.41888109  0.80268334  0.58252679  1
