# generated using pymatgen
data_Gd5Al31N36
_symmetry_space_group_name_H-M   'P 1'
_cell_length_a   9.71457046
_cell_length_b   9.68680036
_cell_length_c   10.38428068
_cell_angle_alpha   90.01450590
_cell_angle_beta   89.37634021
_cell_angle_gamma   60.02426309
_symmetry_Int_Tables_number   1
_chemical_formula_structural   Gd5Al31N36
_chemical_formula_sum   'Gd5 Al31 N36'
_cell_volume   846.41241915
_cell_formula_units_Z   1
loop_
 _symmetry_equiv_pos_site_id
 _symmetry_equiv_pos_as_xyz
  1  'x, y, z'
loop_
 _atom_site_type_symbol
 _atom_site_label
 _atom_site_symmetry_multiplicity
 _atom_site_fract_x
 _atom_site_fract_y
 _atom_site_fract_z
 _atom_site_occupancy
  Al  Al0  1  0.11361483  0.08971499  0.34090537  1
  Al  Al1  1  0.77577958  0.09100572  0.80183406  1
  Al  Al2  1  0.89445066  0.19869188  0.56839851  1
  Al  Al3  1  0.44494912  0.09494135  0.32826455  1
  Al  Al4  1  0.10570188  0.09883760  0.79625395  1
  Al  Al5  1  0.22003873  0.21043609  0.56478968  1
  Al  Al6  1  0.78920135  0.08446880  0.31811818  1
  Al  Al7  1  0.89602817  0.19326241  0.04774843  1
  Al  Al8  1  0.44351337  0.09460777  0.78465499  1
  Al  Al9  1  0.55474391  0.20382604  0.55755116  1
  Al  Al10  1  0.11316553  0.43451763  0.31761381  1
  Al  Al11  1  0.21263918  0.55193973  0.06378072  1
  Al  Al12  1  0.78368901  0.42584937  0.82155913  1
  Al  Al13  1  0.89719710  0.53839978  0.56533425  1
  Al  Al14  1  0.43651938  0.43584306  0.30789006  1
  Al  Al15  1  0.54143949  0.54655236  0.04705192  1
  Al  Al16  1  0.10892266  0.43340670  0.79912449  1
  Al  Al17  1  0.21678850  0.53846587  0.55843915  1
  Al  Al18  1  0.89462681  0.54631581  0.05140615  1
  Al  Al19  1  0.43239495  0.42644718  0.80541955  1
  Al  Al20  1  0.10750379  0.75596640  0.31704557  1
  Al  Al21  1  0.21229529  0.87449849  0.13823966  1
  Al  Al22  1  0.77719947  0.76459372  0.80097841  1
  Al  Al23  1  0.88901681  0.87082813  0.55956862  1
  Al  Al24  1  0.44564048  0.75750573  0.31208031  1
  Al  Al25  1  0.10448434  0.75996913  0.81149676  1
  Al  Al26  1  0.21697701  0.87264617  0.61754641  1
  Al  Al27  1  0.78825328  0.75919936  0.31692860  1
  Al  Al28  1  0.90093650  0.86757434  0.06590200  1
  Al  Al29  1  0.43965532  0.76932105  0.80153476  1
  Al  Al30  1  0.55802159  0.87302049  0.55588512  1
  Gd  Gd31  1  0.21628987  0.21066910  0.05400629  1
  Gd  Gd32  1  0.56445367  0.20743834  0.06322360  1
  Gd  Gd33  1  0.79375660  0.41714063  0.29338853  1
  Gd  Gd34  1  0.56140023  0.53159165  0.57013903  1
  Gd  Gd35  1  0.56381892  0.86393767  0.06019331  1
  N  N36  1  0.21833201  0.21088155  0.37635553  1
  N  N37  1  0.09248490  0.09430348  0.12969390  1
  N  N38  1  0.88913152  0.19760751  0.86248624  1
  N  N39  1  0.77671903  0.09227339  0.61809444  1
  N  N40  1  0.56021891  0.20943884  0.36781144  1
  N  N41  1  0.44248423  0.09593095  0.15020391  1
  N  N42  1  0.22038658  0.20722734  0.83195904  1
  N  N43  1  0.11130669  0.09494332  0.60885725  1
  N  N44  1  0.89913225  0.18069893  0.38839621  1
  N  N45  1  0.81010082  0.07871914  0.13312369  1
  N  N46  1  0.55164384  0.20246088  0.84520910  1
  N  N47  1  0.44614487  0.09316146  0.60036357  1
  N  N48  1  0.22365978  0.53929910  0.37363173  1
  N  N49  1  0.09635432  0.45484677  0.13231135  1
  N  N50  1  0.89105321  0.54635666  0.86586518  1
  N  N51  1  0.81420418  0.41038892  0.63406704  1
  N  N52  1  0.54288219  0.54348187  0.35667320  1
  N  N53  1  0.42405274  0.45733320  0.12292632  1
  N  N54  1  0.21577793  0.54037362  0.87377849  1
  N  N55  1  0.11088293  0.43225151  0.61702649  1
  N  N56  1  0.90187298  0.54988308  0.38338381  1
  N  N57  1  0.77416801  0.42987421  0.07315224  1
  N  N58  1  0.54655507  0.54266318  0.85450382  1
  N  N59  1  0.42332995  0.41432920  0.62436445  1
  N  N60  1  0.22276123  0.86790110  0.33679509  1
  N  N61  1  0.10762885  0.76010769  0.12648633  1
  N  N62  1  0.88354110  0.87443726  0.87293216  1
  N  N63  1  0.77803490  0.76223209  0.61696072  1
  N  N64  1  0.56168509  0.86502967  0.36778942  1
  N  N65  1  0.43252383  0.74949523  0.12405765  1
  N  N66  1  0.21513954  0.87460772  0.81923228  1
  N  N67  1  0.10498914  0.75633394  0.61993686  1
  N  N68  1  0.89084410  0.87015988  0.37613063  1
  N  N69  1  0.80807662  0.74837359  0.13244452  1
  N  N70  1  0.55279773  0.87752163  0.84215136  1
  N  N71  1  0.43598387  0.78562959  0.61716069  1
