# generated using pymatgen
data_Gd5Al31N36
_symmetry_space_group_name_H-M   'P 1'
_cell_length_a   9.67576380
_cell_length_b   9.68586062
_cell_length_c   10.58984044
_cell_angle_alpha   90.28732365
_cell_angle_beta   89.38107324
_cell_angle_gamma   60.10395944
_symmetry_Int_Tables_number   1
_chemical_formula_structural   Gd5Al31N36
_chemical_formula_sum   'Gd5 Al31 N36'
_cell_volume   860.28218989
_cell_formula_units_Z   1
loop_
 _symmetry_equiv_pos_site_id
 _symmetry_equiv_pos_as_xyz
  1  'x, y, z'
loop_
 _atom_site_type_symbol
 _atom_site_label
 _atom_site_symmetry_multiplicity
 _atom_site_fract_x
 _atom_site_fract_y
 _atom_site_fract_z
 _atom_site_occupancy
  Al  Al0  1  0.12590233  0.07987695  0.41871641  1
  Al  Al1  1  0.77819948  0.09872337  0.82484886  1
  Al  Al2  1  0.89232022  0.19843143  0.58993310  1
  Al  Al3  1  0.44834538  0.09026986  0.42642290  1
  Al  Al4  1  0.11627573  0.08745727  0.89111803  1
  Al  Al5  1  0.21940195  0.20603202  0.65495786  1
  Al  Al6  1  0.78914284  0.08161346  0.35788365  1
  Al  Al7  1  0.88363823  0.19900979  0.06290581  1
  Al  Al8  1  0.44088881  0.09699872  0.89167173  1
  Al  Al9  1  0.54565286  0.20476142  0.65145650  1
  Al  Al10  1  0.12513959  0.42329923  0.41686941  1
  Al  Al11  1  0.21584451  0.55099526  0.14380606  1
  Al  Al12  1  0.79469862  0.42091534  0.82767486  1
  Al  Al13  1  0.89438577  0.53577227  0.59167178  1
  Al  Al14  1  0.43443118  0.42381202  0.41522498  1
  Al  Al15  1  0.55698681  0.54101075  0.05386686  1
  Al  Al16  1  0.11720227  0.43059298  0.88951060  1
  Al  Al17  1  0.21231011  0.54119767  0.65366125  1
  Al  Al18  1  0.88795569  0.54327396  0.05811699  1
  Al  Al19  1  0.43280401  0.43073051  0.88995326  1
  Al  Al20  1  0.11716231  0.75494217  0.39847533  1
  Al  Al21  1  0.21589509  0.86880670  0.14454279  1
  Al  Al22  1  0.77835691  0.77169919  0.89051392  1
  Al  Al23  1  0.89551419  0.86506506  0.65181527  1
  Al  Al24  1  0.43417682  0.77238158  0.41526616  1
  Al  Al25  1  0.10866592  0.76391665  0.90272753  1
  Al  Al26  1  0.21392978  0.87881078  0.65389010  1
  Al  Al27  1  0.78010431  0.76687500  0.41763843  1
  Al  Al28  1  0.90052425  0.86402356  0.15331834  1
  Al  Al29  1  0.43489869  0.77364019  0.89017119  1
  Al  Al30  1  0.55256840  0.87995460  0.65468061  1
  Gd  Gd31  1  0.20078690  0.21544598  0.15602642  1
  Gd  Gd32  1  0.54603888  0.22195377  0.15398750  1
  Gd  Gd33  1  0.77630140  0.42412136  0.32852855  1
  Gd  Gd34  1  0.54737780  0.54272057  0.63037642  1
  Gd  Gd35  1  0.55924490  0.86143993  0.15594006  1
  N  N36  1  0.22860140  0.19985042  0.37352925  1
  N  N37  1  0.10581104  0.07412310  0.07105121  1
  N  N38  1  0.88441241  0.20542988  0.88117894  1
  N  N39  1  0.77692283  0.09539085  0.64005190  1
  N  N40  1  0.56066244  0.19836054  0.37232408  1
  N  N41  1  0.43730781  0.09480063  0.06784773  1
  N  N42  1  0.21835747  0.20770778  0.83890937  1
  N  N43  1  0.11639608  0.09039320  0.60222096  1
  N  N44  1  0.90191542  0.17815952  0.40991779  1
  N  N45  1  0.80425893  0.08639333  0.14771131  1
  N  N46  1  0.54801587  0.21126696  0.83884904  1
  N  N47  1  0.44214909  0.09422222  0.60606519  1
  N  N48  1  0.22684534  0.53027031  0.33466284  1
  N  N49  1  0.10774460  0.45249670  0.07207096  1
  N  N50  1  0.88908117  0.54146192  0.87518118  1
  N  N51  1  0.81225061  0.40873436  0.64800058  1
  N  N52  1  0.52922456  0.55077710  0.40003283  1
  N  N53  1  0.42230655  0.45812495  0.06760845  1
  N  N54  1  0.21777358  0.54754954  0.83369327  1
  N  N55  1  0.11693499  0.42441947  0.60098903  1
  N  N56  1  0.90183713  0.54409643  0.40501109  1
  N  N57  1  0.77638551  0.43126032  0.10704347  1
  N  N58  1  0.56121417  0.53802461  0.86376106  1
  N  N59  1  0.41968459  0.41114388  0.59314775  1
  N  N60  1  0.22494632  0.87228107  0.33588435  1
  N  N61  1  0.10948371  0.76279105  0.08856067  1
  N  N62  1  0.89572417  0.87026860  0.83555513  1
  N  N63  1  0.77547350  0.76725934  0.60212033  1
  N  N64  1  0.56007238  0.87040216  0.37208374  1
  N  N65  1  0.42408743  0.75946881  0.06894898  1
  N  N66  1  0.21893399  0.86993402  0.83419941  1
  N  N67  1  0.11374764  0.75893267  0.58569379  1
  N  N68  1  0.89719007  0.85713076  0.34314780  1
  N  N69  1  0.79899401  0.76342393  0.07329823  1
  N  N70  1  0.55603857  0.87385806  0.83846904  1
  N  N71  1  0.42236997  0.80109032  0.59465622  1
