# generated using pymatgen
data_Gd5Al31N36
_symmetry_space_group_name_H-M   'P 1'
_cell_length_a   9.68456665
_cell_length_b   9.70649778
_cell_length_c   10.55875017
_cell_angle_alpha   90.00000415
_cell_angle_beta   89.20110929
_cell_angle_gamma   59.92505637
_symmetry_Int_Tables_number   1
_chemical_formula_structural   Gd5Al31N36
_chemical_formula_sum   'Gd5 Al31 N36'
_cell_volume   858.81783145
_cell_formula_units_Z   1
loop_
 _symmetry_equiv_pos_site_id
 _symmetry_equiv_pos_as_xyz
  1  'x, y, z'
loop_
 _atom_site_type_symbol
 _atom_site_label
 _atom_site_symmetry_multiplicity
 _atom_site_fract_x
 _atom_site_fract_y
 _atom_site_fract_z
 _atom_site_occupancy
  Al  Al0  1  0.12372439  0.08027585  0.40890869  1
  Al  Al1  1  0.77404702  0.09254076  0.81018059  1
  Al  Al2  1  0.88790121  0.20103620  0.57505952  1
  Al  Al3  1  0.44894926  0.09219165  0.33795016  1
  Al  Al4  1  0.11697970  0.08846202  0.87273071  1
  Al  Al5  1  0.21540993  0.20896132  0.62665520  1
  Al  Al6  1  0.79764826  0.07999545  0.32276245  1
  Al  Al7  1  0.88977477  0.19439397  0.04959999  1
  Al  Al8  1  0.44642512  0.09345373  0.80182640  1
  Al  Al9  1  0.55909636  0.19383220  0.56360384  1
  Al  Al10  1  0.12372439  0.42933231  0.40890871  1
  Al  Al11  1  0.21629681  0.54844292  0.13028530  1
  Al  Al12  1  0.79246972  0.42043145  0.81527074  1
  Al  Al13  1  0.88790120  0.54439520  0.57505953  1
  Al  Al14  1  0.43251724  0.42814850  0.38933219  1
  Al  Al15  1  0.56006812  0.53663223  0.04531598  1
  Al  Al16  1  0.11697973  0.42789085  0.87273069  1
  Al  Al17  1  0.21402416  0.54084633  0.63785848  1
  Al  Al18  1  0.88977485  0.54916386  0.04959998  1
  Al  Al19  1  0.43183857  0.43150384  0.87582645  1
  Al  Al20  1  0.12383678  0.75474787  0.38506221  1
  Al  Al21  1  0.21629678  0.86859289  0.13028531  1
  Al  Al22  1  0.77404703  0.76674485  0.81018060  1
  Al  Al23  1  0.88844922  0.87244171  0.56509161  1
  Al  Al24  1  0.43251724  0.77266678  0.38933218  1
  Al  Al25  1  0.11419003  0.75957130  0.88587548  1
  Al  Al26  1  0.21402418  0.87846208  0.63785847  1
  Al  Al27  1  0.79764829  0.75568887  0.32276245  1
  Al  Al28  1  0.89904593  0.86714335  0.07224433  1
  Al  Al29  1  0.43183858  0.76999020  0.87582647  1
  Al  Al30  1  0.55909635  0.88040400  0.56360382  1
  Gd  Gd31  1  0.16839707  0.23246777  0.16102115  1
  Gd  Gd32  1  0.55997412  0.20169147  0.08139423  1
  Gd  Gd33  1  0.77396245  0.42968507  0.31559352  1
  Gd  Gd34  1  0.54119838  0.54606710  0.61445189  1
  Gd  Gd35  1  0.55997414  0.87166692  0.08139433  1
  N  N36  1  0.22274374  0.20529441  0.37889133  1
  N  N37  1  0.11306283  0.07154197  0.05301342  1
  N  N38  1  0.88136733  0.20290124  0.86708593  1
  N  N39  1  0.77718514  0.09081855  0.62735411  1
  N  N40  1  0.57007536  0.19596022  0.37317885  1
  N  N41  1  0.42248323  0.10542468  0.16239814  1
  N  N42  1  0.21453825  0.20939716  0.81635685  1
  N  N43  1  0.11078706  0.09048128  0.58993075  1
  N  N44  1  0.89990624  0.18255121  0.39227414  1
  N  N45  1  0.81682420  0.07538120  0.14162944  1
  N  N46  1  0.55071547  0.20448006  0.85900790  1
  N  N47  1  0.44937804  0.09197726  0.61952426  1
  N  N48  1  0.22144211  0.53468103  0.31898300  1
  N  N49  1  0.11306290  0.44872776  0.05301340  1
  N  N50  1  0.88136735  0.54906404  0.86708593  1
  N  N51  1  0.80799740  0.41266760  0.63288660  1
  N  N52  1  0.52566392  0.55383429  0.37813113  1
  N  N53  1  0.42433636  0.45633120  0.05977562  1
  N  N54  1  0.21882498  0.54598228  0.81748408  1
  N  N55  1  0.11078705  0.43206424  0.58993076  1
  N  N56  1  0.89990625  0.55087513  0.39227414  1
  N  N57  1  0.78360473  0.42486396  0.09383157  1
  N  N58  1  0.55910950  0.53711156  0.85044488  1
  N  N59  1  0.41897371  0.41172097  0.57023100  1
  N  N60  1  0.22144210  0.87720942  0.31898300  1
  N  N61  1  0.11905843  0.75713708  0.07006118  1
  N  N62  1  0.87858078  0.87737594  0.88074220  1
  N  N63  1  0.77718513  0.76532893  0.62735411  1
  N  N64  1  0.57007537  0.86729696  0.37317882  1
  N  N65  1  0.42433631  0.75266505  0.05977562  1
  N  N66  1  0.21882500  0.86852534  0.81748408  1
  N  N67  1  0.12161553  0.75585852  0.57266584  1
  N  N68  1  0.89430132  0.86951564  0.38254415  1
  N  N69  1  0.81682426  0.74112720  0.14162945  1
  N  N70  1  0.55071549  0.87813707  0.85900798  1
  N  N71  1  0.41897371  0.80263791  0.57023099  1
