# generated using pymatgen
data_Gd5Al31N36
_symmetry_space_group_name_H-M   'P 1'
_cell_length_a   9.69950435
_cell_length_b   9.68005820
_cell_length_c   10.57493804
_cell_angle_alpha   89.24949096
_cell_angle_beta   89.13993945
_cell_angle_gamma   60.11737276
_symmetry_Int_Tables_number   1
_chemical_formula_structural   Gd5Al31N36
_chemical_formula_sum   'Gd5 Al31 N36'
_cell_volume   860.77640662
_cell_formula_units_Z   1
loop_
 _symmetry_equiv_pos_site_id
 _symmetry_equiv_pos_as_xyz
  1  'x, y, z'
loop_
 _atom_site_type_symbol
 _atom_site_label
 _atom_site_symmetry_multiplicity
 _atom_site_fract_x
 _atom_site_fract_y
 _atom_site_fract_z
 _atom_site_occupancy
  Al  Al0  1  0.11905844  0.08482335  0.39016768  1
  Al  Al1  1  0.77423980  0.08942505  0.79896706  1
  Al  Al2  1  0.89279608  0.20043984  0.56833058  1
  Al  Al3  1  0.44613548  0.09687855  0.32509332  1
  Al  Al4  1  0.11105541  0.08048022  0.86515086  1
  Al  Al5  1  0.22529331  0.20883144  0.56230396  1
  Al  Al6  1  0.78827675  0.08841776  0.31646093  1
  Al  Al7  1  0.88755439  0.19884357  0.04406973  1
  Al  Al8  1  0.44176145  0.09181202  0.78432228  1
  Al  Al9  1  0.55830131  0.20146662  0.55512763  1
  Al  Al10  1  0.10833745  0.43473637  0.32736513  1
  Al  Al11  1  0.21132639  0.55071839  0.13909652  1
  Al  Al12  1  0.78313404  0.42210125  0.81594459  1
  Al  Al13  1  0.89567827  0.53930486  0.56503680  1
  Al  Al14  1  0.44436886  0.43201505  0.31153765  1
  Al  Al15  1  0.54130812  0.54620410  0.04541924  1
  Al  Al16  1  0.10630528  0.42301178  0.79570512  1
  Al  Al17  1  0.21650598  0.54025101  0.60693960  1
  Al  Al18  1  0.89149562  0.54702539  0.05000902  1
  Al  Al19  1  0.43786848  0.42104916  0.80018756  1
  Al  Al20  1  0.10312004  0.76995089  0.31923001  1
  Al  Al21  1  0.21173207  0.87860630  0.13095561  1
  Al  Al22  1  0.77802263  0.76149441  0.79982482  1
  Al  Al23  1  0.88851743  0.87212799  0.55757587  1
  Al  Al24  1  0.44324356  0.76332787  0.30557895  1
  Al  Al25  1  0.10197597  0.75715029  0.81001390  1
  Al  Al26  1  0.21380185  0.88238821  0.63124632  1
  Al  Al27  1  0.78633671  0.76269674  0.31598083  1
  Al  Al28  1  0.90135066  0.86725835  0.06457385  1
  Al  Al29  1  0.44402369  0.76333724  0.80031006  1
  Al  Al30  1  0.55702307  0.87449881  0.55601987  1
  Gd  Gd31  1  0.21953267  0.22066631  0.05720842  1
  Gd  Gd32  1  0.56851124  0.20792267  0.05855461  1
  Gd  Gd33  1  0.79155841  0.42414523  0.29269497  1
  Gd  Gd34  1  0.56115272  0.53763049  0.56451561  1
  Gd  Gd35  1  0.56190998  0.86783435  0.05512805  1
  N  N36  1  0.22233614  0.21251127  0.37489992  1
  N  N37  1  0.10752117  0.07358124  0.04996918  1
  N  N38  1  0.87818511  0.19936884  0.86135436  1
  N  N39  1  0.77829721  0.09093889  0.61750137  1
  N  N40  1  0.56184932  0.20850935  0.36917887  1
  N  N41  1  0.44744690  0.09648659  0.14978445  1
  N  N42  1  0.22052623  0.20025688  0.83671667  1
  N  N43  1  0.11745495  0.08928382  0.57360425  1
  N  N44  1  0.89459167  0.18752243  0.38530842  1
  N  N45  1  0.81285697  0.07935117  0.13496439  1
  N  N46  1  0.55074591  0.19853286  0.84356722  1
  N  N47  1  0.44748687  0.09320416  0.60253414  1
  N  N48  1  0.22216449  0.54422248  0.34056620  1
  N  N49  1  0.08332488  0.45548858  0.14251063  1
  N  N50  1  0.89069651  0.54152111  0.86579455  1
  N  N51  1  0.81344061  0.40969567  0.63349560  1
  N  N52  1  0.53971964  0.55034676  0.35586544  1
  N  N53  1  0.43150540  0.45181332  0.12608342  1
  N  N54  1  0.21577758  0.53502159  0.82630733  1
  N  N55  1  0.10975949  0.42584227  0.61383809  1
  N  N56  1  0.89750688  0.55479874  0.38771555  1
  N  N57  1  0.77427162  0.42823030  0.07642204  1
  N  N58  1  0.54808761  0.53863180  0.85540670  1
  N  N59  1  0.43484509  0.40997167  0.61869455  1
  N  N60  1  0.21738407  0.88422662  0.31842334  1
  N  N61  1  0.10393215  0.76633778  0.12846600  1
  N  N62  1  0.88311644  0.87238777  0.87308150  1
  N  N63  1  0.77893226  0.76167230  0.61788937  1
  N  N64  1  0.55968547  0.86810266  0.36915780  1
  N  N65  1  0.43488815  0.74861946  0.12099464  1
  N  N66  1  0.21659311  0.86869632  0.81556081  1
  N  N67  1  0.10260871  0.76502340  0.61616553  1
  N  N68  1  0.88792385  0.87453264  0.37654671  1
  N  N69  1  0.80458273  0.74973362  0.13198587  1
  N  N70  1  0.55443648  0.87312975  0.84077408  1
  N  N71  1  0.43474153  0.78765380  0.62026390  1
