# generated using pymatgen
data_Gd5Al31N36
_symmetry_space_group_name_H-M   'P 1'
_cell_length_a   9.70038789
_cell_length_b   9.68112066
_cell_length_c   10.29605238
_cell_angle_alpha   90.00837731
_cell_angle_beta   89.67068160
_cell_angle_gamma   60.05985029
_symmetry_Int_Tables_number   1
_chemical_formula_structural   Gd5Al31N36
_chemical_formula_sum   'Gd5 Al31 N36'
_cell_volume   837.85315627
_cell_formula_units_Z   1
loop_
 _symmetry_equiv_pos_site_id
 _symmetry_equiv_pos_as_xyz
  1  'x, y, z'
loop_
 _atom_site_type_symbol
 _atom_site_label
 _atom_site_symmetry_multiplicity
 _atom_site_fract_x
 _atom_site_fract_y
 _atom_site_fract_z
 _atom_site_occupancy
  Al  Al0  1  0.11187344  0.08509172  0.31752891  1
  Al  Al1  1  0.77874504  0.09066730  0.80183738  1
  Al  Al2  1  0.89795635  0.19668602  0.56575659  1
  Al  Al3  1  0.44274272  0.09525746  0.32895328  1
  Al  Al4  1  0.11169852  0.09072391  0.79970154  1
  Al  Al5  1  0.21689354  0.20822889  0.56123627  1
  Al  Al6  1  0.78791306  0.08474993  0.31821346  1
  Al  Al7  1  0.89497399  0.19268502  0.05252139  1
  Al  Al8  1  0.44407380  0.09464753  0.78495374  1
  Al  Al9  1  0.55505364  0.20421315  0.55767699  1
  Al  Al10  1  0.11191538  0.43633829  0.31743764  1
  Al  Al11  1  0.21360690  0.55073273  0.06302503  1
  Al  Al12  1  0.78739242  0.42300630  0.82048889  1
  Al  Al13  1  0.89796282  0.53869760  0.56570565  1
  Al  Al14  1  0.43477573  0.43651384  0.30943918  1
  Al  Al15  1  0.54275244  0.54527933  0.04838711  1
  Al  Al16  1  0.11167798  0.43096782  0.79971343  1
  Al  Al17  1  0.21688574  0.54027966  0.55866597  1
  Al  Al18  1  0.89502229  0.54568024  0.05252165  1
  Al  Al19  1  0.43425419  0.42531384  0.80522516  1
  Al  Al20  1  0.11098049  0.76115793  0.31109818  1
  Al  Al21  1  0.21358869  0.86901273  0.06314698  1
  Al  Al22  1  0.77876097  0.76396620  0.80181433  1
  Al  Al23  1  0.89129277  0.87103238  0.56035602  1
  Al  Al24  1  0.43479693  0.76200835  0.30950015  1
  Al  Al25  1  0.10962246  0.76189894  0.81132412  1
  Al  Al26  1  0.21690639  0.87612623  0.55866149  1
  Al  Al27  1  0.78792901  0.76066961  0.31819542  1
  Al  Al28  1  0.90046250  0.86645256  0.06480014  1
  Al  Al29  1  0.43425917  0.77377649  0.80518464  1
  Al  Al30  1  0.55509051  0.87400529  0.55768705  1
  Gd  Gd31  1  0.21273820  0.21023026  0.05782325  1
  Gd  Gd32  1  0.56280881  0.20729053  0.06267612  1
  Gd  Gd33  1  0.78636948  0.42347047  0.30038927  1
  Gd  Gd34  1  0.55767894  0.53775581  0.57577448  1
  Gd  Gd35  1  0.56285524  0.86305849  0.06263193  1
  N  N36  1  0.21399235  0.20966685  0.37055781  1
  N  N37  1  0.09735601  0.08047159  0.13135901  1
  N  N38  1  0.89296161  0.19608997  0.86576094  1
  N  N39  1  0.77819022  0.09266050  0.61663452  1
  N  N40  1  0.55914104  0.20971035  0.36705833  1
  N  N41  1  0.44126850  0.09594425  0.14929303  1
  N  N42  1  0.22315096  0.20511800  0.83596670  1
  N  N43  1  0.11261453  0.09000534  0.61608695  1
  N  N44  1  0.90194379  0.17964221  0.38347693  1
  N  N45  1  0.80847435  0.07695724  0.13231103  1
  N  N46  1  0.55460631  0.20153594  0.84321693  1
  N  N47  1  0.44405931  0.09462497  0.59856892  1
  N  N48  1  0.22142700  0.54275978  0.37231871  1
  N  N49  1  0.09746542  0.45545496  0.13125182  1
  N  N50  1  0.89294266  0.54435190  0.86576971  1
  N  N51  1  0.81506724  0.40916267  0.63103730  1
  N  N52  1  0.53532489  0.54897183  0.36055767  1
  N  N53  1  0.42509322  0.45659157  0.12297427  1
  N  N54  1  0.21807840  0.54009108  0.87211984  1
  N  N55  1  0.11258682  0.43074180  0.61609621  1
  N  N56  1  0.90199246  0.55171714  0.38340710  1
  N  N57  1  0.77582632  0.42879291  0.07839800  1
  N  N58  1  0.54872057  0.54232182  0.85400554  1
  N  N59  1  0.42446206  0.41443163  0.62316645  1
  N  N60  1  0.22141817  0.86911934  0.37232954  1
  N  N61  1  0.11037126  0.76147610  0.12211321  1
  N  N62  1  0.88704516  0.87317425  0.87108926  1
  N  N63  1  0.77822628  0.76250072  0.61661254  1
  N  N64  1  0.55917948  0.86441712  0.36708379  1
  N  N65  1  0.42507986  0.75162310  0.12305436  1
  N  N66  1  0.21810527  0.87522684  0.87216387  1
  N  N67  1  0.11100925  0.76117438  0.62210731  1
  N  N68  1  0.89327150  0.87003354  0.37517503  1
  N  N69  1  0.80850485  0.74794736  0.13230311  1
  N  N70  1  0.55460582  0.87721609  0.84316828  1
  N  N71  1  0.42451739  0.79434567  0.62311693  1
