# generated using pymatgen
data_Gd5Al31N36
_symmetry_space_group_name_H-M   'P 1'
_cell_length_a   9.74325141
_cell_length_b   9.76279430
_cell_length_c   10.42645894
_cell_angle_alpha   89.99974546
_cell_angle_beta   89.03624032
_cell_angle_gamma   59.93506730
_symmetry_Int_Tables_number   1
_chemical_formula_structural   Gd5Al31N36
_chemical_formula_sum   'Gd5 Al31 N36'
_cell_volume   858.18115097
_cell_formula_units_Z   1
loop_
 _symmetry_equiv_pos_site_id
 _symmetry_equiv_pos_as_xyz
  1  'x, y, z'
loop_
 _atom_site_type_symbol
 _atom_site_label
 _atom_site_symmetry_multiplicity
 _atom_site_fract_x
 _atom_site_fract_y
 _atom_site_fract_z
 _atom_site_occupancy
  Al  Al0  1  0.12265675  0.08159103  0.42307299  1
  Al  Al1  1  0.77208373  0.09274272  0.83000656  1
  Al  Al2  1  0.89080640  0.19995717  0.59466915  1
  Al  Al3  1  0.44304467  0.09514405  0.39289559  1
  Al  Al4  1  0.11588747  0.08649222  0.88747103  1
  Al  Al5  1  0.22464849  0.20434270  0.64638516  1
  Al  Al6  1  0.80326486  0.07701694  0.33902531  1
  Al  Al7  1  0.88779676  0.19476496  0.06507002  1
  Al  Al8  1  0.44197622  0.09567819  0.87428954  1
  Al  Al9  1  0.56262823  0.19582595  0.58152629  1
  Al  Al10  1  0.12265595  0.42908417  0.42307291  1
  Al  Al11  1  0.21099165  0.55232689  0.14504129  1
  Al  Al12  1  0.79116497  0.42108325  0.83310687  1
  Al  Al13  1  0.89080593  0.54257004  0.59466932  1
  Al  Al14  1  0.43102702  0.43193212  0.40463947  1
  Al  Al15  1  0.55505681  0.53913890  0.06351721  1
  Al  Al16  1  0.11588700  0.43095237  0.88747129  1
  Al  Al17  1  0.21619353  0.53924514  0.65359746  1
  Al  Al18  1  0.88779624  0.55077080  0.06507041  1
  Al  Al19  1  0.43272716  0.42900463  0.89648462  1
  Al  Al20  1  0.12280874  0.75526144  0.40188054  1
  Al  Al21  1  0.21099210  0.87001514  0.14504115  1
  Al  Al22  1  0.77208370  0.76850565  0.83000648  1
  Al  Al23  1  0.88886376  0.87223482  0.58513771  1
  Al  Al24  1  0.43102735  0.77037368  0.40463951  1
  Al  Al25  1  0.11600668  0.75866241  0.90054778  1
  Al  Al26  1  0.21619357  0.87789454  0.65359772  1
  Al  Al27  1  0.80326425  0.75305000  0.33902556  1
  Al  Al28  1  0.89642048  0.86845630  0.08459322  1
  Al  Al29  1  0.43272711  0.77160054  0.89648441  1
  Al  Al30  1  0.56262784  0.87488092  0.58152642  1
  Gd  Gd31  1  0.17130635  0.23101344  0.16808019  1
  Gd  Gd32  1  0.55660932  0.21543860  0.12983646  1
  Gd  Gd33  1  0.77691660  0.42820670  0.33471376  1
  Gd  Gd34  1  0.54221537  0.54556006  0.63368168  1
  Gd  Gd35  1  0.55660935  0.86128869  0.12983591  1
  N  N36  1  0.21762681  0.20785412  0.38491583  1
  N  N37  1  0.10785838  0.07152698  0.06849589  1
  N  N38  1  0.88209783  0.20305859  0.88025152  1
  N  N39  1  0.77696476  0.09151915  0.64413261  1
  N  N40  1  0.56902747  0.20024339  0.37834987  1
  N  N41  1  0.41594899  0.10869156  0.13532004  1
  N  N42  1  0.22101937  0.20615756  0.83622319  1
  N  N43  1  0.11433020  0.09080777  0.60745104  1
  N  N44  1  0.90098365  0.18098725  0.40982310  1
  N  N45  1  0.82051189  0.07202162  0.15653478  1
  N  N46  1  0.55357345  0.20453568  0.88274955  1
  N  N47  1  0.44683039  0.09325042  0.59339382  1
  N  N48  1  0.22015542  0.53603058  0.33642270  1
  N  N49  1  0.10785760  0.45394641  0.06849612  1
  N  N50  1  0.88209728  0.54817807  0.88025116  1
  N  N51  1  0.80768513  0.41282225  0.64753932  1
  N  N52  1  0.52651285  0.55341179  0.39138437  1
  N  N53  1  0.41815444  0.46220754  0.07711893  1
  N  N54  1  0.22142474  0.54443837  0.83402387  1
  N  N55  1  0.11432964  0.42819310  0.60745065  1
  N  N56  1  0.90098244  0.55136341  0.40982368  1
  N  N57  1  0.77957979  0.42687479  0.11004334  1
  N  N58  1  0.55936746  0.53698379  0.86769391  1
  N  N59  1  0.42161255  0.41128125  0.58657723  1
  N  N60  1  0.22015589  0.87714793  0.33642251  1
  N  N61  1  0.11515661  0.75908736  0.08608190  1
  N  N62  1  0.88161326  0.87586039  0.89303462  1
  N  N63  1  0.77696424  0.76484670  0.64413259  1
  N  N64  1  0.56902713  0.86406555  0.37834977  1
  N  N65  1  0.41815588  0.75296868  0.07711906  1
  N  N66  1  0.22142436  0.86747155  0.83402428  1
  N  N67  1  0.12207428  0.75562831  0.59064455  1
  N  N68  1  0.89404556  0.86964414  0.40063355  1
  N  N69  1  0.82051226  0.74079537  0.15653502  1
  N  N70  1  0.55357315  0.87522669  0.88274923  1
  N  N71  1  0.42161179  0.80043791  0.58657704  1
