# generated using pymatgen
data_Gd5Al31N36
_symmetry_space_group_name_H-M   'P 1'
_cell_length_a   9.70026803
_cell_length_b   9.68129200
_cell_length_c   10.29548436
_cell_angle_alpha   89.99998443
_cell_angle_beta   89.66806480
_cell_angle_gamma   60.06471731
_symmetry_Int_Tables_number   1
_chemical_formula_structural   Gd5Al31N36
_chemical_formula_sum   'Gd5 Al31 N36'
_cell_volume   837.85258364
_cell_formula_units_Z   1
loop_
 _symmetry_equiv_pos_site_id
 _symmetry_equiv_pos_as_xyz
  1  'x, y, z'
loop_
 _atom_site_type_symbol
 _atom_site_label
 _atom_site_symmetry_multiplicity
 _atom_site_fract_x
 _atom_site_fract_y
 _atom_site_fract_z
 _atom_site_occupancy
  Al  Al0  1  0.11194394  0.08504836  0.31036734  1
  Al  Al1  1  0.77880585  0.09061287  0.79475455  1
  Al  Al2  1  0.89800502  0.19664945  0.55864364  1
  Al  Al3  1  0.44279918  0.09526703  0.32190338  1
  Al  Al4  1  0.11173842  0.09068947  0.79264171  1
  Al  Al5  1  0.21692140  0.20820591  0.55414209  1
  Al  Al6  1  0.78798434  0.08470449  0.31113187  1
  Al  Al7  1  0.89506528  0.19263744  0.04546506  1
  Al  Al8  1  0.44412366  0.09460477  0.77788501  1
  Al  Al9  1  0.55511165  0.20421069  0.55060943  1
  Al  Al10  1  0.11194393  0.43634089  0.31036736  1
  Al  Al11  1  0.21367168  0.55070111  0.05594690  1
  Al  Al12  1  0.78744665  0.42294327  0.81337351  1
  Al  Al13  1  0.89800502  0.53867878  0.55864365  1
  Al  Al14  1  0.43480987  0.43651012  0.30237386  1
  Al  Al15  1  0.54283874  0.54524728  0.04132009  1
  Al  Al16  1  0.11173843  0.43090529  0.79264170  1
  Al  Al17  1  0.21692971  0.54026511  0.55158013  1
  Al  Al18  1  0.89506522  0.54563048  0.04546505  1
  Al  Al19  1  0.43431531  0.42526616  0.79814359  1
  Al  Al20  1  0.11104061  0.76114628  0.30397503  1
  Al  Al21  1  0.21367168  0.86896048  0.05594687  1
  Al  Al22  1  0.77880584  0.76391446  0.79475453  1
  Al  Al23  1  0.89134861  0.87099231  0.55327653  1
  Al  Al24  1  0.43480987  0.76201324  0.30237384  1
  Al  Al25  1  0.10967193  0.76183061  0.80423012  1
  Al  Al26  1  0.21692967  0.87613843  0.55158014  1
  Al  Al27  1  0.78798431  0.76064435  0.31113189  1
  Al  Al28  1  0.90053609  0.86639853  0.05771081  1
  Al  Al29  1  0.43431527  0.77375176  0.79814359  1
  Al  Al30  1  0.55511160  0.87401099  0.55060943  1
  Gd  Gd31  1  0.21283719  0.21024808  0.05077821  1
  Gd  Gd32  1  0.56291803  0.20730944  0.05560526  1
  Gd  Gd33  1  0.78637114  0.42348102  0.29339104  1
  Gd  Gd34  1  0.55766504  0.53783418  0.56871878  1
  Gd  Gd35  1  0.56291799  0.86310599  0.05560523  1
  N  N36  1  0.21403203  0.20965061  0.36344870  1
  N  N37  1  0.09750049  0.08037696  0.12418498  1
  N  N38  1  0.89299666  0.19605707  0.85868929  1
  N  N39  1  0.77825280  0.09260998  0.60954129  1
  N  N40  1  0.55921480  0.20971009  0.35999141  1
  N  N41  1  0.44136839  0.09598247  0.14223843  1
  N  N42  1  0.22321164  0.20506079  0.82891408  1
  N  N43  1  0.11263621  0.08999481  0.60901685  1
  N  N44  1  0.90204083  0.17958546  0.37634690  1
  N  N45  1  0.80857951  0.07686878  0.12523156  1
  N  N46  1  0.55466595  0.20148702  0.83613084  1
  N  N47  1  0.44409331  0.09461996  0.59148032  1
  N  N48  1  0.22146186  0.54275904  0.36522878  1
  N  N49  1  0.09750041  0.45545578  0.12418501  1
  N  N50  1  0.89299666  0.54427950  0.85868927  1
  N  N51  1  0.81508138  0.40912587  0.62390530  1
  N  N52  1  0.53530802  0.54901263  0.35349159  1
  N  N53  1  0.42514533  0.45658154  0.11590438  1
  N  N54  1  0.21814594  0.54002293  0.86503414  1
  N  N55  1  0.11263624  0.43070213  0.60901684  1
  N  N56  1  0.90204080  0.55170693  0.37634693  1
  N  N57  1  0.77589857  0.42871723  0.07139676  1
  N  N58  1  0.54879478  0.54226925  0.84692631  1
  N  N59  1  0.42451561  0.41442136  0.61607531  1
  N  N60  1  0.22146187  0.86911234  0.36522877  1
  N  N61  1  0.11045362  0.76143978  0.11497935  1
  N  N62  1  0.88710475  0.87311422  0.86399806  1
  N  N63  1  0.77825278  0.76247037  0.60954129  1
  N  N64  1  0.55921477  0.86440843  0.35999142  1
  N  N65  1  0.42514538  0.75160637  0.11590433  1
  N  N66  1  0.21814591  0.87516436  0.86503413  1
  N  N67  1  0.11105888  0.76113713  0.61501872  1
  N  N68  1  0.89334363  0.86999478  0.36808788  1
  N  N69  1  0.80857948  0.74788479  0.12523157  1
  N  N70  1  0.55466595  0.87718027  0.83613080  1
  N  N71  1  0.42451552  0.79439631  0.61607532  1
