# generated using pymatgen
data_Gd5Al31N36
_symmetry_space_group_name_H-M   'P 1'
_cell_length_a   9.71372166
_cell_length_b   9.68712134
_cell_length_c   10.38125445
_cell_angle_alpha   90.03261545
_cell_angle_beta   89.46508755
_cell_angle_gamma   60.01932414
_symmetry_Int_Tables_number   1
_chemical_formula_structural   Gd5Al31N36
_chemical_formula_sum   'Gd5 Al31 N36'
_cell_volume   846.09385105
_cell_formula_units_Z   1
loop_
 _symmetry_equiv_pos_site_id
 _symmetry_equiv_pos_as_xyz
  1  'x, y, z'
loop_
 _atom_site_type_symbol
 _atom_site_label
 _atom_site_symmetry_multiplicity
 _atom_site_fract_x
 _atom_site_fract_y
 _atom_site_fract_z
 _atom_site_occupancy
  Al  Al0  1  0.11120438  0.09134902  0.32974167  1
  Al  Al1  1  0.77686221  0.09096218  0.80204532  1
  Al  Al2  1  0.89591341  0.19809248  0.56696642  1
  Al  Al3  1  0.44439843  0.09518051  0.32798552  1
  Al  Al4  1  0.10646380  0.09867179  0.79677158  1
  Al  Al5  1  0.21898933  0.20946496  0.56233202  1
  Al  Al6  1  0.78868279  0.08475386  0.31826858  1
  Al  Al7  1  0.89544066  0.19351854  0.04997211  1
  Al  Al8  1  0.44326796  0.09487029  0.78464192  1
  Al  Al9  1  0.55468793  0.20371761  0.55775975  1
  Al  Al10  1  0.11301637  0.43471968  0.31731453  1
  Al  Al11  1  0.21301071  0.55169653  0.06326776  1
  Al  Al12  1  0.78473191  0.42506327  0.82149302  1
  Al  Al13  1  0.89750950  0.53817077  0.56550073  1
  Al  Al14  1  0.43617866  0.43597612  0.30810600  1
  Al  Al15  1  0.54181995  0.54644136  0.04687930  1
  Al  Al16  1  0.10968292  0.43255855  0.79926551  1
  Al  Al17  1  0.21682814  0.53807627  0.55856804  1
  Al  Al18  1  0.89486837  0.54614888  0.05145898  1
  Al  Al19  1  0.43278610  0.42622323  0.80528562  1
  Al  Al20  1  0.10746366  0.75617158  0.31742929  1
  Al  Al21  1  0.21302554  0.87254885  0.13771011  1
  Al  Al22  1  0.77748223  0.76446102  0.80088626  1
  Al  Al23  1  0.88916063  0.87095804  0.55976239  1
  Al  Al24  1  0.44488895  0.75816983  0.31273092  1
  Al  Al25  1  0.10524288  0.76006907  0.81154141  1
  Al  Al26  1  0.21660611  0.87360263  0.61561962  1
  Al  Al27  1  0.78819597  0.75952805  0.31707927  1
  Al  Al28  1  0.90071101  0.86726808  0.06547291  1
  Al  Al29  1  0.43951569  0.76960832  0.80162143  1
  Al  Al30  1  0.55781611  0.87321970  0.55594952  1
  Gd  Gd31  1  0.21497816  0.21010030  0.05539458  1
  Gd  Gd32  1  0.56394436  0.20772541  0.06275608  1
  Gd  Gd33  1  0.79172330  0.41928292  0.29465525  1
  Gd  Gd34  1  0.56125257  0.53164834  0.57105445  1
  Gd  Gd35  1  0.56395764  0.86402745  0.05997269  1
  N  N36  1  0.21718373  0.21065476  0.37416834  1
  N  N37  1  0.09091147  0.09473624  0.13612412  1
  N  N38  1  0.89065478  0.19712020  0.86472476  1
  N  N39  1  0.77737783  0.09250793  0.61801098  1
  N  N40  1  0.55982425  0.20948693  0.36779331  1
  N  N41  1  0.44206002  0.09622326  0.14965620  1
  N  N42  1  0.22112458  0.20700824  0.83425602  1
  N  N43  1  0.11097479  0.09562603  0.61138793  1
  N  N44  1  0.89930619  0.18112551  0.38706737  1
  N  N45  1  0.80959779  0.07818023  0.13302770  1
  N  N46  1  0.55250000  0.20220683  0.84473248  1
  N  N47  1  0.44526436  0.09349569  0.59996783  1
  N  N48  1  0.22344399  0.53930704  0.37367001  1
  N  N49  1  0.09708316  0.45460241  0.13174870  1
  N  N50  1  0.89144676  0.54601524  0.86587985  1
  N  N51  1  0.81466272  0.40981961  0.63384256  1
  N  N52  1  0.54147002  0.54435528  0.35765250  1
  N  N53  1  0.42435581  0.45753023  0.12293988  1
  N  N54  1  0.21631100  0.54021237  0.87345357  1
  N  N55  1  0.11146093  0.43109019  0.61687780  1
  N  N56  1  0.90209334  0.55031129  0.38347940  1
  N  N57  1  0.77452276  0.42984542  0.07437416  1
  N  N58  1  0.54733659  0.54227499  0.85439695  1
  N  N59  1  0.42344360  0.41414808  0.62434867  1
  N  N60  1  0.22237851  0.86816116  0.33700398  1
  N  N61  1  0.10737194  0.75978927  0.12617628  1
  N  N62  1  0.88405794  0.87413389  0.87270876  1
  N  N63  1  0.77818940  0.76218292  0.61688273  1
  N  N64  1  0.56158117  0.86523482  0.36765925  1
  N  N65  1  0.43286194  0.74948275  0.12396515  1
  N  N66  1  0.21560743  0.87470311  0.82142315  1
  N  N67  1  0.10548520  0.75637681  0.62000114  1
  N  N68  1  0.89076150  0.87040729  0.37626835  1
  N  N69  1  0.80821860  0.74808504  0.13248256  1
  N  N70  1  0.55320553  0.87746561  0.84194983  1
  N  N71  1  0.43555433  0.78603588  0.61724843  1
