# generated using pymatgen
data_Gd5Al31N36
_symmetry_space_group_name_H-M   'P 1'
_cell_length_a   9.74306992
_cell_length_b   9.76141430
_cell_length_c   10.42299391
_cell_angle_alpha   90.00095552
_cell_angle_beta   89.05593772
_cell_angle_gamma   59.93375443
_symmetry_Int_Tables_number   1
_chemical_formula_structural   Gd5Al31N36
_chemical_formula_sum   'Gd5 Al31 N36'
_cell_volume   857.75367969
_cell_formula_units_Z   1
loop_
 _symmetry_equiv_pos_site_id
 _symmetry_equiv_pos_as_xyz
  1  'x, y, z'
loop_
 _atom_site_type_symbol
 _atom_site_label
 _atom_site_symmetry_multiplicity
 _atom_site_fract_x
 _atom_site_fract_y
 _atom_site_fract_z
 _atom_site_occupancy
  Al  Al0  1  0.12251763  0.08145381  0.42354496  1
  Al  Al1  1  0.77241935  0.09261444  0.82972005  1
  Al  Al2  1  0.89050993  0.19994216  0.59463146  1
  Al  Al3  1  0.44312794  0.09510235  0.37979994  1
  Al  Al4  1  0.11601206  0.08658376  0.88725365  1
  Al  Al5  1  0.22362373  0.20485303  0.64463471  1
  Al  Al6  1  0.80274662  0.07735389  0.33921295  1
  Al  Al7  1  0.88816185  0.19469713  0.06519480  1
  Al  Al8  1  0.44396484  0.09468452  0.85859536  1
  Al  Al9  1  0.56205985  0.19541822  0.57961761  1
  Al  Al10  1  0.12251997  0.42936324  0.42354545  1
  Al  Al11  1  0.21129908  0.55209940  0.14539033  1
  Al  Al12  1  0.79117359  0.42108138  0.83303036  1
  Al  Al13  1  0.89051106  0.54287844  0.59463076  1
  Al  Al14  1  0.43114510  0.43171041  0.40446946  1
  Al  Al15  1  0.55523930  0.53904458  0.06387636  1
  Al  Al16  1  0.11601316  0.43073930  0.88725267  1
  Al  Al17  1  0.21621374  0.53936070  0.65354168  1
  Al  Al18  1  0.88816334  0.55047484  0.06519382  1
  Al  Al19  1  0.43245916  0.42941816  0.89636801  1
  Al  Al20  1  0.12271308  0.75531121  0.40197021  1
  Al  Al21  1  0.21129761  0.86993265  0.14539105  1
  Al  Al22  1  0.77241944  0.76830098  0.82972038  1
  Al  Al23  1  0.88868899  0.87232111  0.58509063  1
  Al  Al24  1  0.43114429  0.77047702  0.40446876  1
  Al  Al25  1  0.11599697  0.75866981  0.90059029  1
  Al  Al26  1  0.21621394  0.87775743  0.65354073  1
  Al  Al27  1  0.80274836  0.75323435  0.33921205  1
  Al  Al28  1  0.89679907  0.86826668  0.08493725  1
  Al  Al29  1  0.43245904  0.77145707  0.89636902  1
  Al  Al30  1  0.56206091  0.87584898  0.57961669  1
  Gd  Gd31  1  0.16993053  0.23170161  0.16958805  1
  Gd  Gd32  1  0.55728607  0.21367757  0.12614613  1
  Gd  Gd33  1  0.77668336  0.42832766  0.33492042  1
  Gd  Gd34  1  0.54216021  0.54558325  0.63328481  1
  Gd  Gd35  1  0.55728624  0.86236008  0.12614651  1
  N  N36  1  0.21626513  0.20853034  0.38736734  1
  N  N37  1  0.10867934  0.07142260  0.06847251  1
  N  N38  1  0.88198820  0.20303699  0.88045865  1
  N  N39  1  0.77662583  0.09167139  0.64415195  1
  N  N40  1  0.56963739  0.20022791  0.37957087  1
  N  N41  1  0.41800860  0.10766406  0.15855154  1
  N  N42  1  0.22030232  0.20651288  0.83598605  1
  N  N43  1  0.11377182  0.09061092  0.60785273  1
  N  N44  1  0.90093217  0.18100513  0.40973273  1
  N  N45  1  0.82042418  0.07230215  0.15664428  1
  N  N46  1  0.55308992  0.20399264  0.88345738  1
  N  N47  1  0.44717153  0.09308318  0.60042426  1
  N  N48  1  0.22004600  0.53611035  0.33648766  1
  N  N49  1  0.10868163  0.45323402  0.06847141  1
  N  N50  1  0.88198922  0.54830362  0.88045971  1
  N  N51  1  0.80770975  0.41281599  0.64761005  1
  N  N52  1  0.52639522  0.55346358  0.39130229  1
  N  N53  1  0.41845029  0.46191833  0.07747330  1
  N  N54  1  0.22140088  0.54449325  0.83414787  1
  N  N55  1  0.11377316  0.42895488  0.60785386  1
  N  N56  1  0.90093559  0.55139064  0.40973060  1
  N  N57  1  0.77994624  0.42669828  0.11007743  1
  N  N58  1  0.55932045  0.53700320  0.86784442  1
  N  N59  1  0.42144623  0.41141736  0.58661801  1
  N  N60  1  0.22004462  0.87717254  0.33648825  1
  N  N61  1  0.11536557  0.75898583  0.08615317  1
  N  N62  1  0.88146904  0.87593045  0.89323642  1
  N  N63  1  0.77662720  0.76504179  0.64415193  1
  N  N64  1  0.56963810  0.86345752  0.37957084  1
  N  N65  1  0.41844639  0.75297101  0.07747329  1
  N  N66  1  0.22140208  0.86743339  0.83414665  1
  N  N67  1  0.12189453  0.75572168  0.59076903  1
  N  N68  1  0.89400909  0.86966024  0.40052711  1
  N  N69  1  0.82042372  0.74061776  0.15664360  1
  N  N70  1  0.55309027  0.87624307  0.88345891  1
  N  N71  1  0.42144829  0.80047304  0.58661819  1
