# generated using pymatgen
data_Gd5Al31N36
_symmetry_space_group_name_H-M   'P 1'
_cell_length_a   9.71589867
_cell_length_b   9.68701942
_cell_length_c   10.38754835
_cell_angle_alpha   90.00516543
_cell_angle_beta   89.34488600
_cell_angle_gamma   60.02419701
_symmetry_Int_Tables_number   1
_chemical_formula_structural   Gd5Al31N36
_chemical_formula_sum   'Gd5 Al31 N36'
_cell_volume   846.80720036
_cell_formula_units_Z   1
loop_
 _symmetry_equiv_pos_site_id
 _symmetry_equiv_pos_as_xyz
  1  'x, y, z'
loop_
 _atom_site_type_symbol
 _atom_site_label
 _atom_site_symmetry_multiplicity
 _atom_site_fract_x
 _atom_site_fract_y
 _atom_site_fract_z
 _atom_site_occupancy
  Al  Al0  1  0.11547918  0.08803695  0.35312868  1
  Al  Al1  1  0.77522092  0.09104388  0.80169082  1
  Al  Al2  1  0.89306634  0.19931387  0.56938403  1
  Al  Al3  1  0.44519746  0.09481103  0.32830162  1
  Al  Al4  1  0.10541886  0.09870864  0.79681938  1
  Al  Al5  1  0.22091210  0.21130324  0.56630124  1
  Al  Al6  1  0.78939922  0.08437579  0.31795549  1
  Al  Al7  1  0.89596406  0.19325652  0.04607022  1
  Al  Al8  1  0.44375099  0.09442486  0.78466412  1
  Al  Al9  1  0.55476317  0.20388870  0.55739813  1
  Al  Al10  1  0.11311598  0.43452937  0.31764843  1
  Al  Al11  1  0.21245980  0.55202568  0.06410296  1
  Al  Al12  1  0.78319963  0.42623841  0.82145619  1
  Al  Al13  1  0.89705286  0.53858857  0.56521303  1
  Al  Al14  1  0.43660923  0.43584550  0.30780464  1
  Al  Al15  1  0.54130837  0.54658913  0.04722310  1
  Al  Al16  1  0.10859622  0.43380759  0.79908799  1
  Al  Al17  1  0.21677146  0.53868065  0.55833996  1
  Al  Al18  1  0.89449645  0.54637082  0.05146986  1
  Al  Al19  1  0.43228808  0.42648890  0.80549846  1
  Al  Al20  1  0.10743171  0.75593657  0.31670412  1
  Al  Al21  1  0.21171619  0.87585305  0.13825914  1
  Al  Al22  1  0.77714043  0.76461837  0.80105946  1
  Al  Al23  1  0.88894794  0.87073921  0.55945796  1
  Al  Al24  1  0.44588640  0.75731660  0.31168007  1
  Al  Al25  1  0.10415409  0.75985874  0.81151484  1
  Al  Al26  1  0.21730379  0.87186287  0.61881889  1
  Al  Al27  1  0.78823500  0.75914155  0.31680772  1
  Al  Al28  1  0.90110694  0.86776327  0.06616173  1
  Al  Al29  1  0.43984311  0.76915766  0.80151321  1
  Al  Al30  1  0.55816691  0.87292578  0.55584691  1
  Gd  Gd31  1  0.21708324  0.21109050  0.05317385  1
  Gd  Gd32  1  0.56461999  0.20726070  0.06347429  1
  Gd  Gd33  1  0.79465882  0.41618164  0.29287834  1
  Gd  Gd34  1  0.56135616  0.53167103  0.56978933  1
  Gd  Gd35  1  0.56362980  0.86388671  0.06029869  1
  N  N36  1  0.21892491  0.21107958  0.37758797  1
  N  N37  1  0.09397209  0.09273222  0.12082093  1
  N  N38  1  0.88793676  0.19810926  0.86080105  1
  N  N39  1  0.77637773  0.09211034  0.61810477  1
  N  N40  1  0.56034219  0.20946858  0.36786730  1
  N  N41  1  0.44287527  0.09560430  0.15055592  1
  N  N42  1  0.22010489  0.20726475  0.83050308  1
  N  N43  1  0.11169086  0.09435667  0.60629094  1
  N  N44  1  0.89882573  0.18063024  0.38914428  1
  N  N45  1  0.81020502  0.07908790  0.13324850  1
  N  N46  1  0.55128827  0.20252326  0.84540239  1
  N  N47  1  0.44665061  0.09298579  0.60058379  1
  N  N48  1  0.22369567  0.53935653  0.37363836  1
  N  N49  1  0.09583099  0.45515211  0.13268851  1
  N  N50  1  0.89094161  0.54641851  0.86587260  1
  N  N51  1  0.81401956  0.41073294  0.63406273  1
  N  N52  1  0.54330063  0.54325758  0.35640519  1
  N  N53  1  0.42395149  0.45720075  0.12295269  1
  N  N54  1  0.21561039  0.54038969  0.87392936  1
  N  N55  1  0.11058277  0.43290861  0.61714161  1
  N  N56  1  0.90175100  0.54976165  0.38336649  1
  N  N57  1  0.77395189  0.42990191  0.07272594  1
  N  N58  1  0.54624305  0.54285427  0.85452851  1
  N  N59  1  0.42326738  0.41439194  0.62438614  1
  N  N60  1  0.22262474  0.86827798  0.33645211  1
  N  N61  1  0.10781746  0.76013301  0.12675494  1
  N  N62  1  0.88339850  0.87455427  0.87300508  1
  N  N63  1  0.77799201  0.76225837  0.61702772  1
  N  N64  1  0.56166902  0.86497548  0.36793121  1
  N  N65  1  0.43238424  0.74940447  0.12424601  1
  N  N66  1  0.21500511  0.87444699  0.81787824  1
  N  N67  1  0.10475541  0.75630131  0.61988734  1
  N  N68  1  0.89086764  0.87012085  0.37609026  1
  N  N69  1  0.80791760  0.74860079  0.13241071  1
  N  N70  1  0.55268791  0.87751258  0.84219973  1
  N  N71  1  0.43618098  0.78553020  0.61712193  1
