# generated using pymatgen
data_Gd5Al31N36
_symmetry_space_group_name_H-M   'P 1'
_cell_length_a   9.70627699
_cell_length_b   9.69423152
_cell_length_c   10.27860712
_cell_angle_alpha   89.99869156
_cell_angle_beta   90.27972543
_cell_angle_gamma   60.02998501
_symmetry_Int_Tables_number   1
_chemical_formula_structural   Gd5Al31N36
_chemical_formula_sum   'Gd5 Al31 N36'
_cell_volume   837.82859666
_cell_formula_units_Z   1
loop_
 _symmetry_equiv_pos_site_id
 _symmetry_equiv_pos_as_xyz
  1  'x, y, z'
loop_
 _atom_site_type_symbol
 _atom_site_label
 _atom_site_symmetry_multiplicity
 _atom_site_fract_x
 _atom_site_fract_y
 _atom_site_fract_z
 _atom_site_occupancy
  Al  Al0  1  0.11180571  0.08614865  0.40835625  1
  Al  Al1  1  0.78451240  0.08954290  0.89070883  1
  Al  Al2  1  0.89407378  0.20259220  0.65368990  1
  Al  Al3  1  0.44284629  0.09524446  0.42453981  1
  Al  Al4  1  0.11036774  0.09008362  0.89196131  1
  Al  Al5  1  0.21589315  0.20871743  0.64720498  1
  Al  Al6  1  0.78233594  0.08569806  0.40752719  1
  Al  Al7  1  0.90054494  0.18443620  0.14168958  1
  Al  Al8  1  0.44362770  0.09485289  0.88146992  1
  Al  Al9  1  0.55407578  0.20461945  0.64900026  1
  Al  Al10  1  0.11181169  0.43538796  0.40835316  1
  Al  Al11  1  0.21516611  0.54993629  0.14733420  1
  Al  Al12  1  0.78396723  0.42469193  0.90664807  1
  Al  Al13  1  0.89407291  0.53667566  0.65369174  1
  Al  Al14  1  0.43085722  0.43080809  0.40392821  1
  Al  Al15  1  0.54044093  0.54643921  0.13367693  1
  Al  Al16  1  0.11037526  0.43288376  0.89196181  1
  Al  Al17  1  0.21481232  0.54172473  0.64938203  1
  Al  Al18  1  0.90056396  0.54835836  0.14168760  1
  Al  Al19  1  0.43782885  0.43123499  0.89952045  1
  Al  Al20  1  0.10988575  0.76173066  0.39620311  1
  Al  Al21  1  0.21515754  0.86822685  0.14733333  1
  Al  Al22  1  0.78451549  0.75929537  0.89070891  1
  Al  Al23  1  0.89213590  0.87060323  0.64886949  1
  Al  Al24  1  0.43085762  0.77166998  0.40392749  1
  Al  Al25  1  0.11085713  0.76124132  0.89938245  1
  Al  Al26  1  0.21481567  0.87678874  0.64938077  1
  Al  Al27  1  0.78234282  0.76531711  0.40752405  1
  Al  Al28  1  0.90056431  0.86638916  0.14483539  1
  Al  Al29  1  0.43782451  0.76427470  0.89951943  1
  Al  Al30  1  0.55408287  0.87462431  0.64900212  1
  Gd  Gd31  1  0.21317233  0.21006525  0.15185746  1
  Gd  Gd32  1  0.56482316  0.20723195  0.15035193  1
  Gd  Gd33  1  0.78155250  0.42591315  0.37547969  1
  Gd  Gd34  1  0.55498669  0.53915591  0.65186195  1
  Gd  Gd35  1  0.56483407  0.86122874  0.15034505  1
  N  N36  1  0.21979312  0.20676470  0.37522261  1
  N  N37  1  0.10503060  0.07526470  0.07499300  1
  N  N38  1  0.88852245  0.20714993  0.84041959  1
  N  N39  1  0.78027464  0.09393699  0.59555569  1
  N  N40  1  0.55521567  0.20264975  0.37062232  1
  N  N41  1  0.44463723  0.09434408  0.06278936  1
  N  N42  1  0.21617209  0.20857282  0.83798460  1
  N  N43  1  0.10722898  0.09273206  0.59511861  1
  N  N44  1  0.90592084  0.16747480  0.32827188  1
  N  N45  1  0.80687685  0.07349985  0.07346054  1
  N  N46  1  0.55829721  0.20902057  0.83954301  1
  N  N47  1  0.44251477  0.09541551  0.60970470  1
  N  N48  1  0.21862349  0.53949211  0.33780744  1
  N  N49  1  0.10505255  0.45304060  0.07499525  1
  N  N50  1  0.88852901  0.53765576  0.84042559  1
  N  N51  1  0.80756188  0.41290539  0.59397964  1
  N  N52  1  0.51939277  0.55695875  0.33837658  1
  N  N53  1  0.42285305  0.45253283  0.08165298  1
  N  N54  1  0.22073648  0.54314654  0.83541835  1
  N  N55  1  0.10722945  0.43339028  0.59511987  1
  N  N56  1  0.90593477  0.55993792  0.32826226  1
  N  N57  1  0.78341089  0.42498141  0.10295043  1
  N  N58  1  0.55974116  0.53678915  0.86942805  1
  N  N59  1  0.42457062  0.41756917  0.58767043  1
  N  N60  1  0.21862237  0.87521327  0.33780943  1
  N  N61  1  0.11151840  0.76091525  0.08896415  1
  N  N62  1  0.89336425  0.86998376  0.83348340  1
  N  N63  1  0.78027949  0.75915368  0.59555425  1
  N  N64  1  0.55522039  0.87544577  0.37061592  1
  N  N65  1  0.42283861  0.75796508  0.08165111  1
  N  N66  1  0.22073514  0.86943763  0.83541482  1
  N  N67  1  0.11021087  0.76157140  0.58567227  1
  N  N68  1  0.88630185  0.87351875  0.33902316  1
  N  N69  1  0.80688202  0.75299595  0.07345909  1
  N  N70  1  0.55829984  0.86599855  0.83954443  1
  N  N71  1  0.42458201  0.79119860  0.58767275  1
