# generated using pymatgen
data_Gd5Al31N36
_symmetry_space_group_name_H-M   'P 1'
_cell_length_a   9.68443945
_cell_length_b   9.69121333
_cell_length_c   10.57125618
_cell_angle_alpha   90.32932853
_cell_angle_beta   89.45924643
_cell_angle_gamma   60.06001007
_symmetry_Int_Tables_number   1
_chemical_formula_structural   Gd5Al31N36
_chemical_formula_sum   'Gd5 Al31 N36'
_cell_volume   859.64906651
_cell_formula_units_Z   1
loop_
 _symmetry_equiv_pos_site_id
 _symmetry_equiv_pos_as_xyz
  1  'x, y, z'
loop_
 _atom_site_type_symbol
 _atom_site_label
 _atom_site_symmetry_multiplicity
 _atom_site_fract_x
 _atom_site_fract_y
 _atom_site_fract_z
 _atom_site_occupancy
  Al  Al0  1  0.12573432  0.07986289  0.41848238  1
  Al  Al1  1  0.77823105  0.09720735  0.83209649  1
  Al  Al2  1  0.89513439  0.20055957  0.59270450  1
  Al  Al3  1  0.44672719  0.09001709  0.42668462  1
  Al  Al4  1  0.11786677  0.08727905  0.88994610  1
  Al  Al5  1  0.21990267  0.20628053  0.65523505  1
  Al  Al6  1  0.78284909  0.07953124  0.40147606  1
  Al  Al7  1  0.88408218  0.19976247  0.05793212  1
  Al  Al8  1  0.44199481  0.09708817  0.89208152  1
  Al  Al9  1  0.54419893  0.20517792  0.65104406  1
  Al  Al10  1  0.12478713  0.42361870  0.41654695  1
  Al  Al11  1  0.21674012  0.55017190  0.14374635  1
  Al  Al12  1  0.79476884  0.42225544  0.82712412  1
  Al  Al13  1  0.89427472  0.53635719  0.59109438  1
  Al  Al14  1  0.43304638  0.42497758  0.41584080  1
  Al  Al15  1  0.55695912  0.54031452  0.05411746  1
  Al  Al16  1  0.11738235  0.43078835  0.88979710  1
  Al  Al17  1  0.21212966  0.54142366  0.65397741  1
  Al  Al18  1  0.88828298  0.54305490  0.05851771  1
  Al  Al19  1  0.43349871  0.42997725  0.89012884  1
  Al  Al20  1  0.11637311  0.75591882  0.39786246  1
  Al  Al21  1  0.21554340  0.86922115  0.14424665  1
  Al  Al22  1  0.77854095  0.77169556  0.89127545  1
  Al  Al23  1  0.89642234  0.86276093  0.65191903  1
  Al  Al24  1  0.43409957  0.77209256  0.41469902  1
  Al  Al25  1  0.10873663  0.76415373  0.90360018  1
  Al  Al26  1  0.21431081  0.87833474  0.65391785  1
  Al  Al27  1  0.77962541  0.76636378  0.41649268  1
  Al  Al28  1  0.89761858  0.86946642  0.15211871  1
  Al  Al29  1  0.43520232  0.77324814  0.89035341  1
  Al  Al30  1  0.55250164  0.87971514  0.65481966  1
  Gd  Gd31  1  0.20202521  0.21552259  0.15550376  1
  Gd  Gd32  1  0.55167893  0.21926580  0.15741625  1
  Gd  Gd33  1  0.77651573  0.42248855  0.32788622  1
  Gd  Gd34  1  0.54696743  0.54314484  0.63037987  1
  Gd  Gd35  1  0.55927420  0.86188180  0.15502904  1
  N  N36  1  0.22787200  0.20013158  0.37363795  1
  N  N37  1  0.10625443  0.07478156  0.07033235  1
  N  N38  1  0.88752714  0.20572262  0.87483823  1
  N  N39  1  0.77658169  0.09257912  0.62762281  1
  N  N40  1  0.56027329  0.19827610  0.37680671  1
  N  N41  1  0.43859982  0.09617780  0.06828052  1
  N  N42  1  0.21963468  0.20786492  0.83904901  1
  N  N43  1  0.11769907  0.09007415  0.60279643  1
  N  N44  1  0.90215338  0.17863961  0.41097646  1
  N  N45  1  0.79947738  0.08269438  0.11496735  1
  N  N46  1  0.54953910  0.21069073  0.83600256  1
  N  N47  1  0.44174762  0.09384306  0.60624501  1
  N  N48  1  0.22602036  0.53096480  0.33500622  1
  N  N49  1  0.10778865  0.45254157  0.07214977  1
  N  N50  1  0.88945313  0.54188957  0.87490173  1
  N  N51  1  0.81137753  0.41075387  0.64736046  1
  N  N52  1  0.52926373  0.55026756  0.39956923  1
  N  N53  1  0.42364921  0.45595442  0.06802655  1
  N  N54  1  0.21791971  0.54762764  0.83416878  1
  N  N55  1  0.11672472  0.42471755  0.60094801  1
  N  N56  1  0.90167535  0.54408567  0.40399321  1
  N  N57  1  0.77695181  0.43038115  0.10591431  1
  N  N58  1  0.56147655  0.53776714  0.86363971  1
  N  N59  1  0.41911084  0.41190975  0.59377776  1
  N  N60  1  0.22471743  0.87247858  0.33599506  1
  N  N61  1  0.10943277  0.76250933  0.08992970  1
  N  N62  1  0.89583198  0.87003718  0.83379793  1
  N  N63  1  0.77510791  0.76712424  0.60158573  1
  N  N64  1  0.55947396  0.87052872  0.37170095  1
  N  N65  1  0.42409433  0.75901428  0.06917521  1
  N  N66  1  0.21939220  0.86938942  0.83421804  1
  N  N67  1  0.11380400  0.75894539  0.58556276  1
  N  N68  1  0.89339865  0.86334221  0.34519838  1
  N  N69  1  0.79953034  0.76242774  0.07414629  1
  N  N70  1  0.55627509  0.87371300  0.83882422  1
  N  N71  1  0.42237075  0.80104346  0.59440683  1
