# generated using pymatgen
data_Gd5Al31N36
_symmetry_space_group_name_H-M   'P 1'
_cell_length_a   9.71854703
_cell_length_b   9.68120030
_cell_length_c   10.42082728
_cell_angle_alpha   89.78663734
_cell_angle_beta   89.25125829
_cell_angle_gamma   60.03075341
_symmetry_Int_Tables_number   1
_chemical_formula_structural   Gd5Al31N36
_chemical_formula_sum   'Gd5 Al31 N36'
_cell_volume   849.29490245
_cell_formula_units_Z   1
loop_
 _symmetry_equiv_pos_site_id
 _symmetry_equiv_pos_as_xyz
  1  'x, y, z'
loop_
 _atom_site_type_symbol
 _atom_site_label
 _atom_site_symmetry_multiplicity
 _atom_site_fract_x
 _atom_site_fract_y
 _atom_site_fract_z
 _atom_site_occupancy
  Al  Al0  1  0.11971299  0.08286031  0.39286741  1
  Al  Al1  1  0.77295196  0.09128789  0.80052901  1
  Al  Al2  1  0.89224559  0.20014560  0.57218651  1
  Al  Al3  1  0.44484585  0.09575663  0.32880661  1
  Al  Al4  1  0.10972307  0.08572979  0.85316622  1
  Al  Al5  1  0.22236475  0.21230346  0.56898615  1
  Al  Al6  1  0.78987100  0.08581276  0.31911334  1
  Al  Al7  1  0.88967888  0.19730819  0.04285641  1
  Al  Al8  1  0.44297358  0.09366070  0.78512061  1
  Al  Al9  1  0.55459393  0.20431978  0.55703246  1
  Al  Al10  1  0.11260712  0.43609197  0.31903899  1
  Al  Al11  1  0.21206384  0.55272916  0.06436335  1
  Al  Al12  1  0.78297404  0.42575166  0.81785151  1
  Al  Al13  1  0.89706071  0.53937731  0.56512730  1
  Al  Al14  1  0.43561231  0.43670999  0.30782506  1
  Al  Al15  1  0.54201923  0.54561051  0.04723400  1
  Al  Al16  1  0.10808269  0.43165636  0.79942150  1
  Al  Al17  1  0.21639154  0.54015657  0.55846082  1
  Al  Al18  1  0.89376710  0.54687863  0.05198917  1
  Al  Al19  1  0.43228978  0.42540105  0.80573868  1
  Al  Al20  1  0.10698583  0.75877772  0.31405967  1
  Al  Al21  1  0.21121352  0.87788148  0.13186189  1
  Al  Al22  1  0.77709854  0.76417140  0.80084152  1
  Al  Al23  1  0.88929408  0.87075248  0.55906730  1
  Al  Al24  1  0.44309997  0.76048251  0.30874179  1
  Al  Al25  1  0.10303337  0.75694405  0.81086402  1
  Al  Al26  1  0.21521581  0.87690008  0.62859209  1
  Al  Al27  1  0.78767547  0.76043852  0.31679584  1
  Al  Al28  1  0.90188261  0.86803805  0.06620025  1
  Al  Al29  1  0.44285774  0.76607276  0.80130807  1
  Al  Al30  1  0.55769639  0.87305930  0.55611779  1
  Gd  Gd31  1  0.22136115  0.21594030  0.05625252  1
  Gd  Gd32  1  0.56819919  0.20581886  0.06440397  1
  Gd  Gd33  1  0.79231754  0.41921465  0.29575273  1
  Gd  Gd34  1  0.55953903  0.53315538  0.56867357  1
  Gd  Gd35  1  0.56353699  0.86410940  0.05898945  1
  N  N36  1  0.21974894  0.21327954  0.37641437  1
  N  N37  1  0.10719844  0.07350031  0.05121058  1
  N  N38  1  0.87905643  0.20146348  0.85789458  1
  N  N39  1  0.77577844  0.09200669  0.61772322  1
  N  N40  1  0.56011073  0.21036566  0.36813744  1
  N  N41  1  0.44671812  0.09391600  0.15152037  1
  N  N42  1  0.21999005  0.20521063  0.83227419  1
  N  N43  1  0.11668908  0.08944601  0.58200317  1
  N  N44  1  0.89692531  0.18343219  0.38843591  1
  N  N45  1  0.81455934  0.07954734  0.13552576  1
  N  N46  1  0.54989283  0.20156876  0.84669985  1
  N  N47  1  0.44719838  0.09308825  0.60156808  1
  N  N48  1  0.22290776  0.54211910  0.37393652  1
  N  N49  1  0.09317753  0.45823374  0.13465125  1
  N  N50  1  0.89033725  0.54546781  0.86629894  1
  N  N51  1  0.81321447  0.41194655  0.63268538  1
  N  N52  1  0.53930852  0.54687228  0.35632357  1
  N  N53  1  0.42403029  0.45573991  0.12272349  1
  N  N54  1  0.21539356  0.53835376  0.87451601  1
  N  N55  1  0.11049579  0.43344316  0.61806728  1
  N  N56  1  0.90153555  0.55130934  0.38427475  1
  N  N57  1  0.77546165  0.42838567  0.07589546  1
  N  N58  1  0.54723254  0.54125507  0.85508987  1
  N  N59  1  0.42302418  0.41451509  0.62492813  1
  N  N60  1  0.21732787  0.87866536  0.32362487  1
  N  N61  1  0.10821559  0.75983642  0.12583982  1
  N  N62  1  0.88300643  0.87448813  0.87324953  1
  N  N63  1  0.77797001  0.76254400  0.61729402  1
  N  N64  1  0.56072370  0.86560836  0.36852625  1
  N  N65  1  0.43363335  0.74814346  0.12238602  1
  N  N66  1  0.21711947  0.86869482  0.81584320  1
  N  N67  1  0.10448556  0.75737205  0.62043844  1
  N  N68  1  0.89105226  0.87085226  0.37596812  1
  N  N69  1  0.80692827  0.74989599  0.13240854  1
  N  N70  1  0.55308885  0.87627020  0.84180774  1
  N  N71  1  0.43561861  0.78584534  0.61818896  1
