# generated using pymatgen
data_Gd5Al31N36
_symmetry_space_group_name_H-M   'P 1'
_cell_length_a   9.62695470
_cell_length_b   9.65717620
_cell_length_c   10.68514903
_cell_angle_alpha   89.72386453
_cell_angle_beta   89.42594023
_cell_angle_gamma   59.99795026
_symmetry_Int_Tables_number   1
_chemical_formula_structural   Gd5Al31N36
_chemical_formula_sum   'Gd5 Al31 N36'
_cell_volume   860.23977585
_cell_formula_units_Z   1
loop_
 _symmetry_equiv_pos_site_id
 _symmetry_equiv_pos_as_xyz
  1  'x, y, z'
loop_
 _atom_site_type_symbol
 _atom_site_label
 _atom_site_symmetry_multiplicity
 _atom_site_fract_x
 _atom_site_fract_y
 _atom_site_fract_z
 _atom_site_occupancy
  Al  Al0  1  0.11995807  0.08518957  0.39661103  1
  Al  Al1  1  0.77641376  0.08851252  0.79963822  1
  Al  Al2  1  0.89139762  0.19958302  0.56676774  1
  Al  Al3  1  0.44887757  0.09640764  0.32905501  1
  Al  Al4  1  0.11652542  0.08564831  0.86524498  1
  Al  Al5  1  0.21339687  0.21013437  0.62023096  1
  Al  Al6  1  0.78878506  0.08788003  0.31410687  1
  Al  Al7  1  0.88914244  0.19326826  0.04020587  1
  Al  Al8  1  0.44663355  0.09013689  0.78731985  1
  Al  Al9  1  0.55356318  0.20343695  0.55517884  1
  Al  Al10  1  0.12135113  0.43148513  0.39739357  1
  Al  Al11  1  0.20909851  0.55270321  0.12747264  1
  Al  Al12  1  0.79021386  0.41872326  0.80864634  1
  Al  Al13  1  0.89217014  0.54270805  0.56704912  1
  Al  Al14  1  0.43931144  0.43642600  0.30614719  1
  Al  Al15  1  0.55363084  0.53329042  0.03695162  1
  Al  Al16  1  0.11774685  0.42753202  0.86649040  1
  Al  Al17  1  0.20948153  0.54657627  0.63146462  1
  Al  Al18  1  0.89055879  0.54654335  0.04024263  1
  Al  Al19  1  0.44335120  0.41674870  0.79747812  1
  Al  Al20  1  0.11857859  0.75910574  0.37743852  1
  Al  Al21  1  0.21963029  0.86571655  0.12007097  1
  Al  Al22  1  0.77715618  0.76317604  0.79895951  1
  Al  Al23  1  0.88580574  0.87527632  0.55459063  1
  Al  Al24  1  0.42986483  0.77911991  0.37968512  1
  Al  Al25  1  0.11343820  0.75785238  0.87962893  1
  Al  Al26  1  0.21532733  0.87563261  0.62910309  1
  Al  Al27  1  0.79127128  0.75991357  0.31535561  1
  Al  Al28  1  0.89620173  0.86775130  0.06529607  1
  Al  Al29  1  0.43405071  0.76125328  0.85611529  1
  Al  Al30  1  0.55906238  0.88012592  0.55875333  1
  Gd  Gd31  1  0.18029637  0.22388297  0.14604101  1
  Gd  Gd32  1  0.55529366  0.20912062  0.05845697  1
  Gd  Gd33  1  0.77818720  0.43188609  0.29714096  1
  Gd  Gd34  1  0.55981622  0.53383830  0.57528006  1
  Gd  Gd35  1  0.56331472  0.87063724  0.05747641  1
  N  N36  1  0.21810771  0.20963015  0.35970702  1
  N  N37  1  0.11322926  0.06875988  0.04332615  1
  N  N38  1  0.88103928  0.19948956  0.85973544  1
  N  N39  1  0.77771957  0.09124066  0.61831960  1
  N  N40  1  0.55838676  0.21323199  0.36980613  1
  N  N41  1  0.43747125  0.09826732  0.15311658  1
  N  N42  1  0.21381751  0.20845909  0.80734304  1
  N  N43  1  0.11558756  0.08774007  0.57554809  1
  N  N44  1  0.89361386  0.18916632  0.38451766  1
  N  N45  1  0.80911143  0.07830654  0.13322592  1
  N  N46  1  0.55134264  0.19929620  0.84597287  1
  N  N47  1  0.44690663  0.09443466  0.60754011  1
  N  N48  1  0.20912020  0.54452311  0.31267854  1
  N  N49  1  0.11656986  0.44713069  0.04475358  1
  N  N50  1  0.88097417  0.54778768  0.86050612  1
  N  N51  1  0.81924732  0.40739967  0.63096513  1
  N  N52  1  0.52655982  0.55776726  0.36364486  1
  N  N53  1  0.43887595  0.45392688  0.12566221  1
  N  N54  1  0.21242765  0.54861857  0.81157709  1
  N  N55  1  0.11751516  0.42992049  0.57553651  1
  N  N56  1  0.89401255  0.55444248  0.38705071  1
  N  N57  1  0.78536107  0.42220369  0.08070853  1
  N  N58  1  0.55675267  0.52720787  0.84687457  1
  N  N59  1  0.43177640  0.40828583  0.62157138  1
  N  N60  1  0.21875187  0.88024342  0.30927377  1
  N  N61  1  0.11850935  0.75684479  0.06115385  1
  N  N62  1  0.87598022  0.87627694  0.87497126  1
  N  N63  1  0.78086624  0.76367229  0.61919873  1
  N  N64  1  0.56604375  0.87312626  0.37158434  1
  N  N65  1  0.42520419  0.75163537  0.04524120  1
  N  N66  1  0.21521360  0.86836067  0.80711122  1
  N  N67  1  0.11969673  0.75752706  0.56155253  1
  N  N68  1  0.88703839  0.87617192  0.37405668  1
  N  N69  1  0.81504615  0.73790159  0.13516746  1
  N  N70  1  0.55100283  0.87300744  0.83957381  1
  N  N71  1  0.42383824  0.79494644  0.56872580  1
