# generated using pymatgen
data_Gd5Al31N36
_symmetry_space_group_name_H-M   'P 1'
_cell_length_a   9.71183615
_cell_length_b   9.71080693
_cell_length_c   10.28391131
_cell_angle_alpha   90.00066894
_cell_angle_beta   90.39286055
_cell_angle_gamma   60.01056741
_symmetry_Int_Tables_number   1
_chemical_formula_structural   Gd5Al31N36
_chemical_formula_sum   'Gd5 Al31 N36'
_cell_volume   839.99803495
_cell_formula_units_Z   1
loop_
 _symmetry_equiv_pos_site_id
 _symmetry_equiv_pos_as_xyz
  1  'x, y, z'
loop_
 _atom_site_type_symbol
 _atom_site_label
 _atom_site_symmetry_multiplicity
 _atom_site_fract_x
 _atom_site_fract_y
 _atom_site_fract_z
 _atom_site_occupancy
  Al  Al0  1  0.11083292  0.08694883  0.40769679  1
  Al  Al1  1  0.78471996  0.08898836  0.89094617  1
  Al  Al2  1  0.89382159  0.20273324  0.65240512  1
  Al  Al3  1  0.44245972  0.09544035  0.42484689  1
  Al  Al4  1  0.11039857  0.09000058  0.89231024  1
  Al  Al5  1  0.21578280  0.20878058  0.64681428  1
  Al  Al6  1  0.78212308  0.08565462  0.40789135  1
  Al  Al7  1  0.90156449  0.18284759  0.14179352  1
  Al  Al8  1  0.44409375  0.09462432  0.88288925  1
  Al  Al9  1  0.55416349  0.20325845  0.64939761  1
  Al  Al10  1  0.11082776  0.43555214  0.40769854  1
  Al  Al11  1  0.21659800  0.54976825  0.14796857  1
  Al  Al12  1  0.79131341  0.42100588  0.90160487  1
  Al  Al13  1  0.89382136  0.53677763  0.65240386  1
  Al  Al14  1  0.42998617  0.43060132  0.40980632  1
  Al  Al15  1  0.54987784  0.54173634  0.08466453  1
  Al  Al16  1  0.11039294  0.43294111  0.89230997  1
  Al  Al17  1  0.21318080  0.54175932  0.64973599  1
  Al  Al18  1  0.90154988  0.54892201  0.14179468  1
  Al  Al19  1  0.43488176  0.42730234  0.89571478  1
  Al  Al20  1  0.11125417  0.76103805  0.39615061  1
  Al  Al21  1  0.21660300  0.86697630  0.14796926  1
  Al  Al22  1  0.78471707  0.75961930  0.89094600  1
  Al  Al23  1  0.89236141  0.87048505  0.64887851  1
  Al  Al24  1  0.42998651  0.77275254  0.40980709  1
  Al  Al25  1  0.11041919  0.76145829  0.90009280  1
  Al  Al26  1  0.21317811  0.87840456  0.64973708  1
  Al  Al27  1  0.78211729  0.76554910  0.40789362  1
  Al  Al28  1  0.90053340  0.86639881  0.14535297  1
  Al  Al29  1  0.43488345  0.77115363  0.89571632  1
  Al  Al30  1  0.55415852  0.87592826  0.64939686  1
  Gd  Gd31  1  0.21375533  0.20980278  0.15185759  1
  Gd  Gd32  1  0.56492958  0.20868990  0.15235904  1
  Gd  Gd33  1  0.77727276  0.42801778  0.37322871  1
  Gd  Gd34  1  0.55305549  0.54015328  0.64765190  1
  Gd  Gd35  1  0.56491993  0.85975605  0.15236320  1
  N  N36  1  0.21922993  0.20705855  0.37486775  1
  N  N37  1  0.10580859  0.07445817  0.07522962  1
  N  N38  1  0.88943631  0.20572615  0.83937843  1
  N  N39  1  0.78039746  0.09349946  0.59591414  1
  N  N40  1  0.55452361  0.20301835  0.37227128  1
  N  N41  1  0.44622306  0.09356320  0.06440959  1
  N  N42  1  0.21629472  0.20852850  0.83846215  1
  N  N43  1  0.10650455  0.09341358  0.59451521  1
  N  N44  1  0.90459838  0.16760147  0.32787112  1
  N  N45  1  0.80640003  0.07362230  0.07355453  1
  N  N46  1  0.55893222  0.20731193  0.83966198  1
  N  N47  1  0.44208584  0.09562362  0.60983918  1
  N  N48  1  0.21921165  0.53851338  0.33788590  1
  N  N49  1  0.10579245  0.45307316  0.07522822  1
  N  N50  1  0.88943124  0.53817969  0.83937452  1
  N  N51  1  0.80730442  0.41300360  0.59465041  1
  N  N52  1  0.51865692  0.55735050  0.37354175  1
  N  N53  1  0.42253665  0.45157569  0.07846011  1
  N  N54  1  0.21874752  0.54405475  0.83542001  1
  N  N55  1  0.10650370  0.43341031  0.59451418  1
  N  N56  1  0.90458757  0.56113778  0.32787754  1
  N  N57  1  0.78644662  0.42343231  0.09852087  1
  N  N58  1  0.56102610  0.53616182  0.87746207  1
  N  N59  1  0.42267991  0.41515300  0.59353660  1
  N  N60  1  0.21921310  0.87561664  0.33788522  1
  N  N61  1  0.11186383  0.76073275  0.08950784  1
  N  N62  1  0.89338121  0.86997902  0.83371076  1
  N  N63  1  0.78039353  0.75942019  0.59591534  1
  N  N64  1  0.55451970  0.87581512  0.37227540  1
  N  N65  1  0.42254619  0.75921629  0.07846120  1
  N  N66  1  0.21874716  0.87054742  0.83542266  1
  N  N67  1  0.11049567  0.76141526  0.58582125  1
  N  N68  1  0.88631168  0.87351079  0.33925873  1
  N  N69  1  0.80639488  0.75329063  0.07355550  1
  N  N70  1  0.55892977  0.86710975  0.83966157  1
  N  N71  1  0.42267242  0.79550448  0.59353488  1
