# generated using pymatgen
data_Gd5Al31N36
_symmetry_space_group_name_H-M   'P 1'
_cell_length_a   9.68995471
_cell_length_b   9.69027211
_cell_length_c   10.59720818
_cell_angle_alpha   90.00042525
_cell_angle_beta   88.68163647
_cell_angle_gamma   59.99529847
_symmetry_Int_Tables_number   1
_chemical_formula_structural   Gd5Al31N36
_chemical_formula_sum   'Gd5 Al31 N36'
_cell_volume   861.40196356
_cell_formula_units_Z   1
loop_
 _symmetry_equiv_pos_site_id
 _symmetry_equiv_pos_as_xyz
  1  'x, y, z'
loop_
 _atom_site_type_symbol
 _atom_site_label
 _atom_site_symmetry_multiplicity
 _atom_site_fract_x
 _atom_site_fract_y
 _atom_site_fract_z
 _atom_site_occupancy
  Al  Al0  1  0.12733235  0.08247950  0.41832717  1
  Al  Al1  1  0.78066938  0.09003705  0.82457463  1
  Al  Al2  1  0.89194970  0.20144441  0.58970156  1
  Al  Al3  1  0.45342781  0.08995201  0.42276439  1
  Al  Al4  1  0.11301996  0.08767050  0.89104571  1
  Al  Al5  1  0.21797732  0.20767679  0.65381153  1
  Al  Al6  1  0.79365037  0.08730304  0.34930819  1
  Al  Al7  1  0.88506111  0.19792349  0.06660054  1
  Al  Al8  1  0.43736379  0.09798454  0.88914838  1
  Al  Al9  1  0.54584051  0.20509370  0.65204206  1
  Al  Al10  1  0.12733384  0.42352348  0.41832742  1
  Al  Al11  1  0.21602170  0.54881241  0.14468766  1
  Al  Al12  1  0.79186754  0.42073469  0.83211612  1
  Al  Al13  1  0.89194977  0.53993812  0.58970084  1
  Al  Al14  1  0.43650154  0.42314089  0.41369765  1
  Al  Al15  1  0.55583198  0.53874841  0.05320882  1
  Al  Al16  1  0.11302094  0.43264488  0.89104487  1
  Al  Al17  1  0.21209923  0.54153172  0.65434489  1
  Al  Al18  1  0.88506275  0.55034868  0.06659982  1
  Al  Al19  1  0.43010262  0.43028362  0.88939444  1
  Al  Al20  1  0.12745589  0.75294007  0.40059872  1
  Al  Al21  1  0.21602014  0.86849762  0.14468847  1
  Al  Al22  1  0.78067020  0.76262965  0.82457470  1
  Al  Al23  1  0.88983346  0.87174945  0.60025247  1
  Al  Al24  1  0.43650135  0.77368989  0.41369711  1
  Al  Al25  1  0.10222841  0.76555354  0.90304038  1
  Al  Al26  1  0.21210001  0.87970064  0.65434433  1
  Al  Al27  1  0.79365240  0.75238219  0.34930641  1
  Al  Al28  1  0.90748843  0.86292204  0.15075214  1
  Al  Al29  1  0.43010239  0.77294818  0.88939435  1
  Al  Al30  1  0.54584196  0.88239361  0.65204196  1
  Gd  Gd31  1  0.19903037  0.21715040  0.15548720  1
  Gd  Gd32  1  0.55115402  0.21774866  0.14888212  1
  Gd  Gd33  1  0.77583547  0.42875159  0.32828723  1
  Gd  Gd34  1  0.54774353  0.54279031  0.63015898  1
  Gd  Gd35  1  0.55115444  0.86442123  0.14888198  1
  N  N36  1  0.23189596  0.20071612  0.37244870  1
  N  N37  1  0.10681227  0.07350040  0.07133569  1
  N  N38  1  0.88015300  0.20411344  0.88515899  1
  N  N39  1  0.77880501  0.09448967  0.64032138  1
  N  N40  1  0.56211204  0.20089969  0.36637552  1
  N  N41  1  0.43547632  0.09892791  0.06508601  1
  N  N42  1  0.21362396  0.20985238  0.83783977  1
  N  N43  1  0.11601781  0.09124878  0.60136254  1
  N  N44  1  0.90255578  0.18475092  0.40940567  1
  N  N45  1  0.81411738  0.08227939  0.16311134  1
  N  N46  1  0.54630760  0.21093048  0.83743061  1
  N  N47  1  0.44314816  0.09509346  0.60291557  1
  N  N48  1  0.22769646  0.53132700  0.33466635  1
  N  N49  1  0.10681449  0.45302423  0.07133474  1
  N  N50  1  0.88015373  0.54906364  0.88516004  1
  N  N51  1  0.81324577  0.41004775  0.65194635  1
  N  N52  1  0.52881895  0.55225234  0.39980757  1
  N  N53  1  0.42204657  0.45499025  0.06746985  1
  N  N54  1  0.21497387  0.54803193  0.83406883  1
  N  N55  1  0.11601831  0.42607119  0.60136375  1
  N  N56  1  0.90255839  0.54602147  0.40940424  1
  N  N57  1  0.77429335  0.42952457  0.10774945  1
  N  N58  1  0.55818235  0.53757264  0.86331434  1
  N  N59  1  0.42081252  0.41081084  0.59231075  1
  N  N60  1  0.22769560  0.87430669  0.33466694  1
  N  N61  1  0.11343967  0.75994888  0.09029656  1
  N  N62  1  0.88594131  0.87369414  0.86260340  1
  N  N63  1  0.77880648  0.76004565  0.64032167  1
  N  N64  1  0.56211257  0.87031173  0.36637521  1
  N  N65  1  0.42204222  0.75630183  0.06746980  1
  N  N66  1  0.21497434  0.87032290  0.83406765  1
  N  N67  1  0.11985469  0.75674152  0.58566801  1
  N  N68  1  0.90060532  0.86636215  0.37823266  1
  N  N69  1  0.81411771  0.73694527  0.16311071  1
  N  N70  1  0.54630813  0.87608779  0.83743020  1
  N  N71  1  0.42081473  0.80171066  0.59231155  1
