# generated using pymatgen
data_Gd5Al31N36
_symmetry_space_group_name_H-M   'P 1'
_cell_length_a   9.70623771
_cell_length_b   9.68258725
_cell_length_c   10.31950671
_cell_angle_alpha   90.11337477
_cell_angle_beta   89.71448555
_cell_angle_gamma   59.99804742
_symmetry_Int_Tables_number   1
_chemical_formula_structural   Gd5Al31N36
_chemical_formula_sum   'Gd5 Al31 N36'
_cell_volume   839.87022949
_cell_formula_units_Z   1
loop_
 _symmetry_equiv_pos_site_id
 _symmetry_equiv_pos_as_xyz
  1  'x, y, z'
loop_
 _atom_site_type_symbol
 _atom_site_label
 _atom_site_symmetry_multiplicity
 _atom_site_fract_x
 _atom_site_fract_y
 _atom_site_fract_z
 _atom_site_occupancy
  Al  Al0  1  0.11078693  0.08790520  0.32343698  1
  Al  Al1  1  0.77875280  0.09078858  0.80263480  1
  Al  Al2  1  0.89721778  0.19743828  0.56696498  1
  Al  Al3  1  0.44306013  0.09520779  0.32825278  1
  Al  Al4  1  0.11207257  0.09053440  0.79831843  1
  Al  Al5  1  0.21795293  0.20873882  0.56198085  1
  Al  Al6  1  0.78758975  0.08516741  0.31843107  1
  Al  Al7  1  0.89441396  0.19315277  0.05213577  1
  Al  Al8  1  0.44408189  0.09481855  0.78504145  1
  Al  Al9  1  0.55495196  0.20367618  0.55793018  1
  Al  Al10  1  0.11238467  0.43551231  0.31723115  1
  Al  Al11  1  0.21332659  0.55103653  0.06331917  1
  Al  Al12  1  0.78722592  0.42364656  0.82147268  1
  Al  Al13  1  0.89803977  0.53844659  0.56560240  1
  Al  Al14  1  0.43523139  0.43637774  0.30941867  1
  Al  Al15  1  0.54203416  0.54598003  0.04790259  1
  Al  Al16  1  0.11126822  0.43163572  0.79994325  1
  Al  Al17  1  0.21703458  0.53898162  0.55931541  1
  Al  Al18  1  0.89502195  0.54602802  0.05209313  1
  Al  Al19  1  0.43374765  0.42568395  0.80584073  1
  Al  Al20  1  0.10947880  0.75944299  0.31591271  1
  Al  Al21  1  0.21286999  0.87024865  0.08321180  1
  Al  Al22  1  0.77888251  0.76405292  0.80165730  1
  Al  Al23  1  0.89029964  0.87131075  0.56090036  1
  Al  Al24  1  0.43818090  0.76095220  0.31387871  1
  Al  Al25  1  0.11011202  0.76300754  0.81133014  1
  Al  Al26  1  0.21752793  0.87497846  0.56107858  1
  Al  Al27  1  0.78768139  0.76061663  0.31769507  1
  Al  Al28  1  0.90023711  0.86674938  0.06508409  1
  Al  Al29  1  0.43363476  0.77399059  0.80285382  1
  Al  Al30  1  0.55668783  0.87353282  0.55763885  1
  Gd  Gd31  1  0.21200440  0.20928162  0.05681858  1
  Gd  Gd32  1  0.56216443  0.20744123  0.06290736  1
  Gd  Gd33  1  0.78747659  0.42267380  0.29852886  1
  Gd  Gd34  1  0.55962215  0.53412995  0.57575364  1
  Gd  Gd35  1  0.56230933  0.86264046  0.06094469  1
  N  N36  1  0.21507930  0.21020382  0.37211441  1
  N  N37  1  0.09375967  0.08558663  0.13746636  1
  N  N38  1  0.89338872  0.19625625  0.86589704  1
  N  N39  1  0.77789039  0.09297529  0.61772611  1
  N  N40  1  0.55893114  0.20951625  0.36714251  1
  N  N41  1  0.44056389  0.09553329  0.14870015  1
  N  N42  1  0.22286490  0.20575466  0.83531204  1
  N  N43  1  0.11294630  0.09082156  0.61439801  1
  N  N44  1  0.89961703  0.18124756  0.38555086  1
  N  N45  1  0.80820184  0.07763408  0.13245152  1
  N  N46  1  0.55445765  0.20170460  0.84418969  1
  N  N47  1  0.44476304  0.09406959  0.59926087  1
  N  N48  1  0.22229567  0.54082030  0.37346215  1
  N  N49  1  0.09784597  0.45454387  0.13099288  1
  N  N50  1  0.89279009  0.54499759  0.86610046  1
  N  N51  1  0.81583792  0.40933631  0.63268694  1
  N  N52  1  0.53760909  0.54676814  0.36127852  1
  N  N53  1  0.42486374  0.45732434  0.12313902  1
  N  N54  1  0.21747508  0.54085999  0.87285399  1
  N  N55  1  0.11219452  0.43088401  0.61669438  1
  N  N56  1  0.90210818  0.55137228  0.38315592  1
  N  N57  1  0.77518140  0.42958741  0.07691071  1
  N  N58  1  0.54832923  0.54275055  0.85413315  1
  N  N59  1  0.42406445  0.41359452  0.62421462  1
  N  N60  1  0.22153240  0.86882473  0.37163179  1
  N  N61  1  0.10860482  0.76049151  0.12721733  1
  N  N62  1  0.88698115  0.87325122  0.87179918  1
  N  N63  1  0.77886609  0.76213590  0.61689517  1
  N  N64  1  0.56031595  0.86504016  0.36784039  1
  N  N65  1  0.42780942  0.75058052  0.12789372  1
  N  N66  1  0.21813757  0.87575996  0.86679563  1
  N  N67  1  0.11020025  0.76032348  0.62115293  1
  N  N68  1  0.89148025  0.87073815  0.37624243  1
  N  N69  1  0.80758062  0.74858855  0.13199996  1
  N  N70  1  0.55441131  0.87697312  0.84179971  1
  N  N71  1  0.42764791  0.79133082  0.62004966  1
