# generated using pymatgen
data_Gd5Al31N36
_symmetry_space_group_name_H-M   'P 1'
_cell_length_a   9.72525982
_cell_length_b   9.73930800
_cell_length_c   10.34567915
_cell_angle_alpha   90.29108263
_cell_angle_beta   90.21447297
_cell_angle_gamma   59.81104959
_symmetry_Int_Tables_number   1
_chemical_formula_structural   Gd5Al31N36
_chemical_formula_sum   'Gd5 Al31 N36'
_cell_volume   846.99898552
_cell_formula_units_Z   1
loop_
 _symmetry_equiv_pos_site_id
 _symmetry_equiv_pos_as_xyz
  1  'x, y, z'
loop_
 _atom_site_type_symbol
 _atom_site_label
 _atom_site_symmetry_multiplicity
 _atom_site_fract_x
 _atom_site_fract_y
 _atom_site_fract_z
 _atom_site_occupancy
  Al  Al0  1  0.11224909  0.08636144  0.41319198  1
  Al  Al1  1  0.78115761  0.08452582  0.88695729  1
  Al  Al2  1  0.89446055  0.19497386  0.64714002  1
  Al  Al3  1  0.44450272  0.09245779  0.42486028  1
  Al  Al4  1  0.11841192  0.08695957  0.88682861  1
  Al  Al5  1  0.21750614  0.20885640  0.64703371  1
  Al  Al6  1  0.78238623  0.08373934  0.41445590  1
  Al  Al7  1  0.89303845  0.20176329  0.08314487  1
  Al  Al8  1  0.44322442  0.09613597  0.88720733  1
  Al  Al9  1  0.55217826  0.20002587  0.65211284  1
  Al  Al10  1  0.11182522  0.43365182  0.40695727  1
  Al  Al11  1  0.22046451  0.54955363  0.14571024  1
  Al  Al12  1  0.78837470  0.42527798  0.83436074  1
  Al  Al13  1  0.89513012  0.54293787  0.65153590  1
  Al  Al14  1  0.42793584  0.42513033  0.41459254  1
  Al  Al15  1  0.55896903  0.53894964  0.06130457  1
  Al  Al16  1  0.11061969  0.43378449  0.89441974  1
  Al  Al17  1  0.20990128  0.54067916  0.65073655  1
  Al  Al18  1  0.90122998  0.55046334  0.14157251  1
  Al  Al19  1  0.43465747  0.42618957  0.89047394  1
  Al  Al20  1  0.11329225  0.76073453  0.39474862  1
  Al  Al21  1  0.21804541  0.86759136  0.14536736  1
  Al  Al22  1  0.78582951  0.76012994  0.89418858  1
  Al  Al23  1  0.89331545  0.86709392  0.64983926  1
  Al  Al24  1  0.42985162  0.77533524  0.41196431  1
  Al  Al25  1  0.11131156  0.76094086  0.90076021  1
  Al  Al26  1  0.21285157  0.87900471  0.65048582  1
  Al  Al27  1  0.78362023  0.76311666  0.40584303  1
  Al  Al28  1  0.90088503  0.86969237  0.14709811  1
  Al  Al29  1  0.43604634  0.77184626  0.89013203  1
  Al  Al30  1  0.55478870  0.87715040  0.65123841  1
  Gd  Gd31  1  0.20971139  0.21179989  0.15541276  1
  Gd  Gd32  1  0.56531658  0.21296606  0.15439330  1
  Gd  Gd33  1  0.77046982  0.42569595  0.34990636  1
  Gd  Gd34  1  0.53858888  0.54600271  0.63059023  1
  Gd  Gd35  1  0.56178362  0.86191113  0.15068418  1
  N  N36  1  0.22196300  0.20423004  0.37691317  1
  N  N37  1  0.10953280  0.07397090  0.06935749  1
  N  N38  1  0.89210981  0.19993227  0.84883884  1
  N  N39  1  0.77796365  0.08879949  0.60306147  1
  N  N40  1  0.55614185  0.20027674  0.37360778  1
  N  N41  1  0.44378454  0.09871177  0.06798297  1
  N  N42  1  0.21788578  0.20994594  0.83751360  1
  N  N43  1  0.10897301  0.09329740  0.60049918  1
  N  N44  1  0.90308325  0.17090555  0.36384184  1
  N  N45  1  0.80438937  0.07434738  0.06959797  1
  N  N46  1  0.55746140  0.20537966  0.83965631  1
  N  N47  1  0.44287724  0.09356541  0.60853551  1
  N  N48  1  0.22199790  0.53584173  0.33572308  1
  N  N49  1  0.10707649  0.45341373  0.07613206  1
  N  N50  1  0.89387130  0.54395267  0.83806698  1
  N  N51  1  0.80228173  0.41494528  0.63632969  1
  N  N52  1  0.51662485  0.55535269  0.39976013  1
  N  N53  1  0.42702855  0.45279485  0.07257093  1
  N  N54  1  0.21765388  0.54420849  0.83519797  1
  N  N55  1  0.10462095  0.43305965  0.59205329  1
  N  N56  1  0.90646437  0.55628147  0.32992158  1
  N  N57  1  0.78124267  0.42859112  0.11187564  1
  N  N58  1  0.56159719  0.53616303  0.86736108  1
  N  N59  1  0.41738326  0.40811456  0.59665853  1
  N  N60  1  0.22218607  0.87506871  0.33556221  1
  N  N61  1  0.11257689  0.76166638  0.08931882  1
  N  N62  1  0.89517704  0.86661891  0.83369293  1
  N  N63  1  0.78021586  0.76005647  0.59352366  1
  N  N64  1  0.55677385  0.87217418  0.36989331  1
  N  N65  1  0.42518948  0.75709300  0.07222552  1
  N  N66  1  0.21998955  0.86808691  0.83384326  1
  N  N67  1  0.11250784  0.75997050  0.58507425  1
  N  N68  1  0.88760710  0.87246494  0.33935082  1
  N  N69  1  0.80609721  0.75588045  0.07620318  1
  N  N70  1  0.56005630  0.86912829  0.84075214  1
  N  N71  1  0.41990519  0.80415332  0.59460559  1
