# generated using pymatgen
data_Gd5Al31N36
_symmetry_space_group_name_H-M   'P 1'
_cell_length_a   9.59721921
_cell_length_b   9.62920425
_cell_length_c   10.75792947
_cell_angle_alpha   90.00247762
_cell_angle_beta   89.59516006
_cell_angle_gamma   59.88147161
_symmetry_Int_Tables_number   1
_chemical_formula_structural   Gd5Al31N36
_chemical_formula_sum   'Gd5 Al31 N36'
_cell_volume   859.92506930
_cell_formula_units_Z   1
loop_
 _symmetry_equiv_pos_site_id
 _symmetry_equiv_pos_as_xyz
  1  'x, y, z'
loop_
 _atom_site_type_symbol
 _atom_site_label
 _atom_site_symmetry_multiplicity
 _atom_site_fract_x
 _atom_site_fract_y
 _atom_site_fract_z
 _atom_site_occupancy
  Al  Al0  1  0.12182465  0.08136614  0.39904111  1
  Al  Al1  1  0.77864438  0.08959964  0.79736074  1
  Al  Al2  1  0.88988309  0.20017372  0.56689617  1
  Al  Al3  1  0.44805663  0.09263841  0.32983065  1
  Al  Al4  1  0.11843982  0.08735116  0.86635535  1
  Al  Al5  1  0.21413356  0.20959567  0.62068572  1
  Al  Al6  1  0.78740387  0.08756166  0.31345061  1
  Al  Al7  1  0.88844015  0.19634798  0.03826396  1
  Al  Al8  1  0.44905484  0.09214273  0.78459215  1
  Al  Al9  1  0.55465687  0.20309809  0.55592982  1
  Al  Al10  1  0.12182948  0.43014608  0.39904158  1
  Al  Al11  1  0.21035473  0.54958082  0.12477638  1
  Al  Al12  1  0.78542414  0.42395789  0.80825890  1
  Al  Al13  1  0.88988252  0.54327058  0.56689349  1
  Al  Al14  1  0.44096842  0.42881846  0.30086294  1
  Al  Al15  1  0.54962162  0.54185215  0.04421984  1
  Al  Al16  1  0.11844130  0.42754684  0.86635434  1
  Al  Al17  1  0.21024124  0.54622656  0.63346525  1
  Al  Al18  1  0.88844453  0.54854041  0.03826405  1
  Al  Al19  1  0.44648095  0.42269496  0.79835225  1
  Al  Al20  1  0.11466901  0.75933502  0.36558703  1
  Al  Al21  1  0.21034920  0.87339206  0.12477928  1
  Al  Al22  1  0.77864489  0.76509377  0.79736250  1
  Al  Al23  1  0.88740258  0.87296295  0.55273068  1
  Al  Al24  1  0.44096299  0.76354928  0.30086318  1
  Al  Al25  1  0.11386257  0.75974024  0.87747184  1
  Al  Al26  1  0.21024554  0.87685827  0.63346273  1
  Al  Al27  1  0.78740939  0.75837131  0.31344792  1
  Al  Al28  1  0.89478596  0.86927122  0.06453699  1
  Al  Al29  1  0.44648483  0.76416283  0.79835131  1
  Al  Al30  1  0.55466084  0.87556760  0.55592840  1
  Gd  Gd31  1  0.17933122  0.22700034  0.14874793  1
  Gd  Gd32  1  0.55675584  0.20499503  0.05313427  1
  Gd  Gd33  1  0.78550580  0.42391862  0.29483143  1
  Gd  Gd34  1  0.55476688  0.53927000  0.55753121  1
  Gd  Gd35  1  0.55675294  0.87155858  0.05313746  1
  N  N36  1  0.21740070  0.20795778  0.36100344  1
  N  N37  1  0.11500114  0.07119491  0.04312554  1
  N  N38  1  0.88095296  0.20284773  0.85908116  1
  N  N39  1  0.77920912  0.08946687  0.61745025  1
  N  N40  1  0.55811671  0.20992799  0.37071371  1
  N  N41  1  0.43850155  0.09742077  0.15419596  1
  N  N42  1  0.21586170  0.20872907  0.80611593  1
  N  N43  1  0.11706848  0.08643767  0.57608200  1
  N  N44  1  0.89363344  0.18632127  0.38690636  1
  N  N45  1  0.80925428  0.08151741  0.13289734  1
  N  N46  1  0.55330602  0.20261886  0.84215259  1
  N  N47  1  0.44757629  0.09288430  0.60489667  1
  N  N48  1  0.20989940  0.53963429  0.30956281  1
  N  N49  1  0.11500535  0.44713906  0.04312402  1
  N  N50  1  0.88095313  0.54952501  0.85908536  1
  N  N51  1  0.81078562  0.41128301  0.63024854  1
  N  N52  1  0.52855797  0.55238157  0.35310937  1
  N  N53  1  0.43930058  0.44832880  0.12112954  1
  N  N54  1  0.21438090  0.54788284  0.81281659  1
  N  N55  1  0.11706792  0.42983539  0.57608509  1
  N  N56  1  0.89364421  0.55336744  0.38690066  1
  N  N57  1  0.78705207  0.42315051  0.08095442  1
  N  N58  1  0.55175053  0.54078944  0.85809018  1
  N  N59  1  0.43554785  0.41091382  0.62280413  1
  N  N60  1  0.20989284  0.88378931  0.30956486  1
  N  N61  1  0.11807734  0.75763039  0.06617646  1
  N  N62  1  0.87772097  0.87780468  0.87460669  1
  N  N63  1  0.77921141  0.76467205  0.61745099  1
  N  N64  1  0.55812153  0.86527303  0.37071060  1
  N  N65  1  0.43929394  0.74571510  0.12113280  1
  N  N66  1  0.21438616  0.87105392  0.81281253  1
  N  N67  1  0.11828887  0.75752601  0.56555523  1
  N  N68  1  0.88423531  0.87454550  0.37170231  1
  N  N69  1  0.80925588  0.74258150  0.13289577  1
  N  N70  1  0.55330650  0.87740421  0.84215534  1
  N  N71  1  0.43555410  0.78688012  0.62280253  1
