# generated using pymatgen
data_Gd5Al31N36
_symmetry_space_group_name_H-M   'P 1'
_cell_length_a   9.68418410
_cell_length_b   9.70615442
_cell_length_c   10.56605630
_cell_angle_alpha   90.05832620
_cell_angle_beta   89.30598609
_cell_angle_gamma   59.90478679
_symmetry_Int_Tables_number   1
_chemical_formula_structural   Gd5Al31N36
_chemical_formula_sum   'Gd5 Al31 N36'
_cell_volume   859.19127350
_cell_formula_units_Z   1
loop_
 _symmetry_equiv_pos_site_id
 _symmetry_equiv_pos_as_xyz
  1  'x, y, z'
loop_
 _atom_site_type_symbol
 _atom_site_label
 _atom_site_symmetry_multiplicity
 _atom_site_fract_x
 _atom_site_fract_y
 _atom_site_fract_z
 _atom_site_occupancy
  Al  Al0  1  0.12314180  0.08084927  0.39828647  1
  Al  Al1  1  0.77487597  0.09218275  0.79935773  1
  Al  Al2  1  0.88801461  0.20129917  0.56466635  1
  Al  Al3  1  0.44892627  0.09304086  0.32787765  1
  Al  Al4  1  0.11688212  0.08819274  0.86293882  1
  Al  Al5  1  0.21497161  0.20930729  0.61691252  1
  Al  Al6  1  0.79610268  0.08093890  0.31301764  1
  Al  Al7  1  0.88973643  0.19402556  0.03979835  1
  Al  Al8  1  0.44637489  0.09284956  0.79127342  1
  Al  Al9  1  0.55897491  0.19442005  0.55505813  1
  Al  Al10  1  0.12341345  0.42941981  0.39836293  1
  Al  Al11  1  0.21770164  0.54724354  0.12033870  1
  Al  Al12  1  0.79305814  0.42021589  0.80540334  1
  Al  Al13  1  0.88841762  0.54444437  0.56510872  1
  Al  Al14  1  0.43262613  0.42826717  0.38044825  1
  Al  Al15  1  0.56043633  0.53550305  0.03445118  1
  Al  Al16  1  0.11720101  0.42792839  0.86293919  1
  Al  Al17  1  0.21412792  0.54139622  0.62783725  1
  Al  Al18  1  0.89034477  0.54880764  0.03961607  1
  Al  Al19  1  0.43213664  0.43150147  0.86381839  1
  Al  Al20  1  0.12340882  0.75502951  0.37491324  1
  Al  Al21  1  0.21636753  0.86784283  0.12034839  1
  Al  Al22  1  0.77397857  0.76690141  0.80053836  1
  Al  Al23  1  0.88839428  0.87258367  0.55484458  1
  Al  Al24  1  0.43198085  0.77310295  0.37931084  1
  Al  Al25  1  0.11413744  0.75954306  0.87619100  1
  Al  Al26  1  0.21389323  0.87879999  0.62758609  1
  Al  Al27  1  0.79750340  0.75580252  0.31285033  1
  Al  Al28  1  0.89923516  0.86681765  0.06278196  1
  Al  Al29  1  0.43176924  0.76992059  0.86596592  1
  Al  Al30  1  0.55894877  0.88098073  0.55291487  1
  Gd  Gd31  1  0.16965979  0.23143136  0.15006230  1
  Gd  Gd32  1  0.56080230  0.19934965  0.06715831  1
  Gd  Gd33  1  0.77364320  0.43003672  0.30489564  1
  Gd  Gd34  1  0.54252891  0.54693074  0.60394266  1
  Gd  Gd35  1  0.55996063  0.87014571  0.07290928  1
  N  N36  1  0.22214763  0.20562398  0.36753968  1
  N  N37  1  0.11306098  0.07061570  0.04296959  1
  N  N38  1  0.88136588  0.20278920  0.85729630  1
  N  N39  1  0.77800837  0.09060042  0.61712594  1
  N  N40  1  0.56949174  0.19640428  0.36504665  1
  N  N41  1  0.42383818  0.10511206  0.15223935  1
  N  N42  1  0.21439138  0.20925567  0.80650557  1
  N  N43  1  0.11089324  0.09073255  0.57925508  1
  N  N44  1  0.89908858  0.18324886  0.38209254  1
  N  N45  1  0.81602445  0.07568438  0.13186584  1
  N  N46  1  0.55083687  0.20471483  0.84591532  1
  N  N47  1  0.44889433  0.09226251  0.60933445  1
  N  N48  1  0.22170398  0.53464390  0.30925233  1
  N  N49  1  0.11365539  0.44829122  0.04306496  1
  N  N50  1  0.88165367  0.54913540  0.85726598  1
  N  N51  1  0.80930417  0.41238542  0.62336855  1
  N  N52  1  0.52572485  0.55405017  0.36855663  1
  N  N53  1  0.42545723  0.45435867  0.04875180  1
  N  N54  1  0.21826046  0.54631832  0.80738777  1
  N  N55  1  0.11151864  0.43202084  0.57933364  1
  N  N56  1  0.89938677  0.55118270  0.38248775  1
  N  N57  1  0.78396095  0.42472987  0.08330982  1
  N  N58  1  0.55935705  0.53710399  0.83990791  1
  N  N59  1  0.41980205  0.41266081  0.56178791  1
  N  N60  1  0.22098965  0.87736709  0.30876792  1
  N  N61  1  0.11933572  0.75625054  0.06029725  1
  N  N62  1  0.87844358  0.87769359  0.87115173  1
  N  N63  1  0.77699755  0.76564542  0.61753998  1
  N  N64  1  0.56967754  0.86763628  0.36269580  1
  N  N65  1  0.42410041  0.75150044  0.04954088  1
  N  N66  1  0.21869361  0.86846567  0.80724581  1
  N  N67  1  0.12146526  0.75618594  0.56237139  1
  N  N68  1  0.89375021  0.86999798  0.37245399  1
  N  N69  1  0.81727424  0.74061700  0.13184931  1
  N  N70  1  0.55076444  0.87823445  0.85008693  1
  N  N71  1  0.41862487  0.80360080  0.55993506  1
