# generated using pymatgen
data_Gd5Al31N36
_symmetry_space_group_name_H-M   'P 1'
_cell_length_a   9.68456999
_cell_length_b   9.70649977
_cell_length_c   10.55873498
_cell_angle_alpha   90.00000697
_cell_angle_beta   89.20109923
_cell_angle_gamma   59.92505546
_symmetry_Int_Tables_number   1
_chemical_formula_structural   Gd5Al31N36
_chemical_formula_sum   'Gd5 Al31 N36'
_cell_volume   858.81705611
_cell_formula_units_Z   1
loop_
 _symmetry_equiv_pos_site_id
 _symmetry_equiv_pos_as_xyz
  1  'x, y, z'
loop_
 _atom_site_type_symbol
 _atom_site_label
 _atom_site_symmetry_multiplicity
 _atom_site_fract_x
 _atom_site_fract_y
 _atom_site_fract_z
 _atom_site_occupancy
  Al  Al0  1  0.12365676  0.08030976  0.41767677  1
  Al  Al1  1  0.77397850  0.09257474  0.81894729  1
  Al  Al2  1  0.88783300  0.20106986  0.58382805  1
  Al  Al3  1  0.44888058  0.09222596  0.34671450  1
  Al  Al4  1  0.11691224  0.08849550  0.88149337  1
  Al  Al5  1  0.21534357  0.20899446  0.63542291  1
  Al  Al6  1  0.79758193  0.08002869  0.33152718  1
  Al  Al7  1  0.88970775  0.19442747  0.05836410  1
  Al  Al8  1  0.44635840  0.09348705  0.81059439  1
  Al  Al9  1  0.55902849  0.19386595  0.57236732  1
  Al  Al10  1  0.12365677  0.42936597  0.41767679  1
  Al  Al11  1  0.21622779  0.54847699  0.13904944  1
  Al  Al12  1  0.79240031  0.42046612  0.82403655  1
  Al  Al13  1  0.88783300  0.54442967  0.58382806  1
  Al  Al14  1  0.43244959  0.42818245  0.39809393  1
  Al  Al15  1  0.56000068  0.53666591  0.05408509  1
  Al  Al16  1  0.11691227  0.42792477  0.88149334  1
  Al  Al17  1  0.21395762  0.54087993  0.64662315  1
  Al  Al18  1  0.88970784  0.54919732  0.05836408  1
  Al  Al19  1  0.43177145  0.43153775  0.88459446  1
  Al  Al20  1  0.12376877  0.75478185  0.39382793  1
  Al  Al21  1  0.21622774  0.86862778  0.13904945  1
  Al  Al22  1  0.77397851  0.76677934  0.81894731  1
  Al  Al23  1  0.88838077  0.87247590  0.57385743  1
  Al  Al24  1  0.43244958  0.77270041  0.39809391  1
  Al  Al25  1  0.11412345  0.75960456  0.89464029  1
  Al  Al26  1  0.21395764  0.87849496  0.64662314  1
  Al  Al27  1  0.79758198  0.75572189  0.33152718  1
  Al  Al28  1  0.89897840  0.86717708  0.08100756  1
  Al  Al29  1  0.43177146  0.77002335  0.88459449  1
  Al  Al30  1  0.55902849  0.88043804  0.57236729  1
  Gd  Gd31  1  0.16832732  0.23250261  0.16978635  1
  Gd  Gd32  1  0.55990621  0.20172569  0.09016233  1
  Gd  Gd33  1  0.77389710  0.42971772  0.32436010  1
  Gd  Gd34  1  0.54112926  0.54610162  0.62321637  1
  Gd  Gd35  1  0.55990623  0.87170051  0.09016244  1
  N  N36  1  0.22267589  0.20532829  0.38765787  1
  N  N37  1  0.11299556  0.07157599  0.06177670  1
  N  N38  1  0.88129971  0.20293514  0.87584995  1
  N  N39  1  0.77711630  0.09085260  0.63612045  1
  N  N40  1  0.57000794  0.19599362  0.38194168  1
  N  N41  1  0.42241301  0.10545976  0.17116267  1
  N  N42  1  0.21447178  0.20943036  0.82512280  1
  N  N43  1  0.11071908  0.09051552  0.59869917  1
  N  N44  1  0.89983871  0.18258430  0.40104179  1
  N  N45  1  0.81675781  0.07541440  0.15039377  1
  N  N46  1  0.55064799  0.20451389  0.86777581  1
  N  N47  1  0.44931138  0.09201056  0.62829084  1
  N  N48  1  0.22137307  0.53471508  0.32774785  1
  N  N49  1  0.11299564  0.44876094  0.06177668  1
  N  N50  1  0.88129973  0.54909770  0.87584995  1
  N  N51  1  0.80792788  0.41270234  0.64165228  1
  N  N52  1  0.52559691  0.55386775  0.38689352  1
  N  N53  1  0.42426870  0.45636525  0.06854327  1
  N  N54  1  0.21875922  0.54601553  0.82624891  1
  N  N55  1  0.11071907  0.43209792  0.59869919  1
  N  N56  1  0.89983873  0.55090950  0.40104179  1
  N  N57  1  0.78353840  0.42489711  0.10259730  1
  N  N58  1  0.55904171  0.53714542  0.85921196  1
  N  N59  1  0.41890578  0.41175484  0.57899319  1
  N  N60  1  0.22137306  0.87724433  0.32774785  1
  N  N61  1  0.11899077  0.75717089  0.07882549  1
  N  N62  1  0.87851388  0.87740936  0.88950688  1
  N  N63  1  0.77711628  0.76536368  0.63612045  1
  N  N64  1  0.57000794  0.86733088  0.38194164  1
  N  N65  1  0.42426864  0.75269859  0.06854328  1
  N  N66  1  0.21875923  0.86855778  0.82624891  1
  N  N67  1  0.12154767  0.75589243  0.58143123  1
  N  N68  1  0.89423349  0.86954952  0.39130954  1
  N  N69  1  0.81675788  0.74116035  0.15039377  1
  N  N70  1  0.55064801  0.87817065  0.86777590  1
  N  N71  1  0.41890579  0.80267189  0.57899318  1
