# generated using pymatgen
data_Gd5Al31N36
_symmetry_space_group_name_H-M   'P 1'
_cell_length_a   9.74188197
_cell_length_b   9.75971314
_cell_length_c   10.42243434
_cell_angle_alpha   90.00154773
_cell_angle_beta   89.06708065
_cell_angle_gamma   59.93308265
_symmetry_Int_Tables_number   1
_chemical_formula_structural   Gd5Al31N36
_chemical_formula_sum   'Gd5 Al31 N36'
_cell_volume   857.45132551
_cell_formula_units_Z   1
loop_
 _symmetry_equiv_pos_site_id
 _symmetry_equiv_pos_as_xyz
  1  'x, y, z'
loop_
 _atom_site_type_symbol
 _atom_site_label
 _atom_site_symmetry_multiplicity
 _atom_site_fract_x
 _atom_site_fract_y
 _atom_site_fract_z
 _atom_site_occupancy
  Al  Al0  1  0.12250231  0.08135487  0.42379720  1
  Al  Al1  1  0.77246279  0.09263038  0.82960079  1
  Al  Al2  1  0.89034211  0.19992579  0.59461410  1
  Al  Al3  1  0.44321165  0.09506032  0.37222274  1
  Al  Al4  1  0.11612610  0.08674184  0.88715787  1
  Al  Al5  1  0.22291685  0.20520550  0.64411961  1
  Al  Al6  1  0.80243757  0.07752369  0.33932584  1
  Al  Al7  1  0.88830743  0.19468791  0.06522435  1
  Al  Al8  1  0.44498830  0.09417294  0.85054718  1
  Al  Al9  1  0.56165911  0.19514484  0.57898425  1
  Al  Al10  1  0.12250623  0.42947858  0.42379803  1
  Al  Al11  1  0.21145169  0.55202542  0.14559919  1
  Al  Al12  1  0.79121946  0.42105951  0.83299781  1
  Al  Al13  1  0.89034401  0.54306123  0.59461298  1
  Al  Al14  1  0.43120340  0.43156228  0.40442581  1
  Al  Al15  1  0.55540248  0.53896157  0.06402664  1
  Al  Al16  1  0.11612807  0.43046855  0.88715631  1
  Al  Al17  1  0.21621246  0.53941499  0.65355385  1
  Al  Al18  1  0.88831003  0.55033907  0.06522275  1
  Al  Al19  1  0.43243300  0.42945759  0.89625680  1
  Al  Al20  1  0.12267900  0.75532912  0.40203597  1
  Al  Al21  1  0.21144921  0.86985310  0.14560028  1
  Al  Al22  1  0.77246297  0.76824282  0.82960140  1
  Al  Al23  1  0.88860116  0.87236456  0.58507055  1
  Al  Al24  1  0.43120212  0.77056648  0.40442480  1
  Al  Al25  1  0.11597402  0.75868250  0.90057738  1
  Al  Al26  1  0.21621278  0.87770388  0.65355230  1
  Al  Al27  1  0.80244057  0.75337477  0.33932437  1
  Al  Al28  1  0.89693223  0.86819998  0.08503831  1
  Al  Al29  1  0.43243265  0.77144480  0.89625842  1
  Al  Al30  1  0.56166075  0.87651953  0.57898272  1
  Gd  Gd31  1  0.16964325  0.23184554  0.17012967  1
  Gd  Gd32  1  0.55743348  0.21268243  0.12405645  1
  Gd  Gd33  1  0.77655296  0.42839478  0.33500920  1
  Gd  Gd34  1  0.54210834  0.54560721  0.63313321  1
  Gd  Gd35  1  0.55743363  0.86320150  0.12405752  1
  N  N36  1  0.21608615  0.20861761  0.38858993  1
  N  N37  1  0.10907823  0.07140056  0.06858650  1
  N  N38  1  0.88196454  0.20300739  0.88058857  1
  N  N39  1  0.77650022  0.09171959  0.64412702  1
  N  N40  1  0.56975232  0.19999616  0.38034462  1
  N  N41  1  0.41908550  0.10712667  0.16756198  1
  N  N42  1  0.21971423  0.20680527  0.83598509  1
  N  N43  1  0.11349059  0.09051441  0.60799727  1
  N  N44  1  0.90091349  0.18101990  0.40965715  1
  N  N45  1  0.82014539  0.07257480  0.15667024  1
  N  N46  1  0.55289812  0.20372677  0.88376440  1
  N  N47  1  0.44765968  0.09284063  0.60679557  1
  N  N48  1  0.22001114  0.53612539  0.33650288  1
  N  N49  1  0.10908225  0.45285883  0.06858473  1
  N  N50  1  0.88196627  0.54835441  0.88059032  1
  N  N51  1  0.80770696  0.41282023  0.64763792  1
  N  N52  1  0.52632820  0.55349377  0.39125731  1
  N  N53  1  0.41872018  0.46163794  0.07774803  1
  N  N54  1  0.22138744  0.54450898  0.83424101  1
  N  N55  1  0.11349281  0.42933564  0.60799915  1
  N  N56  1  0.90091921  0.55139147  0.40965366  1
  N  N57  1  0.78019848  0.42657547  0.11012852  1
  N  N58  1  0.55929113  0.53701596  0.86796464  1
  N  N59  1  0.42134688  0.41145888  0.58659464  1
  N  N60  1  0.22000891  0.87718991  0.33650383  1
  N  N61  1  0.11546657  0.75893668  0.08620045  1
  N  N62  1  0.88142234  0.87595294  0.89335550  1
  N  N63  1  0.77650253  0.76512312  0.64412701  1
  N  N64  1  0.56975345  0.86356801  0.38034468  1
  N  N65  1  0.41871371  0.75298559  0.07774789  1
  N  N66  1  0.22138931  0.86742781  0.83423901  1
  N  N67  1  0.12182460  0.75575825  0.59081752  1
  N  N68  1  0.89402075  0.86965344  0.40044673  1
  N  N69  1  0.82014500  0.74063088  0.15666912  1
  N  N70  1  0.55289841  0.87669677  0.88376714  1
  N  N71  1  0.42135017  0.80053316  0.58659499  1
