# generated using pymatgen
data_Gd5Al31N36
_symmetry_space_group_name_H-M   'P 1'
_cell_length_a   9.69663683
_cell_length_b   9.71474089
_cell_length_c   10.52642069
_cell_angle_alpha   90.00140984
_cell_angle_beta   89.18218566
_cell_angle_gamma   59.93745287
_symmetry_Int_Tables_number   1
_chemical_formula_structural   Gd5Al31N36
_chemical_formula_sum   'Gd5 Al31 N36'
_cell_volume   858.08531985
_cell_formula_units_Z   1
loop_
 _symmetry_equiv_pos_site_id
 _symmetry_equiv_pos_as_xyz
  1  'x, y, z'
loop_
 _atom_site_type_symbol
 _atom_site_label
 _atom_site_symmetry_multiplicity
 _atom_site_fract_x
 _atom_site_fract_y
 _atom_site_fract_z
 _atom_site_occupancy
  Al  Al0  1  0.12353577  0.08018020  0.42616739  1
  Al  Al1  1  0.77379065  0.09260727  0.82772575  1
  Al  Al2  1  0.88804181  0.20083625  0.59273203  1
  Al  Al3  1  0.44793929  0.09269197  0.35532452  1
  Al  Al4  1  0.11705270  0.08841013  0.88935854  1
  Al  Al5  1  0.21610483  0.20861287  0.64357833  1
  Al  Al6  1  0.79815357  0.07962768  0.33972558  1
  Al  Al7  1  0.88935608  0.19452927  0.06641148  1
  Al  Al8  1  0.44692750  0.09319936  0.82009775  1
  Al  Al9  1  0.55924999  0.19386707  0.58039000  1
  Al  Al10  1  0.12354141  0.42961268  0.42616987  1
  Al  Al11  1  0.21521111  0.54912154  0.14732791  1
  Al  Al12  1  0.79213956  0.42059974  0.83250646  1
  Al  Al13  1  0.88804386  0.54445689  0.59273169  1
  Al  Al14  1  0.43224914  0.42856648  0.40578623  1
  Al  Al15  1  0.55919096  0.53706987  0.06351517  1
  Al  Al16  1  0.11705495  0.42787176  0.88935558  1
  Al  Al17  1  0.21444169  0.54063907  0.65494899  1
  Al  Al18  1  0.88936254  0.54945425  0.06641049  1
  Al  Al19  1  0.43213107  0.43106483  0.89372150  1
  Al  Al20  1  0.12344625  0.75494185  0.40232523  1
  Al  Al21  1  0.21520528  0.86900536  0.14732995  1
  Al  Al22  1  0.77378998  0.76693975  0.82772857  1
  Al  Al23  1  0.88834742  0.87249445  0.58284566  1
  Al  Al24  1  0.43224692  0.77250763  0.40578584  1
  Al  Al25  1  0.11470908  0.75931406  0.90250811  1
  Al  Al26  1  0.21444196  0.87825433  0.65494752  1
  Al  Al27  1  0.79816084  0.75554852  0.33972386  1
  Al  Al28  1  0.89860818  0.86736698  0.08832917  1
  Al  Al29  1  0.43212878  0.77013698  0.89372478  1
  Al  Al30  1  0.55925272  0.88020974  0.58038569  1
  Gd  Gd31  1  0.16722449  0.23305869  0.17787635  1
  Gd  Gd32  1  0.55906792  0.20290236  0.10142659  1
  Gd  Gd33  1  0.77427337  0.42953052  0.33347436  1
  Gd  Gd34  1  0.54096185  0.54618427  0.63179488  1
  Gd  Gd35  1  0.55906904  0.87134644  0.10144103  1
  N  N36  1  0.22227578  0.20552473  0.39670952  1
  N  N37  1  0.11224107  0.07180522  0.07014827  1
  N  N38  1  0.88158907  0.20290866  0.88345160  1
  N  N39  1  0.77679447  0.09107746  0.64435070  1
  N  N40  1  0.56984769  0.19620507  0.38902218  1
  N  N41  1  0.42069398  0.10631738  0.17937404  1
  N  N42  1  0.21523431  0.20904744  0.83384737  1
  N  N43  1  0.11079111  0.09042936  0.60771656  1
  N  N44  1  0.90021001  0.18211809  0.40929951  1
  N  N45  1  0.81683019  0.07511609  0.15816297  1
  N  N46  1  0.55117152  0.20410739  0.87769338  1
  N  N47  1  0.44997379  0.09167797  0.63661883  1
  N  N48  1  0.22097194  0.53504693  0.33635306  1
  N  N49  1  0.11224757  0.44928753  0.07014431  1
  N  N50  1  0.88159097  0.54883922  0.88345151  1
  N  N51  1  0.80746426  0.41293878  0.64932716  1
  N  N52  1  0.52546044  0.55392969  0.39420963  1
  N  N53  1  0.42342845  0.45709112  0.07775030  1
  N  N54  1  0.21959634  0.54551068  0.83484427  1
  N  N55  1  0.11079278  0.43211275  0.60771874  1
  N  N56  1  0.90021700  0.55100185  0.40929727  1
  N  N57  1  0.78311321  0.42511893  0.11103173  1
  N  N58  1  0.55912673  0.53710102  0.86800427  1
  N  N59  1  0.41919644  0.41157692  0.58708897  1
  N  N60  1  0.22096927  0.87730789  0.33635449  1
  N  N61  1  0.11831303  0.75751104  0.08712127  1
  N  N62  1  0.87941528  0.87696198  0.89680064  1
  N  N63  1  0.77679533  0.76546760  0.64435125  1
  N  N64  1  0.56984931  0.86726436  0.38901626  1
  N  N65  1  0.42341890  0.75281324  0.07774967  1
  N  N66  1  0.21959571  0.86822629  0.83484323  1
  N  N67  1  0.12151236  0.75591095  0.59025582  1
  N  N68  1  0.89423140  0.86955159  0.39977434  1
  N  N69  1  0.81683708  0.74139790  0.15816225  1
  N  N70  1  0.55117159  0.87805118  0.87770293  1
  N  N71  1  0.41919852  0.80255769  0.58708860  1
