# generated using pymatgen
data_Gd5Al31N36
_symmetry_space_group_name_H-M   'P 1'
_cell_length_a   9.69526353
_cell_length_b   9.67537816
_cell_length_c   10.55555380
_cell_angle_alpha   89.23197778
_cell_angle_beta   89.12562401
_cell_angle_gamma   60.11719753
_symmetry_Int_Tables_number   1
_chemical_formula_structural   Gd5Al31N36
_chemical_formula_sum   'Gd5 Al31 N36'
_cell_volume   858.40176061
_cell_formula_units_Z   1
loop_
 _symmetry_equiv_pos_site_id
 _symmetry_equiv_pos_as_xyz
  1  'x, y, z'
loop_
 _atom_site_type_symbol
 _atom_site_label
 _atom_site_symmetry_multiplicity
 _atom_site_fract_x
 _atom_site_fract_y
 _atom_site_fract_z
 _atom_site_occupancy
  Al  Al0  1  0.11915198  0.08482979  0.39020129  1
  Al  Al1  1  0.77430867  0.08929170  0.79919392  1
  Al  Al2  1  0.89288947  0.20033564  0.56846467  1
  Al  Al3  1  0.44601811  0.09702008  0.32523185  1
  Al  Al4  1  0.11112773  0.08027997  0.86461720  1
  Al  Al5  1  0.22503703  0.20891774  0.56320985  1
  Al  Al6  1  0.78819288  0.08839837  0.31663919  1
  Al  Al7  1  0.88769808  0.19867934  0.04404302  1
  Al  Al8  1  0.44175272  0.09181613  0.78441510  1
  Al  Al9  1  0.55794241  0.20178884  0.55569436  1
  Al  Al10  1  0.10869024  0.43521575  0.32727056  1
  Al  Al11  1  0.21103385  0.55092930  0.12530880  1
  Al  Al12  1  0.78344408  0.42205622  0.81615208  1
  Al  Al13  1  0.89585593  0.53926294  0.56553875  1
  Al  Al14  1  0.44306389  0.43286551  0.31236621  1
  Al  Al15  1  0.54131695  0.54642211  0.04543902  1
  Al  Al16  1  0.10854806  0.42487895  0.79573768  1
  Al  Al17  1  0.21699709  0.54036168  0.58086211  1
  Al  Al18  1  0.89156013  0.54727098  0.04996078  1
  Al  Al19  1  0.43423246  0.42253628  0.80020343  1
  Al  Al20  1  0.10356495  0.76887890  0.31932000  1
  Al  Al21  1  0.21189315  0.87875762  0.13137300  1
  Al  Al22  1  0.77821516  0.76138494  0.80005615  1
  Al  Al23  1  0.88854434  0.87204168  0.55801966  1
  Al  Al24  1  0.44332691  0.76332380  0.30595283  1
  Al  Al25  1  0.10391458  0.75342823  0.80960983  1
  Al  Al26  1  0.21380651  0.88172709  0.63136398  1
  Al  Al27  1  0.78634475  0.76272487  0.31617271  1
  Al  Al28  1  0.90117600  0.86740179  0.06439511  1
  Al  Al29  1  0.44385934  0.76328503  0.80054614  1
  Al  Al30  1  0.55707228  0.87444988  0.55610906  1
  Gd  Gd31  1  0.21928826  0.22118712  0.05654205  1
  Gd  Gd32  1  0.56805896  0.20878862  0.05844141  1
  Gd  Gd33  1  0.79135824  0.42427380  0.29320995  1
  Gd  Gd34  1  0.56125778  0.53726733  0.56547655  1
  Gd  Gd35  1  0.56196058  0.86788425  0.05518107  1
  N  N36  1  0.22220540  0.21273268  0.37496081  1
  N  N37  1  0.10771194  0.07351787  0.05010872  1
  N  N38  1  0.87827205  0.19930792  0.86135302  1
  N  N39  1  0.77829621  0.09101426  0.61751843  1
  N  N40  1  0.56163326  0.20879789  0.36926193  1
  N  N41  1  0.44716197  0.09692060  0.14942520  1
  N  N42  1  0.22037435  0.20026429  0.83599591  1
  N  N43  1  0.11746072  0.08899598  0.57385012  1
  N  N44  1  0.89470894  0.18738299  0.38522685  1
  N  N45  1  0.81263525  0.07924330  0.13478762  1
  N  N46  1  0.55069492  0.19867395  0.84333385  1
  N  N47  1  0.44752122  0.09309007  0.60243153  1
  N  N48  1  0.22224730  0.54429169  0.35579342  1
  N  N49  1  0.08435882  0.45634188  0.14369777  1
  N  N50  1  0.89098056  0.54136833  0.86577537  1
  N  N51  1  0.81379720  0.40952539  0.63346453  1
  N  N52  1  0.53956685  0.55043388  0.35635491  1
  N  N53  1  0.43025299  0.45281690  0.12824198  1
  N  N54  1  0.21620195  0.53367656  0.84184956  1
  N  N55  1  0.11068643  0.42718200  0.61405788  1
  N  N56  1  0.89765097  0.55479074  0.38779294  1
  N  N57  1  0.77445670  0.42812414  0.07664113  1
  N  N58  1  0.54807300  0.53839079  0.85545665  1
  N  N59  1  0.43198211  0.41147035  0.61887623  1
  N  N60  1  0.21744787  0.88398698  0.31868199  1
  N  N61  1  0.10393659  0.76591891  0.13031705  1
  N  N62  1  0.88358208  0.87206880  0.87305011  1
  N  N63  1  0.77876581  0.76175042  0.61792275  1
  N  N64  1  0.55970239  0.86818608  0.36896560  1
  N  N65  1  0.43482776  0.74859497  0.12098277  1
  N  N66  1  0.21643203  0.86810455  0.81559472  1
  N  N67  1  0.10372077  0.76245954  0.61652047  1
  N  N68  1  0.88807891  0.87443786  0.37666074  1
  N  N69  1  0.80480085  0.74961381  0.13199737  1
  N  N70  1  0.55442172  0.87304208  0.84081989  1
  N  N71  1  0.43477877  0.78755635  0.62011121  1
