# generated using pymatgen
data_Gd5Al31N36
_symmetry_space_group_name_H-M   'P 1'
_cell_length_a   9.72918176
_cell_length_b   9.74383565
_cell_length_c   10.44546021
_cell_angle_alpha   90.00285144
_cell_angle_beta   89.11396526
_cell_angle_gamma   59.93495164
_symmetry_Int_Tables_number   1
_chemical_formula_structural   Gd5Al31N36
_chemical_formula_sum   'Gd5 Al31 N36'
_cell_volume   856.86001661
_cell_formula_units_Z   1
loop_
 _symmetry_equiv_pos_site_id
 _symmetry_equiv_pos_as_xyz
  1  'x, y, z'
loop_
 _atom_site_type_symbol
 _atom_site_label
 _atom_site_symmetry_multiplicity
 _atom_site_fract_x
 _atom_site_fract_y
 _atom_site_fract_z
 _atom_site_occupancy
  Al  Al0  1  0.12281117  0.08066907  0.42490441  1
  Al  Al1  1  0.77267493  0.09285877  0.82904974  1
  Al  Al2  1  0.88932785  0.20006660  0.59418614  1
  Al  Al3  1  0.44504995  0.09413793  0.35739890  1
  Al  Al4  1  0.11685922  0.08772031  0.88753114  1
  Al  Al5  1  0.21864712  0.20733598  0.64381007  1
  Al  Al6  1  0.80056903  0.07829103  0.33955384  1
  Al  Al7  1  0.88880121  0.19465232  0.06549743  1
  Al  Al8  1  0.44809639  0.09261726  0.82567235  1
  Al  Al9  1  0.56026513  0.19414201  0.57908218  1
  Al  Al10  1  0.12282586  0.42985707  0.42490665  1
  Al  Al11  1  0.21253999  0.55122743  0.14643449  1
  Al  Al12  1  0.79154440  0.42090307  0.83292765  1
  Al  Al13  1  0.88933507  0.54393182  0.59418219  1
  Al  Al14  1  0.43155194  0.43037051  0.40446264  1
  Al  Al15  1  0.55664257  0.53833526  0.06450855  1
  Al  Al16  1  0.11686705  0.42875989  0.88752681  1
  Al  Al17  1  0.21584290  0.53984182  0.65406264  1
  Al  Al18  1  0.88881149  0.54988865  0.06549292  1
  Al  Al19  1  0.43258486  0.42953579  0.89541810  1
  Al  Al20  1  0.12271653  0.75531323  0.40227680  1
  Al  Al21  1  0.21253034  0.86956138  0.14643659  1
  Al  Al22  1  0.77267628  0.76780866  0.82905217  1
  Al  Al23  1  0.88843441  0.87244834  0.58458969  1
  Al  Al24  1  0.43154697  0.77140355  0.40446250  1
  Al  Al25  1  0.11574876  0.75879988  0.90088539  1
  Al  Al26  1  0.21584336  0.87764577  0.65405852  1
  Al  Al27  1  0.80058130  0.75448031  0.33955025  1
  Al  Al28  1  0.89751331  0.86791245  0.08579574  1
  Al  Al29  1  0.43258183  0.77121869  0.89542162  1
  Al  Al30  1  0.56027021  0.87890071  0.57907610  1
  Gd  Gd31  1  0.16848768  0.23242532  0.17311493  1
  Gd  Gd32  1  0.55794337  0.20783961  0.11276901  1
  Gd  Gd33  1  0.77580643  0.42877766  0.33478407  1
  Gd  Gd34  1  0.54159585  0.54585296  0.63262913  1
  Gd  Gd35  1  0.55794038  0.86750085  0.11278025  1
  N  N36  1  0.21913436  0.20708353  0.39374960  1
  N  N37  1  0.11042311  0.07158601  0.06933550  1
  N  N38  1  0.88197268  0.20286452  0.88139686  1
  N  N39  1  0.77628249  0.09161424  0.64405771  1
  N  N40  1  0.56940526  0.19766672  0.38470441  1
  N  N41  1  0.42019143  0.10657523  0.17861334  1
  N  N42  1  0.21718202  0.20806241  0.83518068  1
  N  N43  1  0.11218820  0.09020297  0.60816084  1
  N  N44  1  0.90072513  0.18124424  0.40934559  1
  N  N45  1  0.81845204  0.07385979  0.15703555  1
  N  N46  1  0.55229254  0.20313630  0.88242925  1
  N  N47  1  0.45070431  0.09132205  0.63270518  1
  N  N48  1  0.22010567  0.53594812  0.33656496  1
  N  N49  1  0.11043742  0.45133707  0.06932983  1
  N  N50  1  0.88197899  0.54847934  0.88140127  1
  N  N51  1  0.80745525  0.41295998  0.64793933  1
  N  N52  1  0.52589027  0.55369742  0.39165385  1
  N  N53  1  0.42051314  0.45982983  0.07869233  1
  N  N54  1  0.22115044  0.54459110  0.83463370  1
  N  N55  1  0.11219665  0.43096220  0.60816607  1
  N  N56  1  0.90074592  0.55133982  0.40933489  1
  N  N57  1  0.78150997  0.42593818  0.11049382  1
  N  N58  1  0.55917732  0.53706425  0.86836478  1
  N  N59  1  0.42061345  0.41126312  0.58652218  1
  N  N60  1  0.22009846  0.87726299  0.33656773  1
  N  N61  1  0.11628695  0.75853294  0.08649573  1
  N  N62  1  0.88107717  0.87612261  0.89420071  1
  N  N63  1  0.77629044  0.76546520  0.64405746  1
  N  N64  1  0.56941039  0.86621160  0.38470410  1
  N  N65  1  0.42049145  0.75301433  0.07869016  1
  N  N66  1  0.22115375  0.86757011  0.83462851  1
  N  N67  1  0.12168233  0.75583766  0.59086373  1
  N  N68  1  0.89416527  0.86957742  0.40017407  1
  N  N69  1  0.81845534  0.74107197  0.15703238  1
  N  N70  1  0.55229201  0.87787755  0.88243974  1
  N  N71  1  0.42062265  0.80146847  0.58652422  1
