# generated using pymatgen
data_Gd5Al31N36
_symmetry_space_group_name_H-M   'P 1'
_cell_length_a   9.66279246
_cell_length_b   9.67304585
_cell_length_c   10.62615181
_cell_angle_alpha   90.00118969
_cell_angle_beta   88.75520942
_cell_angle_gamma   59.97651573
_symmetry_Int_Tables_number   1
_chemical_formula_structural   Gd5Al31N36
_chemical_formula_sum   'Gd5 Al31 N36'
_cell_volume   859.67213040
_cell_formula_units_Z   1
loop_
 _symmetry_equiv_pos_site_id
 _symmetry_equiv_pos_as_xyz
  1  'x, y, z'
loop_
 _atom_site_type_symbol
 _atom_site_label
 _atom_site_symmetry_multiplicity
 _atom_site_fract_x
 _atom_site_fract_y
 _atom_site_fract_z
 _atom_site_occupancy
  Al  Al0  1  0.12723070  0.08239325  0.41827667  1
  Al  Al1  1  0.78043362  0.08949793  0.82932634  1
  Al  Al2  1  0.89194265  0.19916094  0.59000656  1
  Al  Al3  1  0.45582972  0.08875632  0.42328068  1
  Al  Al4  1  0.11240313  0.08870757  0.89195672  1
  Al  Al5  1  0.21892693  0.20720539  0.65339309  1
  Al  Al6  1  0.79908352  0.07929873  0.34211399  1
  Al  Al7  1  0.88342025  0.19956307  0.06772857  1
  Al  Al8  1  0.43666224  0.09834306  0.89029169  1
  Al  Al9  1  0.54892252  0.20261692  0.65374766  1
  Al  Al10  1  0.12722164  0.42369734  0.41827574  1
  Al  Al11  1  0.21264261  0.55195483  0.14487433  1
  Al  Al12  1  0.79167879  0.42081814  0.83113573  1
  Al  Al13  1  0.89194055  0.54222062  0.59000921  1
  Al  Al14  1  0.43784936  0.42154111  0.41439134  1
  Al  Al15  1  0.55463949  0.53935930  0.05368474  1
  Al  Al16  1  0.11239385  0.43221990  0.89196091  1
  Al  Al17  1  0.21312493  0.54066770  0.65317622  1
  Al  Al18  1  0.88340629  0.55034489  0.06773205  1
  Al  Al19  1  0.43068831  0.42940455  0.88992996  1
  Al  Al20  1  0.12812045  0.75259751  0.40117055  1
  Al  Al21  1  0.21264700  0.86873822  0.14487633  1
  Al  Al22  1  0.78043000  0.76339132  0.82932673  1
  Al  Al23  1  0.88770084  0.87281001  0.58126885  1
  Al  Al24  1  0.43785299  0.77394264  0.41439103  1
  Al  Al25  1  0.11303354  0.76014478  0.90266501  1
  Al  Al26  1  0.21312233  0.87954043  0.65317706  1
  Al  Al27  1  0.79907606  0.75493587  0.34211747  1
  Al  Al28  1  0.89118093  0.87107313  0.08656005  1
  Al  Al29  1  0.43069232  0.77324378  0.88993389  1
  Al  Al30  1  0.54891461  0.88181882  0.65374645  1
  Gd  Gd31  1  0.19857205  0.21738922  0.15662046  1
  Gd  Gd32  1  0.54800215  0.22007015  0.15130798  1
  Gd  Gd33  1  0.77553940  0.42887711  0.33080922  1
  Gd  Gd34  1  0.54679884  0.54328682  0.63060554  1
  Gd  Gd35  1  0.54798960  0.86532734  0.15131441  1
  N  N36  1  0.23269881  0.20032202  0.37270229  1
  N  N37  1  0.10591520  0.07440628  0.07167013  1
  N  N38  1  0.87952469  0.20506803  0.88650274  1
  N  N39  1  0.78440514  0.08762760  0.64765035  1
  N  N40  1  0.56482712  0.19941256  0.36625338  1
  N  N41  1  0.43526979  0.09904738  0.06545522  1
  N  N42  1  0.21334708  0.21000210  0.83753672  1
  N  N43  1  0.11657302  0.09129206  0.60054045  1
  N  N44  1  0.90178592  0.18212176  0.40877865  1
  N  N45  1  0.81313808  0.07712117  0.15718667  1
  N  N46  1  0.54643872  0.21025930  0.83854021  1
  N  N47  1  0.44514533  0.09409248  0.60320492  1
  N  N48  1  0.22759563  0.53158775  0.33438781  1
  N  N49  1  0.10589946  0.45299902  0.07167332  1
  N  N50  1  0.87951511  0.54875537  0.88650009  1
  N  N51  1  0.81344212  0.40992666  0.65107822  1
  N  N52  1  0.52814969  0.55260550  0.40127928  1
  N  N53  1  0.42028632  0.45594862  0.06691669  1
  N  N54  1  0.21477091  0.54709349  0.83267939  1
  N  N55  1  0.11656863  0.42544443  0.60053510  1
  N  N56  1  0.90177298  0.54943635  0.40878121  1
  N  N57  1  0.77291209  0.43018864  0.11044082  1
  N  N58  1  0.55803407  0.53766226  0.86348171  1
  N  N59  1  0.42309271  0.40794539  0.59255862  1
  N  N60  1  0.22759927  0.87414825  0.33438760  1
  N  N61  1  0.11371467  0.75979876  0.08618641  1
  N  N62  1  0.87753567  0.87790330  0.89931725  1
  N  N63  1  0.78439811  0.76126842  0.64764964  1
  N  N64  1  0.56482485  0.86912616  0.36625916  1
  N  N65  1  0.42030728  0.75709074  0.06692182  1
  N  N66  1  0.21477187  0.87147902  0.83268278  1
  N  N67  1  0.12331616  0.75499372  0.58705321  1
  N  N68  1  0.89593850  0.86870077  0.39955375  1
  N  N69  1  0.81313055  0.74304533  0.15718723  1
  N  N70  1  0.54643386  0.87667172  0.83854154  1
  N  N71  1  0.42308215  0.80229646  0.59255363  1
