# generated using pymatgen
data_Gd5Al31N36
_symmetry_space_group_name_H-M   'P 1'
_cell_length_a   9.66237001
_cell_length_b   9.66751774
_cell_length_c   10.68926305
_cell_angle_alpha   89.77816295
_cell_angle_beta   89.38580542
_cell_angle_gamma   60.05039293
_symmetry_Int_Tables_number   1
_chemical_formula_structural   Gd5Al31N36
_chemical_formula_sum   'Gd5 Al31 N36'
_cell_volume   865.11085110
_cell_formula_units_Z   1
loop_
 _symmetry_equiv_pos_site_id
 _symmetry_equiv_pos_as_xyz
  1  'x, y, z'
loop_
 _atom_site_type_symbol
 _atom_site_label
 _atom_site_symmetry_multiplicity
 _atom_site_fract_x
 _atom_site_fract_y
 _atom_site_fract_z
 _atom_site_occupancy
  Al  Al0  1  0.11987906  0.07899753  0.39461866  1
  Al  Al1  1  0.77593318  0.09136661  0.79751022  1
  Al  Al2  1  0.89109849  0.20023671  0.56655360  1
  Al  Al3  1  0.45250148  0.09158087  0.32879326  1
  Al  Al4  1  0.11791591  0.08688612  0.87095326  1
  Al  Al5  1  0.22452506  0.20411716  0.58358154  1
  Al  Al6  1  0.78727865  0.08769786  0.31379524  1
  Al  Al7  1  0.88520782  0.19687329  0.04052680  1
  Al  Al8  1  0.43992067  0.09573725  0.78681916  1
  Al  Al9  1  0.55749786  0.20238871  0.55647875  1
  Al  Al10  1  0.11982081  0.43559385  0.39522913  1
  Al  Al11  1  0.21231034  0.54613588  0.12792814  1
  Al  Al12  1  0.78577622  0.42278068  0.80994533  1
  Al  Al13  1  0.89139837  0.54188909  0.56732319  1
  Al  Al14  1  0.44319499  0.42974908  0.30342358  1
  Al  Al15  1  0.54702005  0.54375273  0.04387376  1
  Al  Al16  1  0.11852559  0.42589985  0.87079409  1
  Al  Al17  1  0.21359727  0.53739158  0.63365506  1
  Al  Al18  1  0.88543413  0.55061917  0.04004258  1
  Al  Al19  1  0.44549577  0.42150927  0.79899501  1
  Al  Al20  1  0.10225537  0.76635387  0.30963873  1
  Al  Al21  1  0.21307749  0.87457390  0.12662726  1
  Al  Al22  1  0.77599199  0.76402187  0.79727127  1
  Al  Al23  1  0.89042869  0.87145742  0.55539521  1
  Al  Al24  1  0.44328351  0.76295857  0.30271030  1
  Al  Al25  1  0.09867562  0.76600630  0.81003014  1
  Al  Al26  1  0.21313460  0.88196099  0.63406396  1
  Al  Al27  1  0.78733654  0.75988960  0.31428579  1
  Al  Al28  1  0.89965522  0.86660444  0.06298233  1
  Al  Al29  1  0.44512231  0.76461164  0.79954625  1
  Al  Al30  1  0.55720514  0.87381039  0.55665457  1
  Gd  Gd31  1  0.18723927  0.22246266  0.14144537  1
  Gd  Gd32  1  0.55799868  0.20708207  0.05278326  1
  Gd  Gd33  1  0.78821510  0.42427648  0.29421143  1
  Gd  Gd34  1  0.55729883  0.53856495  0.55967553  1
  Gd  Gd35  1  0.55891219  0.87108259  0.05227811  1
  N  N36  1  0.22096412  0.20704390  0.36620427  1
  N  N37  1  0.10796909  0.07085377  0.04884250  1
  N  N38  1  0.87975511  0.20187430  0.86013579  1
  N  N39  1  0.77901325  0.09056676  0.61661266  1
  N  N40  1  0.56082948  0.20898736  0.37063851  1
  N  N41  1  0.44342211  0.09595359  0.15351006  1
  N  N42  1  0.21983955  0.20566358  0.82932584  1
  N  N43  1  0.11713766  0.08706689  0.57275362  1
  N  N44  1  0.89470092  0.18592658  0.38458166  1
  N  N45  1  0.80595206  0.08123165  0.13227205  1
  N  N46  1  0.55290459  0.20105450  0.84045060  1
  N  N47  1  0.44893969  0.09206497  0.60364820  1
  N  N48  1  0.21684718  0.53631182  0.31606822  1
  N  N49  1  0.10845357  0.45398883  0.04915494  1
  N  N50  1  0.88056942  0.54921484  0.85965741  1
  N  N51  1  0.81211745  0.41015530  0.62987040  1
  N  N52  1  0.53416564  0.55090770  0.35322152  1
  N  N53  1  0.43699898  0.45041637  0.12106327  1
  N  N54  1  0.21738522  0.54043326  0.81517605  1
  N  N55  1  0.11742142  0.42832074  0.57341844  1
  N  N56  1  0.89481105  0.55464935  0.38590457  1
  N  N57  1  0.78255987  0.42495099  0.07976999  1
  N  N58  1  0.55097087  0.54012404  0.85622063  1
  N  N59  1  0.43581129  0.41061616  0.62056312  1
  N  N60  1  0.21681694  0.88239148  0.31449097  1
  N  N61  1  0.10394797  0.76480115  0.12411327  1
  N  N62  1  0.88127683  0.87481116  0.87314932  1
  N  N63  1  0.77882318  0.76335938  0.61667861  1
  N  N64  1  0.56066032  0.86557763  0.37068335  1
  N  N65  1  0.43806579  0.74753709  0.11976872  1
  N  N66  1  0.21674339  0.87372177  0.81575504  1
  N  N67  1  0.10190403  0.76532065  0.61848776  1
  N  N68  1  0.88925554  0.87284571  0.37430945  1
  N  N69  1  0.80654271  0.74442656  0.13257725  1
  N  N70  1  0.55310424  0.87688126  0.84009129  1
  N  N71  1  0.43514950  0.78701591  0.62100757  1
