# generated using pymatgen
data_Gd5Al31N36
_symmetry_space_group_name_H-M   'P 1'
_cell_length_a   9.74007048
_cell_length_b   9.76199682
_cell_length_c   10.42947150
_cell_angle_alpha   89.99856957
_cell_angle_beta   89.02198374
_cell_angle_gamma   59.93537093
_symmetry_Int_Tables_number   1
_chemical_formula_structural   Gd5Al31N36
_chemical_formula_sum   'Gd5 Al31 N36'
_cell_volume   858.07675737
_cell_formula_units_Z   1
loop_
 _symmetry_equiv_pos_site_id
 _symmetry_equiv_pos_as_xyz
  1  'x, y, z'
loop_
 _atom_site_type_symbol
 _atom_site_label
 _atom_site_symmetry_multiplicity
 _atom_site_fract_x
 _atom_site_fract_y
 _atom_site_fract_z
 _atom_site_occupancy
  Al  Al0  1  0.12290876  0.08172236  0.42257356  1
  Al  Al1  1  0.77140887  0.09304694  0.83034026  1
  Al  Al2  1  0.89112164  0.19992197  0.59471588  1
  Al  Al3  1  0.44304780  0.09514243  0.40083675  1
  Al  Al4  1  0.11582691  0.08666551  0.88759367  1
  Al  Al5  1  0.22566413  0.20383791  0.64899674  1
  Al  Al6  1  0.80362976  0.07677275  0.33892995  1
  Al  Al7  1  0.88725268  0.19498296  0.06483367  1
  Al  Al8  1  0.43972570  0.09680240  0.89138295  1
  Al  Al9  1  0.56274229  0.19603723  0.58418046  1
  Al  Al10  1  0.12290374  0.42869646  0.42257293  1
  Al  Al11  1  0.21068241  0.55275010  0.14487999  1
  Al  Al12  1  0.79129350  0.42101502  0.83316840  1
  Al  Al13  1  0.89111860  0.54229467  0.59471744  1
  Al  Al14  1  0.43098123  0.43206008  0.40493525  1
  Al  Al15  1  0.55507993  0.53913227  0.06308852  1
  Al  Al16  1  0.11582441  0.43083473  0.88759597  1
  Al  Al17  1  0.21617815  0.53906587  0.65369998  1
  Al  Al18  1  0.88724990  0.55109389  0.06483643  1
  Al  Al19  1  0.43331055  0.42812327  0.89647036  1
  Al  Al20  1  0.12295478  0.75518528  0.40187063  1
  Al  Al21  1  0.21068508  0.86990537  0.14487859  1
  Al  Al22  1  0.77140913  0.76887192  0.83034029  1
  Al  Al23  1  0.88900979  0.87216342  0.58520805  1
  Al  Al24  1  0.43098323  0.77029163  0.40493644  1
  Al  Al25  1  0.11596804  0.75867803  0.90034378  1
  Al  Al26  1  0.21617808  0.87809142  0.65370180  1
  Al  Al27  1  0.80362609  0.75292405  0.33893192  1
  Al  Al28  1  0.89580316  0.86876537  0.08395656  1
  Al  Al29  1  0.43331019  0.77189549  0.89646881  1
  Al  Al30  1  0.56273955  0.87456879  0.58418172  1
  Gd  Gd31  1  0.17435631  0.22948854  0.16546344  1
  Gd  Gd32  1  0.55512183  0.21667176  0.13325315  1
  Gd  Gd33  1  0.77711351  0.42810136  0.33453949  1
  Gd  Gd34  1  0.54222843  0.54556085  0.63419244  1
  Gd  Gd35  1  0.55512185  0.86156180  0.13325232  1
  N  N36  1  0.21945805  0.20694496  0.38193765  1
  N  N37  1  0.10710963  0.07165284  0.06889924  1
  N  N38  1  0.88230659  0.20301092  0.88011649  1
  N  N39  1  0.77744579  0.09129311  0.64404310  1
  N  N40  1  0.56822510  0.20003352  0.37728102  1
  N  N41  1  0.41514340  0.10909146  0.10916427  1
  N  N42  1  0.22115035  0.20609698  0.83703115  1
  N  N43  1  0.11495800  0.09103737  0.60692261  1
  N  N44  1  0.90108381  0.18095521  0.40980570  1
  N  N45  1  0.81969213  0.07228781  0.15622967  1
  N  N46  1  0.55409397  0.20502935  0.88206540  1
  N  N47  1  0.44671258  0.09330462  0.59117345  1
  N  N48  1  0.22031945  0.53591099  0.33629998  1
  N  N49  1  0.10710580  0.45456011  0.06890151  1
  N  N50  1  0.88230327  0.54802649  0.88011422  1
  N  N51  1  0.80766104  0.41282503  0.64745076  1
  N  N52  1  0.52662749  0.55336517  0.39144393  1
  N  N53  1  0.41825409  0.46201971  0.07713608  1
  N  N54  1  0.22145397  0.54435154  0.83402518  1
  N  N55  1  0.11495416  0.42732547  0.60691989  1
  N  N56  1  0.90107609  0.55130562  0.40981010  1
  N  N57  1  0.77939126  0.42695899  0.11007270  1
  N  N58  1  0.55939960  0.53697382  0.86772171  1
  N  N59  1  0.42176940  0.41116092  0.58647519  1
  N  N60  1  0.22032278  0.87711054  0.33629852  1
  N  N61  1  0.11485107  0.75923506  0.08603958  1
  N  N62  1  0.88181702  0.87576221  0.89287068  1
  N  N63  1  0.77744231  0.76457888  0.64404322  1
  N  N64  1  0.56822279  0.86509826  0.37728091  1
  N  N65  1  0.41826316  0.75304330  0.07713632  1
  N  N66  1  0.22145115  0.86753986  0.83402792  1
  N  N67  1  0.12229483  0.75551237  0.59050917  1
  N  N68  1  0.89414743  0.86959687  0.40059573  1
  N  N69  1  0.81969517  0.74132547  0.15623124  1
  N  N70  1  0.55409230  0.87423034  0.88206414  1
  N  N71  1  0.42176432  0.80039414  0.58647465  1
