# generated using pymatgen
data_Gd5Al31N36
_symmetry_space_group_name_H-M   'P 1'
_cell_length_a   9.69620416
_cell_length_b   9.67400581
_cell_length_c   10.61053445
_cell_angle_alpha   89.34255031
_cell_angle_beta   88.91286671
_cell_angle_gamma   60.11893959
_symmetry_Int_Tables_number   1
_chemical_formula_structural   Gd5Al31N36
_chemical_formula_sum   'Gd5 Al31 N36'
_cell_volume   862.81142255
_cell_formula_units_Z   1
loop_
 _symmetry_equiv_pos_site_id
 _symmetry_equiv_pos_as_xyz
  1  'x, y, z'
loop_
 _atom_site_type_symbol
 _atom_site_label
 _atom_site_symmetry_multiplicity
 _atom_site_fract_x
 _atom_site_fract_y
 _atom_site_fract_z
 _atom_site_occupancy
  Al  Al0  1  0.12014444  0.08397393  0.39125864  1
  Al  Al1  1  0.77276099  0.09050768  0.79844065  1
  Al  Al2  1  0.89190543  0.20112221  0.56808471  1
  Al  Al3  1  0.44848553  0.09563175  0.32597306  1
  Al  Al4  1  0.10943183  0.08135350  0.86531607  1
  Al  Al5  1  0.22577576  0.20763592  0.56405400  1
  Al  Al6  1  0.78876631  0.08918634  0.31663644  1
  Al  Al7  1  0.88581538  0.19933061  0.04317645  1
  Al  Al8  1  0.44060562  0.09278032  0.78502389  1
  Al  Al9  1  0.55776495  0.20225243  0.55550003  1
  Al  Al10  1  0.11190914  0.43357190  0.33402489  1
  Al  Al11  1  0.21098023  0.54879987  0.14177997  1
  Al  Al12  1  0.78047820  0.42332814  0.81510562  1
  Al  Al13  1  0.89510640  0.53996397  0.56642604  1
  Al  Al14  1  0.44685049  0.43127819  0.30886971  1
  Al  Al15  1  0.54145966  0.54603254  0.04545408  1
  Al  Al16  1  0.10357212  0.42271434  0.79619977  1
  Al  Al17  1  0.21627971  0.54058639  0.62066272  1
  Al  Al18  1  0.89253230  0.54572414  0.04783718  1
  Al  Al19  1  0.43942646  0.42160982  0.80047302  1
  Al  Al20  1  0.10387499  0.76979271  0.31851667  1
  Al  Al21  1  0.21140938  0.87801318  0.13024525  1
  Al  Al22  1  0.77574950  0.76344927  0.79909572  1
  Al  Al23  1  0.88856504  0.87246822  0.55706704  1
  Al  Al24  1  0.44456279  0.76304549  0.30364810  1
  Al  Al25  1  0.09841326  0.76114750  0.81016381  1
  Al  Al26  1  0.21331424  0.88221283  0.63163262  1
  Al  Al27  1  0.78779275  0.76205367  0.31641604  1
  Al  Al28  1  0.90143057  0.86681374  0.06598273  1
  Al  Al29  1  0.44302915  0.76360226  0.80014018  1
  Al  Al30  1  0.55682346  0.87446123  0.55641556  1
  Gd  Gd31  1  0.22149016  0.21585663  0.05908483  1
  Gd  Gd32  1  0.56894034  0.20646700  0.05811316  1
  Gd  Gd33  1  0.79746949  0.42321862  0.29030067  1
  Gd  Gd34  1  0.56094437  0.53784635  0.56030223  1
  Gd  Gd35  1  0.56450375  0.86605169  0.05474725  1
  N  N36  1  0.22470256  0.21096900  0.37717277  1
  N  N37  1  0.10537974  0.07254572  0.04914556  1
  N  N38  1  0.87654420  0.20032338  0.86087492  1
  N  N39  1  0.77756762  0.09146692  0.61744241  1
  N  N40  1  0.56244202  0.20889512  0.36993243  1
  N  N41  1  0.45002533  0.09390642  0.15133384  1
  N  N42  1  0.21885792  0.20144519  0.83810434  1
  N  N43  1  0.11684231  0.08900537  0.57409964  1
  N  N44  1  0.89533850  0.18836773  0.38539259  1
  N  N45  1  0.81220519  0.07973461  0.13559374  1
  N  N46  1  0.54919500  0.19979452  0.84381974  1
  N  N47  1  0.44742776  0.09327492  0.60387410  1
  N  N48  1  0.22408735  0.54384722  0.33514985  1
  N  N49  1  0.08417921  0.45261649  0.13949535  1
  N  N50  1  0.88775847  0.54365520  0.86404338  1
  N  N51  1  0.81122063  0.41086585  0.63342276  1
  N  N52  1  0.54378247  0.54889649  0.35157976  1
  N  N53  1  0.43179414  0.45087692  0.12410002  1
  N  N54  1  0.21391488  0.53726433  0.81874082  1
  N  N55  1  0.10960569  0.42536863  0.61395270  1
  N  N56  1  0.89940858  0.55511398  0.38964045  1
  N  N57  1  0.77397358  0.42849387  0.07488841  1
  N  N58  1  0.54664361  0.53986357  0.85626413  1
  N  N59  1  0.43609731  0.41062951  0.61953630  1
  N  N60  1  0.21822808  0.88394446  0.31771040  1
  N  N61  1  0.10435709  0.76506613  0.12793423  1
  N  N62  1  0.88039434  0.87408204  0.87408781  1
  N  N63  1  0.77806563  0.76296930  0.61809024  1
  N  N64  1  0.56086673  0.86716120  0.37006877  1
  N  N65  1  0.43470457  0.74950927  0.12001110  1
  N  N66  1  0.21540476  0.86967319  0.81531605  1
  N  N67  1  0.10104369  0.76647264  0.61680600  1
  N  N68  1  0.88859441  0.87496675  0.37640200  1
  N  N69  1  0.80598101  0.74755520  0.13289663  1
  N  N70  1  0.55228334  0.87457062  0.84099444  1
  N  N71  1  0.43471033  0.78691192  0.62053035  1
