# generated using pymatgen
data_Gd5Al31N36
_symmetry_space_group_name_H-M   'P 1'
_cell_length_a   9.68456312
_cell_length_b   9.70649650
_cell_length_c   10.55876921
_cell_angle_alpha   90.00000431
_cell_angle_beta   89.20108973
_cell_angle_gamma   59.92504854
_symmetry_Int_Tables_number   1
_chemical_formula_structural   Gd5Al31N36
_chemical_formula_sum   'Gd5 Al31 N36'
_cell_volume   858.81887942
_cell_formula_units_Z   1
loop_
 _symmetry_equiv_pos_site_id
 _symmetry_equiv_pos_as_xyz
  1  'x, y, z'
loop_
 _atom_site_type_symbol
 _atom_site_label
 _atom_site_symmetry_multiplicity
 _atom_site_fract_x
 _atom_site_fract_y
 _atom_site_fract_z
 _atom_site_occupancy
  Al  Al0  1  0.12366959  0.08030340  0.41591107  1
  Al  Al1  1  0.77399315  0.09256797  0.81718428  1
  Al  Al2  1  0.88784778  0.20106352  0.58206304  1
  Al  Al3  1  0.44889613  0.09221816  0.34495633  1
  Al  Al4  1  0.11692506  0.08848911  0.87973667  1
  Al  Al5  1  0.21535508  0.20898869  0.63365813  1
  Al  Al6  1  0.79759282  0.08002295  0.32976929  1
  Al  Al7  1  0.88972103  0.19442048  0.05660694  1
  Al  Al8  1  0.44637005  0.09348121  0.80882884  1
  Al  Al9  1  0.55904272  0.19385908  0.57060954  1
  Al  Al10  1  0.12366960  0.42935946  0.41591109  1
  Al  Al11  1  0.21624388  0.54846973  0.13729122  1
  Al  Al12  1  0.79241631  0.42045810  0.82227753  1
  Al  Al13  1  0.88784777  0.54442119  0.58206304  1
  Al  Al14  1  0.43246323  0.42817551  0.39633990  1
  Al  Al15  1  0.56001375  0.53665936  0.05231921  1
  Al  Al16  1  0.11692508  0.42791829  0.87973665  1
  Al  Al17  1  0.21396987  0.54087318  0.64486264  1
  Al  Al18  1  0.88972111  0.54919099  0.05660693  1
  Al  Al19  1  0.43178359  0.43153116  0.88283008  1
  Al  Al20  1  0.12378245  0.75477499  0.39206663  1
  Al  Al21  1  0.21624385  0.86861890  0.13729123  1
  Al  Al22  1  0.77399315  0.76677140  0.81718429  1
  Al  Al23  1  0.88839612  0.87246820  0.57209738  1
  Al  Al24  1  0.43246323  0.77269367  0.39633989  1
  Al  Al25  1  0.11413493  0.75959879  0.89287966  1
  Al  Al26  1  0.21396990  0.87848941  0.64486263  1
  Al  Al27  1  0.79759285  0.75571671  0.32976928  1
  Al  Al28  1  0.89899231  0.86717011  0.07925089  1
  Al  Al29  1  0.43178360  0.77001775  0.88283010  1
  Al  Al30  1  0.55904271  0.88043065  0.57060952  1
  Gd  Gd31  1  0.16834733  0.23249258  0.16802427  1
  Gd  Gd32  1  0.55992181  0.20171725  0.08839610  1
  Gd  Gd33  1  0.77390712  0.42971268  0.32259706  1
  Gd  Gd34  1  0.54114619  0.54609313  0.62145769  1
  Gd  Gd35  1  0.55992183  0.87169334  0.08839620  1
  N  N36  1  0.22268925  0.20532160  0.38589382  1
  N  N37  1  0.11300925  0.07156814  0.06001920  1
  N  N38  1  0.88131273  0.20292800  0.87409275  1
  N  N39  1  0.77713215  0.09084535  0.63435864  1
  N  N40  1  0.57002094  0.19598749  0.38018606  1
  N  N41  1  0.42243376  0.10544936  0.16940391  1
  N  N42  1  0.21448291  0.20942478  0.82336090  1
  N  N43  1  0.11073374  0.09050785  0.59693288  1
  N  N44  1  0.89985121  0.18257936  0.39927849  1
  N  N45  1  0.81677002  0.07540813  0.14863639  1
  N  N46  1  0.55066071  0.20450734  0.86601047  1
  N  N47  1  0.44932333  0.09200457  0.62652783  1
  N  N48  1  0.22138880  0.53470798  0.32598834  1
  N  N49  1  0.11300932  0.44875506  0.06001918  1
  N  N50  1  0.88131275  0.54909178  0.87409275  1
  N  N51  1  0.80794528  0.41269361  0.63989333  1
  N  N52  1  0.52560983  0.55386128  0.38513807  1
  N  N53  1  0.42428265  0.45635746  0.06677951  1
  N  N54  1  0.21876955  0.54600973  0.82448831  1
  N  N55  1  0.11073374  0.43209089  0.59693290  1
  N  N56  1  0.89985122  0.55090190  0.39927849  1
  N  N57  1  0.78355003  0.42489126  0.10083606  1
  N  N58  1  0.55905507  0.53713872  0.85744951  1
  N  N59  1  0.41892054  0.41174779  0.57723812  1
  N  N60  1  0.22138879  0.87723566  0.32598835  1
  N  N61  1  0.11900491  0.75716379  0.07706603  1
  N  N62  1  0.87852552  0.87740352  0.88774763  1
  N  N63  1  0.77713213  0.76535503  0.63435864  1
  N  N64  1  0.57002094  0.86732400  0.38018603  1
  N  N65  1  0.42428260  0.75269239  0.06677952  1
  N  N66  1  0.21876956  0.86855321  0.82448831  1
  N  N67  1  0.12156202  0.75588523  0.57967030  1
  N  N68  1  0.89424695  0.86954277  0.38955027  1
  N  N69  1  0.81677007  0.74115436  0.14863639  1
  N  N70  1  0.55066073  0.87816445  0.86601054  1
  N  N71  1  0.41892055  0.80266414  0.57723811  1
