# generated using pymatgen
data_Gd5Al31N36
_symmetry_space_group_name_H-M   'P 1'
_cell_length_a   9.67580675
_cell_length_b   9.68966412
_cell_length_c   10.60970122
_cell_angle_alpha   89.73577621
_cell_angle_beta   88.74817541
_cell_angle_gamma   60.09867689
_symmetry_Int_Tables_number   1
_chemical_formula_structural   Gd5Al31N36
_chemical_formula_sum   'Gd5 Al31 N36'
_cell_volume   862.07610234
_cell_formula_units_Z   1
loop_
 _symmetry_equiv_pos_site_id
 _symmetry_equiv_pos_as_xyz
  1  'x, y, z'
loop_
 _atom_site_type_symbol
 _atom_site_label
 _atom_site_symmetry_multiplicity
 _atom_site_fract_x
 _atom_site_fract_y
 _atom_site_fract_z
 _atom_site_occupancy
  Al  Al0  1  0.12704971  0.08281756  0.41732847  1
  Al  Al1  1  0.77714277  0.09746910  0.82530573  1
  Al  Al2  1  0.89158277  0.19990695  0.58674544  1
  Al  Al3  1  0.45060339  0.09512589  0.42469245  1
  Al  Al4  1  0.11399293  0.08616540  0.89267933  1
  Al  Al5  1  0.21847333  0.20618337  0.65455649  1
  Al  Al6  1  0.79464813  0.08678857  0.34412366  1
  Al  Al7  1  0.88465160  0.19763424  0.06748760  1
  Al  Al8  1  0.43849148  0.09497315  0.89098059  1
  Al  Al9  1  0.54601747  0.20546482  0.65218348  1
  Al  Al10  1  0.12738055  0.42514776  0.41806197  1
  Al  Al11  1  0.21446331  0.54983222  0.14351871  1
  Al  Al12  1  0.79299988  0.41705624  0.83020825  1
  Al  Al13  1  0.89686917  0.53309709  0.59400655  1
  Al  Al14  1  0.43781452  0.42431247  0.41168039  1
  Al  Al15  1  0.55629751  0.53908921  0.05353297  1
  Al  Al16  1  0.11668364  0.42894896  0.88919052  1
  Al  Al17  1  0.21460964  0.54022301  0.65338016  1
  Al  Al18  1  0.88349408  0.54993340  0.05771859  1
  Al  Al19  1  0.43098904  0.43024522  0.89026041  1
  Al  Al20  1  0.12107188  0.75586992  0.40014839  1
  Al  Al21  1  0.21587209  0.86733915  0.14345760  1
  Al  Al22  1  0.77592382  0.76243932  0.84693694  1
  Al  Al23  1  0.89862117  0.86902046  0.64862064  1
  Al  Al24  1  0.43447126  0.77461251  0.41703149  1
  Al  Al25  1  0.10517545  0.76282513  0.90360311  1
  Al  Al26  1  0.21251221  0.87976583  0.65469311  1
  Al  Al27  1  0.78329156  0.76875230  0.41753681  1
  Al  Al28  1  0.90285999  0.85790896  0.16174324  1
  Al  Al29  1  0.43175084  0.77216127  0.88968880  1
  Al  Al30  1  0.54579161  0.88345526  0.64988624  1
  Gd  Gd31  1  0.19903586  0.21603583  0.15511391  1
  Gd  Gd32  1  0.54969180  0.21570611  0.14722032  1
  Gd  Gd33  1  0.77788718  0.43256978  0.32668363  1
  Gd  Gd34  1  0.54919640  0.54143154  0.62966038  1
  Gd  Gd35  1  0.55277116  0.86129268  0.16065441  1
  N  N36  1  0.23068701  0.20266808  0.37235951  1
  N  N37  1  0.10647185  0.07301032  0.07170508  1
  N  N38  1  0.88144349  0.20259601  0.88615462  1
  N  N39  1  0.77738089  0.09767815  0.64219874  1
  N  N40  1  0.56239041  0.20160013  0.36526253  1
  N  N41  1  0.43537253  0.09281833  0.06607823  1
  N  N42  1  0.21577045  0.20664788  0.83807086  1
  N  N43  1  0.11596403  0.09080457  0.60024548  1
  N  N44  1  0.90209561  0.18501091  0.40683750  1
  N  N45  1  0.81120138  0.08292995  0.15863595  1
  N  N46  1  0.54628213  0.21026969  0.83952164  1
  N  N47  1  0.44165214  0.09731544  0.60428582  1
  N  N48  1  0.22785260  0.53284918  0.33482783  1
  N  N49  1  0.10594817  0.45249557  0.06972980  1
  N  N50  1  0.88656387  0.54113720  0.87461229  1
  N  N51  1  0.81403190  0.40645306  0.65103380  1
  N  N52  1  0.53120847  0.55351133  0.39956048  1
  N  N53  1  0.42154888  0.45545661  0.06755365  1
  N  N54  1  0.21702275  0.54677367  0.83311467  1
  N  N55  1  0.11908480  0.42397400  0.60227643  1
  N  N56  1  0.90328750  0.54754803  0.41175026  1
  N  N57  1  0.77556077  0.42955878  0.10553986  1
  N  N58  1  0.55963327  0.53659614  0.86296427  1
  N  N59  1  0.42205686  0.41064717  0.59077223  1
  N  N60  1  0.22766071  0.87454469  0.33516872  1
  N  N61  1  0.10859630  0.76198338  0.08893697  1
  N  N62  1  0.89428136  0.86866649  0.83440625  1
  N  N63  1  0.77712054  0.76457041  0.61727737  1
  N  N64  1  0.56284879  0.87258808  0.37870111  1
  N  N65  1  0.42335711  0.75658852  0.06719524  1
  N  N66  1  0.21551616  0.86995981  0.83456994  1
  N  N67  1  0.11672161  0.75841418  0.58633022  1
  N  N68  1  0.90186408  0.86078096  0.35192197  1
  N  N69  1  0.79787301  0.75693998  0.10334914  1
  N  N70  1  0.54925309  0.87432746  0.83331444  1
  N  N71  1  0.42044555  0.80055511  0.59491055  1
