# generated using pymatgen
data_Gd5Al31N36
_symmetry_space_group_name_H-M   'P 1'
_cell_length_a   9.68456936
_cell_length_b   9.70650044
_cell_length_c   10.55873157
_cell_angle_alpha   90.00001143
_cell_angle_beta   89.20110594
_cell_angle_gamma   59.92504008
_symmetry_Int_Tables_number   1
_chemical_formula_structural   Gd5Al31N36
_chemical_formula_sum   'Gd5 Al31 N36'
_cell_volume   858.81665101
_cell_formula_units_Z   1
loop_
 _symmetry_equiv_pos_site_id
 _symmetry_equiv_pos_as_xyz
  1  'x, y, z'
loop_
 _atom_site_type_symbol
 _atom_site_label
 _atom_site_symmetry_multiplicity
 _atom_site_fract_x
 _atom_site_fract_y
 _atom_site_fract_z
 _atom_site_occupancy
  Al  Al0  1  0.12376288  0.08025693  0.40365833  1
  Al  Al1  1  0.77408441  0.09252228  0.80492763  1
  Al  Al2  1  0.88794043  0.20101693  0.56981226  1
  Al  Al3  1  0.44898669  0.09217307  0.33269586  1
  Al  Al4  1  0.11701982  0.08844175  0.86746937  1
  Al  Al5  1  0.21545318  0.20893983  0.62140174  1
  Al  Al6  1  0.79769064  0.07997420  0.31750976  1
  Al  Al7  1  0.88981753  0.19437189  0.04434559  1
  Al  Al8  1  0.44646643  0.09343322  0.79657476  1
  Al  Al9  1  0.55913695  0.19381195  0.55834348  1
  Al  Al10  1  0.12376289  0.42931303  0.40365837  1
  Al  Al11  1  0.21633401  0.54842384  0.12502895  1
  Al  Al12  1  0.79250546  0.42041373  0.81002186  1
  Al  Al13  1  0.88794042  0.54437551  0.56981228  1
  Al  Al14  1  0.43255705  0.42812946  0.38407103  1
  Al  Al15  1  0.56010789  0.53661247  0.04007140  1
  Al  Al16  1  0.11701984  0.42787133  0.86746933  1
  Al  Al17  1  0.21406783  0.54082502  0.63260020  1
  Al  Al18  1  0.88981765  0.54914347  0.04434558  1
  Al  Al19  1  0.43187863  0.43148473  0.87057916  1
  Al  Al20  1  0.12387542  0.75472869  0.37980816  1
  Al  Al21  1  0.21633394  0.86857507  0.12502896  1
  Al  Al22  1  0.77408439  0.76672627  0.80492766  1
  Al  Al23  1  0.88848920  0.87242185  0.55984115  1
  Al  Al24  1  0.43255703  0.77264627  0.38407101  1
  Al  Al25  1  0.11423207  0.75955044  0.88061631  1
  Al  Al26  1  0.21406784  0.87844001  0.63260017  1
  Al  Al27  1  0.79769070  0.75566801  0.31750976  1
  Al  Al28  1  0.89908754  0.86712269  0.06698463  1
  Al  Al29  1  0.43187863  0.76996956  0.87057919  1
  Al  Al30  1  0.55913693  0.88038392  0.55834344  1
  Gd  Gd31  1  0.16843552  0.23244870  0.15576542  1
  Gd  Gd32  1  0.56001547  0.20167042  0.07614417  1
  Gd  Gd33  1  0.77400624  0.42966333  0.31034044  1
  Gd  Gd34  1  0.54123624  0.54604829  0.60919770  1
  Gd  Gd35  1  0.56001549  0.87164679  0.07614432  1
  N  N36  1  0.22278226  0.20527527  0.37363913  1
  N  N37  1  0.11310531  0.07152177  0.04775417  1
  N  N38  1  0.88140699  0.20288100  0.86183088  1
  N  N39  1  0.77722306  0.09079950  0.62210143  1
  N  N40  1  0.57011559  0.19593993  0.36791948  1
  N  N41  1  0.42252041  0.10540622  0.15714379  1
  N  N42  1  0.21457999  0.20937643  0.81110076  1
  N  N43  1  0.11082711  0.09046176  0.58468056  1
  N  N44  1  0.89994495  0.18253159  0.38702537  1
  N  N45  1  0.81686820  0.07535863  0.13637540  1
  N  N46  1  0.55075485  0.20446061  0.85375792  1
  N  N47  1  0.44942099  0.09195594  0.61426998  1
  N  N48  1  0.22147858  0.53466229  0.31372774  1
  N  N49  1  0.11310542  0.44870578  0.04775413  1
  N  N50  1  0.88140701  0.54904492  0.86183088  1
  N  N51  1  0.80803400  0.41264946  0.62763644  1
  N  N52  1  0.52570471  0.55381400  0.37286959  1
  N  N53  1  0.42437698  0.45631058  0.05452736  1
  N  N54  1  0.21886910  0.54596080  0.81222654  1
  N  N55  1  0.11082711  0.43204402  0.58468061  1
  N  N56  1  0.89994498  0.55085630  0.38702538  1
  N  N57  1  0.78364787  0.42484256  0.08857791  1
  N  N58  1  0.55914833  0.53709229  0.84519609  1
  N  N59  1  0.41901474  0.41170081  0.56496969  1
  N  N60  1  0.22147856  0.87719194  0.31372775  1
  N  N61  1  0.11909986  0.75711652  0.06480185  1
  N  N62  1  0.87862168  0.87735564  0.87548483  1
  N  N63  1  0.77722303  0.76531037  0.62210144  1
  N  N64  1  0.57011560  0.86727723  0.36791943  1
  N  N65  1  0.42437687  0.75264536  0.05452735  1
  N  N66  1  0.21886910  0.86850300  0.81222653  1
  N  N67  1  0.12165663  0.75583812  0.56741118  1
  N  N68  1  0.89434080  0.86949603  0.37729280  1
  N  N69  1  0.81686829  0.74110610  0.13637541  1
  N  N70  1  0.55075485  0.87811745  0.85375804  1
  N  N71  1  0.41901475  0.80261732  0.56496967  1
