# generated using pymatgen
data_Gd5Al31N36
_symmetry_space_group_name_H-M   'P 1'
_cell_length_a   9.70131466
_cell_length_b   9.70074735
_cell_length_c   10.49283606
_cell_angle_alpha   90.19337031
_cell_angle_beta   89.78576996
_cell_angle_gamma   59.99349851
_symmetry_Int_Tables_number   1
_chemical_formula_structural   Gd5Al31N36
_chemical_formula_sum   'Gd5 Al31 N36'
_cell_volume   855.10578996
_cell_formula_units_Z   1
loop_
 _symmetry_equiv_pos_site_id
 _symmetry_equiv_pos_as_xyz
  1  'x, y, z'
loop_
 _atom_site_type_symbol
 _atom_site_label
 _atom_site_symmetry_multiplicity
 _atom_site_fract_x
 _atom_site_fract_y
 _atom_site_fract_z
 _atom_site_occupancy
  Al  Al0  1  0.12275327  0.08298408  0.41686229  1
  Al  Al1  1  0.77986082  0.08629471  0.88905175  1
  Al  Al2  1  0.89344505  0.19990710  0.59112591  1
  Al  Al3  1  0.44555107  0.09361051  0.42649581  1
  Al  Al4  1  0.11908957  0.08667507  0.88951486  1
  Al  Al5  1  0.22114288  0.20562741  0.65280938  1
  Al  Al6  1  0.77775956  0.08222770  0.41516747  1
  Al  Al7  1  0.89110224  0.20212891  0.05953851  1
  Al  Al8  1  0.44294974  0.09537736  0.89229104  1
  Al  Al9  1  0.55209019  0.20085040  0.65462966  1
  Al  Al10  1  0.11561999  0.43010930  0.41769681  1
  Al  Al11  1  0.21654010  0.54948840  0.14524090  1
  Al  Al12  1  0.79171223  0.41678217  0.82863556  1
  Al  Al13  1  0.89477888  0.54039834  0.62727090  1
  Al  Al14  1  0.43037291  0.42599926  0.41406487  1
  Al  Al15  1  0.55576525  0.53963459  0.05565963  1
  Al  Al16  1  0.12044095  0.42844408  0.88693195  1
  Al  Al17  1  0.21351819  0.54224309  0.65231368  1
  Al  Al18  1  0.89043163  0.54148357  0.05821581  1
  Al  Al19  1  0.43521800  0.42729969  0.88992803  1
  Al  Al20  1  0.11199742  0.75994940  0.39597163  1
  Al  Al21  1  0.21780255  0.86791003  0.14604354  1
  Al  Al22  1  0.77862983  0.77014543  0.88690049  1
  Al  Al23  1  0.89273491  0.87134824  0.65304114  1
  Al  Al24  1  0.43142843  0.77507867  0.41497449  1
  Al  Al25  1  0.11099257  0.76195003  0.90266560  1
  Al  Al26  1  0.21274571  0.87940830  0.65347393  1
  Al  Al27  1  0.78107915  0.76487629  0.41667007  1
  Al  Al28  1  0.89839415  0.86711509  0.14716024  1
  Al  Al29  1  0.43562075  0.77212081  0.89008867  1
  Al  Al30  1  0.55163479  0.88049829  0.65360120  1
  Gd  Gd31  1  0.20522075  0.21676643  0.15855851  1
  Gd  Gd32  1  0.56083077  0.21401522  0.15409040  1
  Gd  Gd33  1  0.77362017  0.42858141  0.33028418  1
  Gd  Gd34  1  0.54546129  0.54353575  0.62780915  1
  Gd  Gd35  1  0.56308549  0.85868538  0.15608685  1
  N  N36  1  0.22499524  0.20414687  0.37754011  1
  N  N37  1  0.10993622  0.07463853  0.07392128  1
  N  N38  1  0.89111250  0.20305496  0.87524927  1
  N  N39  1  0.77395132  0.08919200  0.60247284  1
  N  N40  1  0.55663459  0.20170309  0.37097438  1
  N  N41  1  0.44141408  0.09552620  0.07086490  1
  N  N42  1  0.22166569  0.20608243  0.83863917  1
  N  N43  1  0.11555889  0.09143249  0.60248875  1
  N  N44  1  0.90102820  0.18052334  0.40367013  1
  N  N45  1  0.80103730  0.07341069  0.07390000  1
  N  N46  1  0.55637957  0.20544495  0.84055625  1
  N  N47  1  0.44312510  0.09521724  0.60766470  1
  N  N48  1  0.22204880  0.53422474  0.33585733  1
  N  N49  1  0.10846172  0.45196181  0.06856807  1
  N  N50  1  0.89119825  0.54047800  0.86146729  1
  N  N51  1  0.80865097  0.40918587  0.64718014  1
  N  N52  1  0.52410787  0.55392315  0.39924760  1
  N  N53  1  0.42418901  0.45319456  0.07037327  1
  N  N54  1  0.22002565  0.54636749  0.83367621  1
  N  N55  1  0.11362477  0.42782963  0.60342621  1
  N  N56  1  0.90095934  0.54993452  0.38677398  1
  N  N57  1  0.77839101  0.42902928  0.10382395  1
  N  N58  1  0.56079897  0.53646547  0.86495124  1
  N  N59  1  0.42053993  0.40905080  0.59481159  1
  N  N60  1  0.22280346  0.87484517  0.33606201  1
  N  N61  1  0.11105499  0.76186585  0.09000098  1
  N  N62  1  0.89619196  0.86964621  0.83408936  1
  N  N63  1  0.77663325  0.76619798  0.60459318  1
  N  N64  1  0.55765824  0.87306808  0.37380807  1
  N  N65  1  0.42546163  0.75776083  0.07081603  1
  N  N66  1  0.21964644  0.86896131  0.83514583  1
  N  N67  1  0.11149336  0.76121455  0.58525401  1
  N  N68  1  0.88686290  0.87188705  0.33929795  1
  N  N69  1  0.80069191  0.75952273  0.06929902  1
  N  N70  1  0.55597513  0.87261674  0.83920328  1
  N  N71  1  0.42049305  0.80271789  0.59580838  1
