# generated using pymatgen
data_Gd5Al31N36
_symmetry_space_group_name_H-M   'P 1'
_cell_length_a   9.67054092
_cell_length_b   9.68610450
_cell_length_c   10.60352661
_cell_angle_alpha   89.78603055
_cell_angle_beta   88.81658510
_cell_angle_gamma   60.12733657
_symmetry_Int_Tables_number   1
_chemical_formula_structural   Gd5Al31N36
_chemical_formula_sum   'Gd5 Al31 N36'
_cell_volume   861.05651713
_cell_formula_units_Z   1
loop_
 _symmetry_equiv_pos_site_id
 _symmetry_equiv_pos_as_xyz
  1  'x, y, z'
loop_
 _atom_site_type_symbol
 _atom_site_label
 _atom_site_symmetry_multiplicity
 _atom_site_fract_x
 _atom_site_fract_y
 _atom_site_fract_z
 _atom_site_occupancy
  Al  Al0  1  0.12707558  0.08235152  0.41762873  1
  Al  Al1  1  0.77729408  0.09784059  0.82527080  1
  Al  Al2  1  0.89144716  0.19929558  0.58686553  1
  Al  Al3  1  0.45087841  0.09427203  0.42479243  1
  Al  Al4  1  0.11399045  0.08635013  0.89260044  1
  Al  Al5  1  0.21882649  0.20590834  0.65433272  1
  Al  Al6  1  0.79466599  0.08540039  0.34342518  1
  Al  Al7  1  0.88458011  0.19775399  0.06728076  1
  Al  Al8  1  0.43823110  0.09512570  0.89099588  1
  Al  Al9  1  0.54613289  0.20522791  0.65223805  1
  Al  Al10  1  0.12699281  0.42498066  0.41793442  1
  Al  Al11  1  0.21505506  0.54981656  0.14408609  1
  Al  Al12  1  0.79331678  0.41769660  0.82933923  1
  Al  Al13  1  0.89606191  0.53468068  0.59426928  1
  Al  Al14  1  0.43764410  0.42418448  0.41190577  1
  Al  Al15  1  0.55621012  0.53943017  0.05366262  1
  Al  Al16  1  0.11647999  0.42911795  0.88881850  1
  Al  Al17  1  0.21422198  0.54047535  0.65319675  1
  Al  Al18  1  0.88519880  0.54603321  0.05744089  1
  Al  Al19  1  0.43119102  0.43034059  0.89017416  1
  Al  Al20  1  0.11997244  0.75577455  0.39965063  1
  Al  Al21  1  0.21571900  0.86748499  0.14403120  1
  Al  Al22  1  0.77539323  0.76768935  0.87597435  1
  Al  Al23  1  0.89668138  0.86737033  0.65061148  1
  Al  Al24  1  0.43459628  0.77484398  0.41702970  1
  Al  Al25  1  0.10603771  0.76281446  0.90319207  1
  Al  Al26  1  0.21266745  0.87967761  0.65440833  1
  Al  Al27  1  0.78239718  0.76931788  0.42110655  1
  Al  Al28  1  0.90204920  0.85832464  0.15834017  1
  Al  Al29  1  0.43229319  0.77243554  0.88950500  1
  Al  Al30  1  0.54948430  0.88187596  0.65176730  1
  Gd  Gd31  1  0.19899542  0.21575248  0.15593036  1
  Gd  Gd32  1  0.54890360  0.21622841  0.14736475  1
  Gd  Gd33  1  0.77765376  0.43101515  0.32810032  1
  Gd  Gd34  1  0.54883241  0.54185124  0.62962647  1
  Gd  Gd35  1  0.55491762  0.86018900  0.15930604  1
  N  N36  1  0.23069404  0.20226279  0.37274303  1
  N  N37  1  0.10626625  0.07300590  0.07189482  1
  N  N38  1  0.88136678  0.20340590  0.88618724  1
  N  N39  1  0.77728991  0.09731736  0.64258133  1
  N  N40  1  0.56248157  0.20130632  0.36519929  1
  N  N41  1  0.43518865  0.09188335  0.06677529  1
  N  N42  1  0.21598511  0.20664560  0.83824704  1
  N  N43  1  0.11583063  0.09081915  0.60047560  1
  N  N44  1  0.90235824  0.18310468  0.40683670  1
  N  N45  1  0.81038167  0.08316701  0.15754214  1
  N  N46  1  0.54627822  0.21033520  0.84015759  1
  N  N47  1  0.44218780  0.09642761  0.60466875  1
  N  N48  1  0.22798380  0.53248754  0.33475664  1
  N  N49  1  0.10604755  0.45269641  0.07079670  1
  N  N50  1  0.88734298  0.54015218  0.87462980  1
  N  N51  1  0.81373242  0.40664647  0.65010484  1
  N  N52  1  0.53062275  0.55374302  0.39984322  1
  N  N53  1  0.42162848  0.45578079  0.06769181  1
  N  N54  1  0.21721603  0.54675829  0.83319135  1
  N  N55  1  0.11862111  0.42412257  0.60214505  1
  N  N56  1  0.90344462  0.54696570  0.40955939  1
  N  N57  1  0.77540675  0.43031187  0.10680246  1
  N  N58  1  0.55978473  0.53679913  0.86333001  1
  N  N59  1  0.42184106  0.41053161  0.59095714  1
  N  N60  1  0.22723625  0.87432171  0.33528909  1
  N  N61  1  0.10887632  0.76165690  0.08877695  1
  N  N62  1  0.89441472  0.86912094  0.83510568  1
  N  N63  1  0.77645062  0.76664877  0.60856558  1
  N  N64  1  0.56261778  0.87241080  0.37626011  1
  N  N65  1  0.42343471  0.75722224  0.06773197  1
  N  N66  1  0.21599686  0.87002396  0.83457422  1
  N  N67  1  0.11557161  0.75885241  0.58621708  1
  N  N68  1  0.90076661  0.85869168  0.34775092  1
  N  N69  1  0.79594563  0.76244227  0.08131588  1
  N  N70  1  0.55163210  0.87380277  0.83519947  1
  N  N71  1  0.42121590  0.80107105  0.59538716  1
