# generated using pymatgen
data_Gd5Al31N36
_symmetry_space_group_name_H-M   'P 1'
_cell_length_a   9.69996887
_cell_length_b   9.66705683
_cell_length_c   10.47717390
_cell_angle_alpha   89.35049597
_cell_angle_beta   89.17541402
_cell_angle_gamma   60.07616534
_symmetry_Int_Tables_number   1
_chemical_formula_structural   Gd5Al31N36
_chemical_formula_sum   'Gd5 Al31 N36'
_cell_volume   851.37761834
_cell_formula_units_Z   1
loop_
 _symmetry_equiv_pos_site_id
 _symmetry_equiv_pos_as_xyz
  1  'x, y, z'
loop_
 _atom_site_type_symbol
 _atom_site_label
 _atom_site_symmetry_multiplicity
 _atom_site_fract_x
 _atom_site_fract_y
 _atom_site_fract_z
 _atom_site_occupancy
  Al  Al0  1  0.11910128  0.08397211  0.38926507  1
  Al  Al1  1  0.77406317  0.08965629  0.80009567  1
  Al  Al2  1  0.89334461  0.19989136  0.56918212  1
  Al  Al3  1  0.44607200  0.09751851  0.32752632  1
  Al  Al4  1  0.11131036  0.08057887  0.86501876  1
  Al  Al5  1  0.22301021  0.21162882  0.56405961  1
  Al  Al6  1  0.78830446  0.08796978  0.31837470  1
  Al  Al7  1  0.88765533  0.19811704  0.04523530  1
  Al  Al8  1  0.44141849  0.09235257  0.78568702  1
  Al  Al9  1  0.55488736  0.20449297  0.55781873  1
  Al  Al10  1  0.11133353  0.43970799  0.31939251  1
  Al  Al11  1  0.21218850  0.55249877  0.06466394  1
  Al  Al12  1  0.78444325  0.42233807  0.81611438  1
  Al  Al13  1  0.89806353  0.53896167  0.56594584  1
  Al  Al14  1  0.43496416  0.43839864  0.30825805  1
  Al  Al15  1  0.54293652  0.54576734  0.04710328  1
  Al  Al16  1  0.11000695  0.42632289  0.80055330  1
  Al  Al17  1  0.21647721  0.54055179  0.55904627  1
  Al  Al18  1  0.89282732  0.54690615  0.05163603  1
  Al  Al19  1  0.43316008  0.42353159  0.80467910  1
  Al  Al20  1  0.10618515  0.76093849  0.31304102  1
  Al  Al21  1  0.21230579  0.87575925  0.12994074  1
  Al  Al22  1  0.77799251  0.76182407  0.80009200  1
  Al  Al23  1  0.88990418  0.87078197  0.55884917  1
  Al  Al24  1  0.44217155  0.76376561  0.30674487  1
  Al  Al25  1  0.10342308  0.75404703  0.81083820  1
  Al  Al26  1  0.21400163  0.87955799  0.63140074  1
  Al  Al27  1  0.78653885  0.76271237  0.31720827  1
  Al  Al28  1  0.90108499  0.86759851  0.06588430  1
  Al  Al29  1  0.44419089  0.76330057  0.80143412  1
  Al  Al30  1  0.55690089  0.87389050  0.55691696  1
  Gd  Gd31  1  0.21939601  0.21689499  0.06264530  1
  Gd  Gd32  1  0.56802681  0.20874118  0.06139046  1
  Gd  Gd33  1  0.78959696  0.42500013  0.29662579  1
  Gd  Gd34  1  0.55896148  0.53497297  0.56751109  1
  Gd  Gd35  1  0.56335992  0.86723526  0.05595781  1
  N  N36  1  0.22002067  0.21519750  0.37280363  1
  N  N37  1  0.10635945  0.07171264  0.05093133  1
  N  N38  1  0.87864651  0.19969835  0.86098579  1
  N  N39  1  0.77734340  0.09161808  0.61757031  1
  N  N40  1  0.55962495  0.21206061  0.36956001  1
  N  N41  1  0.44941158  0.09511490  0.15109806  1
  N  N42  1  0.22106149  0.20136052  0.83954967  1
  N  N43  1  0.11819506  0.08828797  0.57500083  1
  N  N44  1  0.89523185  0.18671180  0.38562810  1
  N  N45  1  0.81316030  0.07848955  0.13586903  1
  N  N46  1  0.55058265  0.19897009  0.84508445  1
  N  N47  1  0.44603597  0.09372504  0.60240533  1
  N  N48  1  0.22221283  0.54450106  0.37492999  1
  N  N49  1  0.09141429  0.46049991  0.13602395  1
  N  N50  1  0.89119137  0.54239090  0.86631709  1
  N  N51  1  0.81378143  0.41037301  0.63214669  1
  N  N52  1  0.53646598  0.55076883  0.35655501  1
  N  N53  1  0.42396450  0.45681651  0.12410207  1
  N  N54  1  0.21671064  0.53491031  0.87498379  1
  N  N55  1  0.11242130  0.43047107  0.61908953  1
  N  N56  1  0.90154048  0.55363216  0.38621082  1
  N  N57  1  0.77592462  0.42753007  0.07856520  1
  N  N58  1  0.54873663  0.53825775  0.85581184  1
  N  N59  1  0.42392366  0.41483344  0.62481171  1
  N  N60  1  0.21618612  0.88172750  0.31816388  1
  N  N61  1  0.10777613  0.75926559  0.12530357  1
  N  N62  1  0.88350329  0.87204821  0.87339522  1
  N  N63  1  0.77851464  0.76200002  0.61743743  1
  N  N64  1  0.55964349  0.86779870  0.36955936  1
  N  N65  1  0.43537048  0.74894462  0.12050769  1
  N  N66  1  0.21727940  0.86703466  0.81722682  1
  N  N67  1  0.10494027  0.75728339  0.62150119  1
  N  N68  1  0.89074796  0.87260044  0.37616318  1
  N  N69  1  0.80524015  0.74952115  0.13299007  1
  N  N70  1  0.55451200  0.87331466  0.84030750  1
  N  N71  1  0.43483884  0.78621035  0.61977862  1
