# generated using pymatgen
data_Gd5Al31N36
_symmetry_space_group_name_H-M   'P 1'
_cell_length_a   9.72697594
_cell_length_b   9.73868852
_cell_length_c   10.35102558
_cell_angle_alpha   90.31139773
_cell_angle_beta   90.20928547
_cell_angle_gamma   59.80762773
_symmetry_Int_Tables_number   1
_chemical_formula_structural   Gd5Al31N36
_chemical_formula_sum   'Gd5 Al31 N36'
_cell_volume   847.50161792
_cell_formula_units_Z   1
loop_
 _symmetry_equiv_pos_site_id
 _symmetry_equiv_pos_as_xyz
  1  'x, y, z'
loop_
 _atom_site_type_symbol
 _atom_site_label
 _atom_site_symmetry_multiplicity
 _atom_site_fract_x
 _atom_site_fract_y
 _atom_site_fract_z
 _atom_site_occupancy
  Al  Al0  1  0.11326721  0.08603615  0.41456576  1
  Al  Al1  1  0.78031165  0.08383007  0.88626787  1
  Al  Al2  1  0.89416295  0.19532591  0.64173961  1
  Al  Al3  1  0.44450210  0.09243233  0.42486337  1
  Al  Al4  1  0.12010802  0.08622897  0.88595092  1
  Al  Al5  1  0.21792355  0.20899621  0.64748138  1
  Al  Al6  1  0.78169334  0.08335711  0.41574104  1
  Al  Al7  1  0.89222465  0.20355385  0.07075345  1
  Al  Al8  1  0.44321702  0.09618751  0.88765590  1
  Al  Al9  1  0.55169435  0.20012952  0.65250656  1
  Al  Al10  1  0.11167179  0.43359810  0.40702715  1
  Al  Al11  1  0.22050626  0.54953710  0.14579817  1
  Al  Al12  1  0.78820191  0.42567108  0.83354440  1
  Al  Al13  1  0.89530716  0.54295098  0.65167735  1
  Al  Al14  1  0.42786385  0.42513081  0.41464078  1
  Al  Al15  1  0.55884811  0.53911529  0.06102427  1
  Al  Al16  1  0.11064000  0.43392173  0.89457261  1
  Al  Al17  1  0.20989687  0.54074292  0.65080358  1
  Al  Al18  1  0.90122525  0.55056201  0.14137035  1
  Al  Al19  1  0.43454735  0.42636530  0.89051192  1
  Al  Al20  1  0.11307077  0.76103630  0.39477795  1
  Al  Al21  1  0.21767587  0.86812581  0.14520786  1
  Al  Al22  1  0.78585370  0.75999745  0.89439124  1
  Al  Al23  1  0.89336392  0.86664334  0.65013652  1
  Al  Al24  1  0.42997629  0.77519289  0.41183477  1
  Al  Al25  1  0.11138952  0.76083460  0.90098639  1
  Al  Al26  1  0.21326941  0.87848260  0.65076999  1
  Al  Al27  1  0.78357565  0.76285038  0.40575990  1
  Al  Al28  1  0.90075336  0.87020939  0.14698671  1
  Al  Al29  1  0.43624304  0.77161754  0.89017797  1
  Al  Al30  1  0.55478357  0.87712656  0.65125370  1
  Gd  Gd31  1  0.20921037  0.21174798  0.15555586  1
  Gd  Gd32  1  0.56575095  0.21294307  0.15445978  1
  Gd  Gd33  1  0.77036666  0.42457727  0.34740290  1
  Gd  Gd34  1  0.53893141  0.54578405  0.63011875  1
  Gd  Gd35  1  0.56169753  0.86204249  0.15073137  1
  N  N36  1  0.22203554  0.20411659  0.37710313  1
  N  N37  1  0.10970890  0.07396673  0.06875536  1
  N  N38  1  0.89170480  0.20104164  0.85351178  1
  N  N39  1  0.77718387  0.08828462  0.60463589  1
  N  N40  1  0.55617357  0.20023293  0.37374188  1
  N  N41  1  0.44364145  0.09894213  0.06829474  1
  N  N42  1  0.21829640  0.21015473  0.83759021  1
  N  N43  1  0.11035056  0.09285378  0.60227855  1
  N  N44  1  0.90257177  0.17193264  0.37353434  1
  N  N45  1  0.80431596  0.07443369  0.06918561  1
  N  N46  1  0.55699150  0.20553639  0.83974797  1
  N  N47  1  0.44290377  0.09349030  0.60845516  1
  N  N48  1  0.22188595  0.53590283  0.33582192  1
  N  N49  1  0.10711939  0.45338735  0.07618689  1
  N  N50  1  0.89401398  0.54408581  0.83812482  1
  N  N51  1  0.80246788  0.41483932  0.63786974  1
  N  N52  1  0.51693008  0.55510353  0.39966767  1
  N  N53  1  0.42707268  0.45279703  0.07255436  1
  N  N54  1  0.21764885  0.54422360  0.83521201  1
  N  N55  1  0.10466152  0.43305549  0.59209056  1
  N  N56  1  0.90627105  0.55585228  0.32990997  1
  N  N57  1  0.78132954  0.42838969  0.11100641  1
  N  N58  1  0.56141437  0.53627793  0.86716318  1
  N  N59  1  0.41735129  0.40816121  0.59670014  1
  N  N60  1  0.22198999  0.87540030  0.33558854  1
  N  N61  1  0.11256876  0.76170094  0.08943600  1
  N  N62  1  0.89541845  0.86613013  0.83375673  1
  N  N63  1  0.78022586  0.75985744  0.59343965  1
  N  N64  1  0.55677678  0.87213575  0.36986974  1
  N  N65  1  0.42510893  0.75723268  0.07222339  1
  N  N66  1  0.22033749  0.86753335  0.83383608  1
  N  N67  1  0.11241170  0.76008403  0.58510310  1
  N  N68  1  0.88741317  0.87269642  0.33936594  1
  N  N69  1  0.80605024  0.75605500  0.07630309  1
  N  N70  1  0.56004851  0.86917999  0.84076968  1
  N  N71  1  0.42010253  0.80392007  0.59446991  1
