# generated using pymatgen
data_Gd5Al31N36
_symmetry_space_group_name_H-M   'P 1'
_cell_length_a   9.68457099
_cell_length_b   9.70650183
_cell_length_c   10.55872571
_cell_angle_alpha   90.00000166
_cell_angle_beta   89.20109589
_cell_angle_gamma   59.92506178
_symmetry_Int_Tables_number   1
_chemical_formula_structural   Gd5Al31N36
_chemical_formula_sum   'Gd5 Al31 N36'
_cell_volume   858.81662837
_cell_formula_units_Z   1
loop_
 _symmetry_equiv_pos_site_id
 _symmetry_equiv_pos_as_xyz
  1  'x, y, z'
loop_
 _atom_site_type_symbol
 _atom_site_label
 _atom_site_symmetry_multiplicity
 _atom_site_fract_x
 _atom_site_fract_y
 _atom_site_fract_z
 _atom_site_occupancy
  Al  Al0  1  0.12371053  0.08028281  0.41065888  1
  Al  Al1  1  0.77403164  0.09254817  0.81192866  1
  Al  Al2  1  0.88788704  0.20104283  0.57681132  1
  Al  Al3  1  0.44893396  0.09219925  0.33969563  1
  Al  Al4  1  0.11696653  0.08846826  0.87447140  1
  Al  Al5  1  0.21539910  0.20896672  0.62840360  1
  Al  Al6  1  0.79763715  0.08000097  0.32450849  1
  Al  Al7  1  0.88976319  0.19439952  0.05134493  1
  Al  Al8  1  0.44641309  0.09345974  0.80357619  1
  Al  Al9  1  0.55908303  0.19383873  0.56534591  1
  Al  Al10  1  0.12371052  0.42933919  0.41065887  1
  Al  Al11  1  0.21628109  0.54845017  0.13202918  1
  Al  Al12  1  0.79245320  0.42043966  0.81701923  1
  Al  Al13  1  0.88788703  0.54440266  0.57681129  1
  Al  Al14  1  0.43250377  0.42815578  0.39107228  1
  Al  Al15  1  0.56005509  0.53663877  0.04706928  1
  Al  Al16  1  0.11696656  0.42789770  0.87447141  1
  Al  Al17  1  0.21401316  0.54085234  0.63960224  1
  Al  Al18  1  0.88976325  0.54916984  0.05134495  1
  Al  Al19  1  0.43182579  0.43151069  0.87757778  1
  Al  Al20  1  0.12382241  0.75475505  0.38680843  1
  Al  Al21  1  0.21628113  0.86860133  0.13202916  1
  Al  Al22  1  0.77403171  0.76675268  0.81192859  1
  Al  Al23  1  0.88843501  0.87244879  0.56683956  1
  Al  Al24  1  0.43250379  0.77267299  0.39107228  1
  Al  Al25  1  0.11417842  0.75957705  0.88761897  1
  Al  Al26  1  0.21401317  0.87846702  0.63960223  1
  Al  Al27  1  0.79763711  0.75569445  0.32450849  1
  Al  Al28  1  0.89903327  0.86714966  0.07398611  1
  Al  Al29  1  0.43182579  0.76999603  0.87757769  1
  Al  Al30  1  0.55908302  0.88041077  0.56534598  1
  Gd  Gd31  1  0.16838087  0.23247582  0.16276706  1
  Gd  Gd32  1  0.55996078  0.20169861  0.08314569  1
  Gd  Gd33  1  0.77395282  0.42968985  0.31734204  1
  Gd  Gd34  1  0.54118255  0.54607498  0.61619777  1
  Gd  Gd35  1  0.55996087  0.87167327  0.08314537  1
  N  N36  1  0.22272966  0.20530143  0.38063973  1
  N  N37  1  0.11305095  0.07154881  0.05475560  1
  N  N38  1  0.88135385  0.20290788  0.86883042  1
  N  N39  1  0.77716979  0.09082578  0.62910181  1
  N  N40  1  0.57006236  0.19596642  0.37492054  1
  N  N41  1  0.42246608  0.10543319  0.16414381  1
  N  N42  1  0.21452659  0.20940296  0.81810260  1
  N  N43  1  0.11077338  0.09048845  0.59168128  1
  N  N44  1  0.89989268  0.18255696  0.39402447  1
  N  N45  1  0.81681370  0.07538613  0.14337454  1
  N  N46  1  0.55070200  0.20448684  0.86075847  1
  N  N47  1  0.44936685  0.09198287  0.62127153  1
  N  N48  1  0.22142611  0.53468836  0.32072809  1
  N  N49  1  0.11305100  0.44873276  0.05475562  1
  N  N50  1  0.88135387  0.54907080  0.86883044  1
  N  N51  1  0.80798090  0.41267583  0.63463424  1
  N  N52  1  0.52565145  0.55384053  0.37987179  1
  N  N53  1  0.42432320  0.45633806  0.06152606  1
  N  N54  1  0.21881500  0.54598780  0.81922830  1
  N  N55  1  0.11077337  0.43207071  0.59168127  1
  N  N56  1  0.89989268  0.55088290  0.39402443  1
  N  N57  1  0.78359389  0.42486933  0.09557865  1
  N  N58  1  0.55909568  0.53711842  0.85219463  1
  N  N59  1  0.41896047  0.41172759  0.57197140  1
  N  N60  1  0.22142613  0.87721806  0.32072809  1
  N  N61  1  0.11904557  0.75714352  0.07180417  1
  N  N62  1  0.87856849  0.87738202  0.88248638  1
  N  N63  1  0.77716983  0.76533696  0.62910177  1
  N  N64  1  0.57006238  0.86730376  0.37492063  1
  N  N65  1  0.42432325  0.75267141  0.06152601  1
  N  N66  1  0.21881498  0.86852973  0.81922828  1
  N  N67  1  0.12160229  0.75586512  0.57441157  1
  N  N68  1  0.89428745  0.86952256  0.38429125  1
  N  N69  1  0.81681369  0.74113275  0.14337454  1
  N  N70  1  0.55070202  0.87814362  0.86075823  1
  N  N71  1  0.41896047  0.80264447  0.57197142  1
