# generated using pymatgen
data_Gd5Al31N36
_symmetry_space_group_name_H-M   'P 1'
_cell_length_a   9.72068215
_cell_length_b   9.75014276
_cell_length_c   10.46367958
_cell_angle_alpha   89.99783277
_cell_angle_beta   89.00091402
_cell_angle_gamma   59.91988844
_symmetry_Int_Tables_number   1
_chemical_formula_structural   Gd5Al31N36
_chemical_formula_sum   'Gd5 Al31 N36'
_cell_volume   857.99277859
_cell_formula_units_Z   1
loop_
 _symmetry_equiv_pos_site_id
 _symmetry_equiv_pos_as_xyz
  1  'x, y, z'
loop_
 _atom_site_type_symbol
 _atom_site_label
 _atom_site_symmetry_multiplicity
 _atom_site_fract_x
 _atom_site_fract_y
 _atom_site_fract_z
 _atom_site_occupancy
  Al  Al0  1  0.12443264  0.08211757  0.42030891  1
  Al  Al1  1  0.77223761  0.09295388  0.83040602  1
  Al  Al2  1  0.89237499  0.19965404  0.59342548  1
  Al  Al3  1  0.44498277  0.09418688  0.41049796  1
  Al  Al4  1  0.11520219  0.08680887  0.88893892  1
  Al  Al5  1  0.22458130  0.20438444  0.65406896  1
  Al  Al6  1  0.80271608  0.07709177  0.33926940  1
  Al  Al7  1  0.88472256  0.19632192  0.06476333  1
  Al  Al8  1  0.43970438  0.09682495  0.89905215  1
  Al  Al9  1  0.56130841  0.19705282  0.59906251  1
  Al  Al10  1  0.12441114  0.42677681  0.42030666  1
  Al  Al11  1  0.21039938  0.55375270  0.14502985  1
  Al  Al12  1  0.79196529  0.42066724  0.83291457  1
  Al  Al13  1  0.89236226  0.54130415  0.59343234  1
  Al  Al14  1  0.43248751  0.43035531  0.40706174  1
  Al  Al15  1  0.55536547  0.53899742  0.06138486  1
  Al  Al16  1  0.11519161  0.43131090  0.88894695  1
  Al  Al17  1  0.21569733  0.53884767  0.65391396  1
  Al  Al18  1  0.88471040  0.55225546  0.06477146  1
  Al  Al19  1  0.43434520  0.42653550  0.89569815  1
  Al  Al20  1  0.12432886  0.75449342  0.40171445  1
  Al  Al21  1  0.21041036  0.86917783  0.14502636  1
  Al  Al22  1  0.77223515  0.76812725  0.83040950  1
  Al  Al23  1  0.88999071  0.87166783  0.58418121  1
  Al  Al24  1  0.43249426  0.77051033  0.40706067  1
  Al  Al25  1  0.11570028  0.75880581  0.90028141  1
  Al  Al26  1  0.21569705  0.87878914  0.65391881  1
  Al  Al27  1  0.80270010  0.75350802  0.33927623  1
  Al  Al28  1  0.89294262  0.87018348  0.08257082  1
  Al  Al29  1  0.43434795  0.77245435  0.89570031  1
  Al  Al30  1  0.56129485  0.87502411  0.59906705  1
  Gd  Gd31  1  0.18183979  0.22574248  0.15864910  1
  Gd  Gd32  1  0.54926751  0.21818004  0.14146202  1
  Gd  Gd33  1  0.77740671  0.42793687  0.33352268  1
  Gd  Gd34  1  0.54280397  0.54529378  0.63517304  1
  Gd  Gd35  1  0.54926815  0.86595586  0.14145322  1
  N  N36  1  0.22413820  0.20461737  0.37499783  1
  N  N37  1  0.10515987  0.07166632  0.07023350  1
  N  N38  1  0.88249416  0.20307114  0.88065547  1
  N  N39  1  0.78055793  0.08968174  0.64420159  1
  N  N40  1  0.56663908  0.19959985  0.37567289  1
  N  N41  1  0.41793177  0.10771073  0.08103973  1
  N  N42  1  0.21880606  0.20728000  0.83888717  1
  N  N43  1  0.11673865  0.09135942  0.60462799  1
  N  N44  1  0.90168990  0.18074962  0.40911964  1
  N  N45  1  0.81466473  0.07464013  0.15525435  1
  N  N46  1  0.55355028  0.20633805  0.87225686  1
  N  N47  1  0.44581507  0.09375580  0.59447149  1
  N  N48  1  0.22196831  0.53514377  0.33587188  1
  N  N49  1  0.10514607  0.45646668  0.07024313  1
  N  N50  1  0.88247890  0.54779087  0.88065200  1
  N  N51  1  0.80866679  0.41229913  0.64769496  1
  N  N52  1  0.52730025  0.55305407  0.39319141  1
  N  N53  1  0.41904524  0.46041657  0.07607916  1
  N  N54  1  0.22082425  0.54437834  0.83398202  1
  N  N55  1  0.11672517  0.42520557  0.60462042  1
  N  N56  1  0.90166006  0.55092028  0.40913336  1
  N  N57  1  0.77850178  0.42736999  0.10998166  1
  N  N58  1  0.55959505  0.53689204  0.86766605  1
  N  N59  1  0.42208177  0.41104971  0.58747488  1
  N  N60  1  0.22197891  0.87624030  0.33586604  1
  N  N61  1  0.11331155  0.75999087  0.08604801  1
  N  N62  1  0.88170337  0.87582343  0.89306706  1
  N  N63  1  0.78054215  0.76304798  0.64420377  1
  N  N64  1  0.56662800  0.86717829  0.37566809  1
  N  N65  1  0.41907844  0.75383908  0.07608717  1
  N  N66  1  0.22082260  0.86815533  0.83398916  1
  N  N67  1  0.12322874  0.75503273  0.58990634  1
  N  N68  1  0.89493761  0.86920422  0.39992148  1
  N  N69  1  0.81467204  0.74393839  0.15525967  1
  N  N70  1  0.55354348  0.87351449  0.87226479  1
  N  N71  1  0.42206630  0.80020002  0.58746959  1
