# generated using pymatgen
data_Gd5Al31N36
_symmetry_space_group_name_H-M   'P 1'
_cell_length_a   9.68091553
_cell_length_b   9.69266376
_cell_length_c   10.62640045
_cell_angle_alpha   89.77514471
_cell_angle_beta   88.69436704
_cell_angle_gamma   60.03413153
_symmetry_Int_Tables_number   1
_chemical_formula_structural   Gd5Al31N36
_chemical_formula_sum   'Gd5 Al31 N36'
_cell_volume   863.56849178
_cell_formula_units_Z   1
loop_
 _symmetry_equiv_pos_site_id
 _symmetry_equiv_pos_as_xyz
  1  'x, y, z'
loop_
 _atom_site_type_symbol
 _atom_site_label
 _atom_site_symmetry_multiplicity
 _atom_site_fract_x
 _atom_site_fract_y
 _atom_site_fract_z
 _atom_site_occupancy
  Al  Al0  1  0.12756561  0.08296650  0.41739080  1
  Al  Al1  1  0.77736426  0.09688528  0.82544713  1
  Al  Al2  1  0.89188210  0.20065264  0.58748268  1
  Al  Al3  1  0.45191674  0.09413952  0.42471682  1
  Al  Al4  1  0.11375999  0.08656254  0.89228282  1
  Al  Al5  1  0.21789601  0.20704392  0.65452505  1
  Al  Al6  1  0.79452309  0.08826526  0.34534213  1
  Al  Al7  1  0.88433984  0.19823562  0.06684714  1
  Al  Al8  1  0.43796512  0.09556855  0.89029250  1
  Al  Al9  1  0.54626805  0.20521243  0.65219347  1
  Al  Al10  1  0.12820937  0.42466642  0.41836675  1
  Al  Al11  1  0.21426663  0.55002303  0.14341424  1
  Al  Al12  1  0.79302354  0.41839953  0.83111581  1
  Al  Al13  1  0.89433422  0.53765871  0.59151061  1
  Al  Al14  1  0.43785534  0.42419825  0.41228423  1
  Al  Al15  1  0.55623062  0.53836164  0.05294723  1
  Al  Al16  1  0.11475925  0.43059919  0.89035552  1
  Al  Al17  1  0.21436799  0.54000530  0.65348067  1
  Al  Al18  1  0.88250800  0.55200468  0.06260157  1
  Al  Al19  1  0.43045642  0.43015697  0.88997494  1
  Al  Al20  1  0.12296203  0.75573183  0.40131056  1
  Al  Al21  1  0.21499965  0.86750565  0.14292286  1
  Al  Al22  1  0.77666563  0.75847661  0.82456341  1
  Al  Al23  1  0.89815415  0.86868258  0.64685884  1
  Al  Al24  1  0.43525192  0.77406950  0.41664814  1
  Al  Al25  1  0.10417676  0.76360031  0.90244859  1
  Al  Al26  1  0.21259123  0.87991653  0.65459840  1
  Al  Al27  1  0.78925611  0.75976715  0.36993241  1
  Al  Al28  1  0.90647538  0.85994527  0.16391467  1
  Al  Al29  1  0.43099930  0.77238827  0.88944571  1
  Al  Al30  1  0.54570727  0.88290544  0.64961256  1
  Gd  Gd31  1  0.19842110  0.21712884  0.15479191  1
  Gd  Gd32  1  0.54935525  0.21674659  0.14810957  1
  Gd  Gd33  1  0.77748719  0.43177260  0.32626509  1
  Gd  Gd34  1  0.54970802  0.54133493  0.63004071  1
  Gd  Gd35  1  0.54659820  0.86422953  0.15825204  1
  N  N36  1  0.23159705  0.20229228  0.37181656  1
  N  N37  1  0.10657235  0.07325760  0.07148794  1
  N  N38  1  0.88124827  0.20315117  0.88593432  1
  N  N39  1  0.77788208  0.09746289  0.64210131  1
  N  N40  1  0.56285562  0.20150294  0.36570224  1
  N  N41  1  0.43531123  0.09511183  0.06534014  1
  N  N42  1  0.21440412  0.20817349  0.83795370  1
  N  N43  1  0.11634506  0.09088900  0.59999019  1
  N  N44  1  0.90236549  0.18584742  0.40737125  1
  N  N45  1  0.81096642  0.08365901  0.15844262  1
  N  N46  1  0.54598581  0.21048245  0.83884585  1
  N  N47  1  0.44205780  0.09683080  0.60392102  1
  N  N48  1  0.22797820  0.53295058  0.33483877  1
  N  N49  1  0.10572905  0.45319757  0.07001617  1
  N  N50  1  0.88285997  0.54553728  0.88105026  1
  N  N51  1  0.81499351  0.40767070  0.65170665  1
  N  N52  1  0.53132858  0.55295247  0.39969055  1
  N  N53  1  0.42113363  0.45538592  0.06716805  1
  N  N54  1  0.21625108  0.54687603  0.83303636  1
  N  N55  1  0.11807762  0.42477556  0.60154971  1
  N  N56  1  0.90331492  0.54762528  0.41162467  1
  N  N57  1  0.77481963  0.42892907  0.10608485  1
  N  N58  1  0.55921264  0.53657328  0.86284975  1
  N  N59  1  0.42222019  0.41061687  0.59096242  1
  N  N60  1  0.22855644  0.87452639  0.33470872  1
  N  N61  1  0.10831563  0.76196255  0.08755627  1
  N  N62  1  0.89303794  0.86923122  0.83692092  1
  N  N63  1  0.77834449  0.75927727  0.63742011  1
  N  N64  1  0.56233085  0.87250723  0.37601665  1
  N  N65  1  0.42204799  0.75563010  0.06662583  1
  N  N66  1  0.21510805  0.87023558  0.83413515  1
  N  N67  1  0.11727164  0.75823088  0.58663460  1
  N  N68  1  0.90625076  0.86382068  0.35283678  1
  N  N69  1  0.80413620  0.74283431  0.14784031  1
  N  N70  1  0.54643165  0.87557989  0.83504368  1
  N  N71  1  0.42058592  0.80047480  0.59398232  1
