# generated using pymatgen
data_Gd5Al31N36
_symmetry_space_group_name_H-M   'P 1'
_cell_length_a   9.70926325
_cell_length_b   9.68529910
_cell_length_c   10.32676763
_cell_angle_alpha   90.11603355
_cell_angle_beta   89.71941845
_cell_angle_gamma   59.99558921
_symmetry_Int_Tables_number   1
_chemical_formula_structural   Gd5Al31N36
_chemical_formula_sum   'Gd5 Al31 N36'
_cell_volume   840.93812391
_cell_formula_units_Z   1
loop_
 _symmetry_equiv_pos_site_id
 _symmetry_equiv_pos_as_xyz
  1  'x, y, z'
loop_
 _atom_site_type_symbol
 _atom_site_label
 _atom_site_symmetry_multiplicity
 _atom_site_fract_x
 _atom_site_fract_y
 _atom_site_fract_z
 _atom_site_occupancy
  Al  Al0  1  0.11032756  0.08908120  0.32463179  1
  Al  Al1  1  0.77879169  0.09074625  0.80260718  1
  Al  Al2  1  0.89691899  0.19771238  0.56685515  1
  Al  Al3  1  0.44315242  0.09527782  0.32809486  1
  Al  Al4  1  0.11190096  0.09082348  0.79769676  1
  Al  Al5  1  0.21808985  0.20896731  0.56181823  1
  Al  Al6  1  0.78752524  0.08521825  0.31833233  1
  Al  Al7  1  0.89430003  0.19323784  0.05179422  1
  Al  Al8  1  0.44401546  0.09480192  0.78496999  1
  Al  Al9  1  0.55490551  0.20365406  0.55794056  1
  Al  Al10  1  0.11239655  0.43541462  0.31705473  1
  Al  Al11  1  0.21340787  0.55099551  0.06307607  1
  Al  Al12  1  0.78712468  0.42373312  0.82140083  1
  Al  Al13  1  0.89802842  0.53843354  0.56555907  1
  Al  Al14  1  0.43529241  0.43633605  0.30928552  1
  Al  Al15  1  0.54204976  0.54593990  0.04750192  1
  Al  Al16  1  0.11122790  0.43165232  0.79989007  1
  Al  Al17  1  0.21702396  0.53862775  0.55922443  1
  Al  Al18  1  0.89502346  0.54604307  0.05194856  1
  Al  Al19  1  0.43367263  0.42574831  0.80576458  1
  Al  Al20  1  0.10876728  0.75865170  0.31697169  1
  Al  Al21  1  0.21280918  0.87046548  0.09504450  1
  Al  Al22  1  0.77884763  0.76405465  0.80155213  1
  Al  Al23  1  0.88999895  0.87130261  0.56077700  1
  Al  Al24  1  0.43953939  0.76046156  0.31466293  1
  Al  Al25  1  0.11009547  0.76303805  0.81099333  1
  Al  Al26  1  0.21746897  0.87481854  0.56422851  1
  Al  Al27  1  0.78765276  0.76057805  0.31747815  1
  Al  Al28  1  0.90019574  0.86684113  0.06482362  1
  Al  Al29  1  0.43378238  0.77387817  0.80207194  1
  Al  Al30  1  0.55708216  0.87352705  0.55736054  1
  Gd  Gd31  1  0.21209145  0.20922464  0.05652283  1
  Gd  Gd32  1  0.56219328  0.20753706  0.06279854  1
  Gd  Gd33  1  0.78762854  0.42258891  0.29816472  1
  Gd  Gd34  1  0.55996072  0.53351885  0.57546785  1
  Gd  Gd35  1  0.56234208  0.86279376  0.06055125  1
  N  N36  1  0.21529043  0.21042130  0.37217762  1
  N  N37  1  0.09276555  0.08736420  0.13846153  1
  N  N38  1  0.89323773  0.19644176  0.86580028  1
  N  N39  1  0.77790191  0.09296348  0.61773436  1
  N  N40  1  0.55892971  0.20952036  0.36713289  1
  N  N41  1  0.44058550  0.09557859  0.14859785  1
  N  N42  1  0.22280060  0.20591491  0.83523477  1
  N  N43  1  0.11262371  0.09179392  0.61352946  1
  N  N44  1  0.89912766  0.18155335  0.38565383  1
  N  N45  1  0.80831446  0.07762628  0.13236563  1
  N  N46  1  0.55442296  0.20169431  0.84421155  1
  N  N47  1  0.44482317  0.09402053  0.59924630  1
  N  N48  1  0.22248739  0.54031407  0.37351754  1
  N  N49  1  0.09790513  0.45446368  0.13087056  1
  N  N50  1  0.89274314  0.54502298  0.86605882  1
  N  N51  1  0.81582758  0.40941633  0.63274037  1
  N  N52  1  0.53798878  0.54634219  0.36117534  1
  N  N53  1  0.42483751  0.45747713  0.12306524  1
  N  N54  1  0.21741723  0.54077539  0.87286871  1
  N  N55  1  0.11211876  0.43083184  0.61669958  1
  N  N56  1  0.90213324  0.55134594  0.38307733  1
  N  N57  1  0.77511014  0.42963745  0.07675162  1
  N  N58  1  0.54844135  0.54262305  0.85404178  1
  N  N59  1  0.42395381  0.41354197  0.62423105  1
  N  N60  1  0.22148943  0.86881394  0.36900869  1
  N  N61  1  0.10802020  0.75993342  0.12808634  1
  N  N62  1  0.88682806  0.87322303  0.87182101  1
  N  N63  1  0.77889991  0.76209778  0.61685937  1
  N  N64  1  0.56061693  0.86520725  0.36776428  1
  N  N65  1  0.42913613  0.74997741  0.12846411  1
  N  N66  1  0.21798265  0.87565677  0.85940690  1
  N  N67  1  0.10959305  0.75970307  0.62040362  1
  N  N68  1  0.89102090  0.87089235  0.37627636  1
  N  N69  1  0.80753677  0.74862688  0.13186749  1
  N  N70  1  0.55443595  0.87692991  0.84159268  1
  N  N71  1  0.42901359  0.79051633  0.61890000  1
