# generated using pymatgen
data_Gd5Al31N36
_symmetry_space_group_name_H-M   'P 1'
_cell_length_a   9.71195158
_cell_length_b   9.68774333
_cell_length_c   10.33328096
_cell_angle_alpha   90.11533554
_cell_angle_beta   89.72140307
_cell_angle_gamma   59.99459138
_symmetry_Int_Tables_number   1
_chemical_formula_structural   Gd5Al31N36
_chemical_formula_sum   'Gd5 Al31 N36'
_cell_volume   841.90575064
_cell_formula_units_Z   1
loop_
 _symmetry_equiv_pos_site_id
 _symmetry_equiv_pos_as_xyz
  1  'x, y, z'
loop_
 _atom_site_type_symbol
 _atom_site_label
 _atom_site_symmetry_multiplicity
 _atom_site_fract_x
 _atom_site_fract_y
 _atom_site_fract_z
 _atom_site_occupancy
  Al  Al0  1  0.10992255  0.09007946  0.32533590  1
  Al  Al1  1  0.77879903  0.09072212  0.80257312  1
  Al  Al2  1  0.89666623  0.19793291  0.56671051  1
  Al  Al3  1  0.44321718  0.09532324  0.32799060  1
  Al  Al4  1  0.11155124  0.09141591  0.79738132  1
  Al  Al5  1  0.21819495  0.20914844  0.56162916  1
  Al  Al6  1  0.78749180  0.08524737  0.31825205  1
  Al  Al7  1  0.89424219  0.19329637  0.05154446  1
  Al  Al8  1  0.44396457  0.09478848  0.78492687  1
  Al  Al9  1  0.55486420  0.20364286  0.55794212  1
  Al  Al10  1  0.11239016  0.43535668  0.31692688  1
  Al  Al11  1  0.21346616  0.55100362  0.06290795  1
  Al  Al12  1  0.78701475  0.42380808  0.82135587  1
  Al  Al13  1  0.89801671  0.53841662  0.56553517  1
  Al  Al14  1  0.43532845  0.43631311  0.30917000  1
  Al  Al15  1  0.54206478  0.54592436  0.04721349  1
  Al  Al16  1  0.11120086  0.43164910  0.79985430  1
  Al  Al17  1  0.21702827  0.53832507  0.55910920  1
  Al  Al18  1  0.89501894  0.54605009  0.05187419  1
  Al  Al19  1  0.43363559  0.42578459  0.80569051  1
  Al  Al20  1  0.10815813  0.75796793  0.31757688  1
  Al  Al21  1  0.21283287  0.87058678  0.10625011  1
  Al  Al22  1  0.77880909  0.76406078  0.80147941  1
  Al  Al23  1  0.88974395  0.87129963  0.56063166  1
  Al  Al24  1  0.44073848  0.75999336  0.31499748  1
  Al  Al25  1  0.10989432  0.76287167  0.81088698  1
  Al  Al26  1  0.21731693  0.87470682  0.56955303  1
  Al  Al27  1  0.78764453  0.76053541  0.31732224  1
  Al  Al28  1  0.90020127  0.86691382  0.06465632  1
  Al  Al29  1  0.43422180  0.77357889  0.80164753  1
  Al  Al30  1  0.55739466  0.87353557  0.55709697  1
  Gd  Gd31  1  0.21221258  0.20922629  0.05635960  1
  Gd  Gd32  1  0.56221607  0.20760274  0.06272578  1
  Gd  Gd33  1  0.78776361  0.42251557  0.29786229  1
  Gd  Gd34  1  0.56022249  0.53306441  0.57516081  1
  Gd  Gd35  1  0.56241340  0.86296444  0.06030191  1
  N  N36  1  0.21543255  0.21057489  0.37221747  1
  N  N37  1  0.09196627  0.08884889  0.13880426  1
  N  N38  1  0.89305209  0.19660114  0.86573243  1
  N  N39  1  0.77793773  0.09293431  0.61772804  1
  N  N40  1  0.55893438  0.20952791  0.36716807  1
  N  N41  1  0.44062871  0.09563032  0.14859854  1
  N  N42  1  0.22275878  0.20604133  0.83523245  1
  N  N43  1  0.11223454  0.09281724  0.61293294  1
  N  N44  1  0.89882025  0.18174623  0.38570039  1
  N  N45  1  0.80836819  0.07763786  0.13233367  1
  N  N46  1  0.55439050  0.20168618  0.84421046  1
  N  N47  1  0.44484924  0.09398024  0.59925043  1
  N  N48  1  0.22261445  0.53996497  0.37354837  1
  N  N49  1  0.09791981  0.45445117  0.13082879  1
  N  N50  1  0.89271025  0.54504125  0.86602958  1
  N  N51  1  0.81578934  0.40947456  0.63277551  1
  N  N52  1  0.53826584  0.54605432  0.36103575  1
  N  N53  1  0.42482893  0.45755764  0.12303259  1
  N  N54  1  0.21740611  0.54063910  0.87287861  1
  N  N55  1  0.11207729  0.43077050  0.61670781  1
  N  N56  1  0.90214564  0.55132088  0.38305044  1
  N  N57  1  0.77505025  0.42967499  0.07662833  1
  N  N58  1  0.54853494  0.54248286  0.85396619  1
  N  N59  1  0.42387391  0.41353147  0.62422922  1
  N  N60  1  0.22144585  0.86879459  0.36477571  1
  N  N61  1  0.10760261  0.75953865  0.12834586  1
  N  N62  1  0.88664918  0.87322886  0.87184105  1
  N  N63  1  0.77890895  0.76208423  0.61683912  1
  N  N64  1  0.56083851  0.86531281  0.36770257  1
  N  N65  1  0.43023172  0.74949640  0.12840977  1
  N  N66  1  0.21781812  0.87550417  0.85203000  1
  N  N67  1  0.10897382  0.75907225  0.61990558  1
  N  N68  1  0.89071617  0.87098493  0.37628530  1
  N  N69  1  0.80754457  0.74862539  0.13181806  1
  N  N70  1  0.55446901  0.87691641  0.84149295  1
  N  N71  1  0.43034103  0.78978652  0.61811223  1
