# generated using pymatgen
data_Gd5Al31N36
_symmetry_space_group_name_H-M   'P 1'
_cell_length_a   9.71427995
_cell_length_b   9.68986151
_cell_length_c   10.33950842
_cell_angle_alpha   90.11250961
_cell_angle_beta   89.72158092
_cell_angle_gamma   59.99409246
_symmetry_Int_Tables_number   1
_chemical_formula_structural   Gd5Al31N36
_chemical_formula_sum   'Gd5 Al31 N36'
_cell_volume   842.79535658
_cell_formula_units_Z   1
loop_
 _symmetry_equiv_pos_site_id
 _symmetry_equiv_pos_as_xyz
  1  'x, y, z'
loop_
 _atom_site_type_symbol
 _atom_site_label
 _atom_site_symmetry_multiplicity
 _atom_site_fract_x
 _atom_site_fract_y
 _atom_site_fract_z
 _atom_site_occupancy
  Al  Al0  1  0.10960355  0.09085639  0.32569448  1
  Al  Al1  1  0.77877065  0.09071715  0.80253427  1
  Al  Al2  1  0.89645772  0.19810010  0.56654250  1
  Al  Al3  1  0.44326632  0.09535242  0.32790354  1
  Al  Al4  1  0.11102775  0.09232291  0.79729215  1
  Al  Al5  1  0.21828942  0.20928329  0.56141842  1
  Al  Al6  1  0.78748542  0.08526053  0.31817552  1
  Al  Al7  1  0.89422993  0.19335366  0.05138663  1
  Al  Al8  1  0.44393232  0.09478394  0.78489602  1
  Al  Al9  1  0.55482773  0.20363611  0.55792862  1
  Al  Al10  1  0.11237580  0.43532406  0.31682764  1
  Al  Al11  1  0.21348757  0.55106419  0.06281999  1
  Al  Al12  1  0.78689885  0.42388299  0.82132497  1
  Al  Al13  1  0.89800353  0.53839656  0.56551371  1
  Al  Al14  1  0.43534837  0.43630874  0.30905628  1
  Al  Al15  1  0.54208109  0.54594870  0.04702986  1
  Al  Al16  1  0.11117506  0.43164035  0.79982438  1
  Al  Al17  1  0.21704397  0.53806196  0.55897715  1
  Al  Al18  1  0.89500620  0.54605123  0.05184553  1
  Al  Al19  1  0.43362725  0.42579347  0.80561919  1
  Al  Al20  1  0.10767731  0.75741755  0.31785116  1
  Al  Al21  1  0.21291699  0.87064433  0.11608158  1
  Al  Al22  1  0.77876934  0.76406647  0.80142053  1
  Al  Al23  1  0.88952783  0.87130551  0.56046848  1
  Al  Al24  1  0.44172893  0.75959211  0.31501158  1
  Al  Al25  1  0.10951640  0.76252331  0.81094696  1
  Al  Al26  1  0.21710839  0.87463137  0.57723171  1
  Al  Al27  1  0.78765118  0.76049132  0.31720047  1
  Al  Al28  1  0.90024903  0.86695356  0.06458366  1
  Al  Al29  1  0.43495890  0.77310450  0.80147616  1
  Al  Al30  1  0.55764539  0.87355452  0.55683793  1
  Gd  Gd31  1  0.21234444  0.20927286  0.05630665  1
  Gd  Gd32  1  0.56223266  0.20764756  0.06267784  1
  Gd  Gd33  1  0.78789440  0.42244325  0.29758661  1
  Gd  Gd34  1  0.56042430  0.53271047  0.57482332  1
  Gd  Gd35  1  0.56251076  0.86313499  0.06016078  1
  N  N36  1  0.21553323  0.21067617  0.37225566  1
  N  N37  1  0.09133321  0.09007463  0.13867021  1
  N  N38  1  0.89286474  0.19672377  0.86567930  1
  N  N39  1  0.77798809  0.09289459  0.61772220  1
  N  N40  1  0.55894336  0.20953792  0.36723322  1
  N  N41  1  0.44068569  0.09568995  0.14866489  1
  N  N42  1  0.22272970  0.20613170  0.83527138  1
  N  N43  1  0.11182969  0.09382062  0.61254195  1
  N  N44  1  0.89864007  0.18186210  0.38572695  1
  N  N45  1  0.80837167  0.07766864  0.13233196  1
  N  N46  1  0.55435731  0.20167961  0.84419395  1
  N  N47  1  0.44485586  0.09394250  0.59927479  1
  N  N48  1  0.22269733  0.53972726  0.37357542  1
  N  N49  1  0.09789960  0.45447534  0.13084025  1
  N  N50  1  0.89268651  0.54505819  0.86600441  1
  N  N51  1  0.81573753  0.40951232  0.63280753  1
  N  N52  1  0.53847584  0.54586286  0.36087835  1
  N  N53  1  0.42483300  0.45758506  0.12302171  1
  N  N54  1  0.21742239  0.54048612  0.87288102  1
  N  N55  1  0.11205767  0.43070006  0.61672126  1
  N  N56  1  0.90215030  0.55129334  0.38305893  1
  N  N57  1  0.77499515  0.42970552  0.07651202  1
  N  N58  1  0.54859508  0.54235390  0.85389555  1
  N  N59  1  0.42381100  0.41354497  0.62422445  1
  N  N60  1  0.22140799  0.86876149  0.35901037  1
  N  N61  1  0.10732521  0.75928792  0.12817008  1
  N  N62  1  0.88646719  0.87325803  0.87185451  1
  N  N63  1  0.77890243  0.76208534  0.61683061  1
  N  N64  1  0.56099890  0.86538026  0.36766268  1
  N  N65  1  0.43110729  0.74914003  0.12790467  1
  N  N66  1  0.21763718  0.87532330  0.84514090  1
  N  N67  1  0.10835684  0.75844277  0.61961445  1
  N  N68  1  0.89052134  0.87103417  0.37628924  1
  N  N69  1  0.80757765  0.74859000  0.13182312  1
  N  N70  1  0.55449184  0.87692494  0.84145275  1
  N  N71  1  0.43160974  0.78912019  0.61759423  1
