# generated using pymatgen
data_Gd5Al31N36
_symmetry_space_group_name_H-M   'P 1'
_cell_length_a   9.68456454
_cell_length_b   9.70649972
_cell_length_c   10.55876919
_cell_angle_alpha   90.00001319
_cell_angle_beta   89.20107759
_cell_angle_gamma   59.92503348
_symmetry_Int_Tables_number   1
_chemical_formula_structural   Gd5Al31N36
_chemical_formula_sum   'Gd5 Al31 N36'
_cell_volume   858.81915409
_cell_formula_units_Z   1
loop_
 _symmetry_equiv_pos_site_id
 _symmetry_equiv_pos_as_xyz
  1  'x, y, z'
loop_
 _atom_site_type_symbol
 _atom_site_label
 _atom_site_symmetry_multiplicity
 _atom_site_fract_x
 _atom_site_fract_y
 _atom_site_fract_z
 _atom_site_occupancy
  Al  Al0  1  0.12361418  0.08033120  0.42297581  1
  Al  Al1  1  0.77393817  0.09259588  0.82424965  1
  Al  Al2  1  0.88779364  0.20109120  0.58912932  1
  Al  Al3  1  0.44884154  0.09224555  0.35202366  1
  Al  Al4  1  0.11687017  0.08851653  0.88680189  1
  Al  Al5  1  0.21530073  0.20901597  0.64072211  1
  Al  Al6  1  0.79753776  0.08005032  0.33683703  1
  Al  Al7  1  0.88966734  0.19444700  0.06367464  1
  Al  Al8  1  0.44631503  0.09350883  0.81589358  1
  Al  Al9  1  0.55898874  0.19388632  0.57767489  1
  Al  Al10  1  0.12361420  0.42938729  0.42297584  1
  Al  Al11  1  0.21618959  0.54849723  0.14435742  1
  Al  Al12  1  0.79236163  0.42048556  0.82934618  1
  Al  Al13  1  0.88779363  0.54444788  0.58912933  1
  Al  Al14  1  0.43240865  0.42820322  0.40340676  1
  Al  Al15  1  0.55995907  0.53668681  0.05938603  1
  Al  Al16  1  0.11687019  0.42794602  0.88680186  1
  Al  Al17  1  0.21391597  0.54090017  0.65192713  1
  Al  Al18  1  0.88966744  0.54921841  0.06367463  1
  Al  Al19  1  0.43172855  0.43155872  0.88989663  1
  Al  Al20  1  0.12372725  0.75480269  0.39913202  1
  Al  Al21  1  0.21618953  0.86864594  0.14435744  1
  Al  Al22  1  0.77393817  0.76679873  0.82424968  1
  Al  Al23  1  0.88834236  0.87249520  0.57916500  1
  Al  Al24  1  0.43240864  0.77272073  0.40340673  1
  Al  Al25  1  0.11408017  0.75962630  0.89994375  1
  Al  Al26  1  0.21391599  0.87851657  0.65192711  1
  Al  Al27  1  0.79753782  0.75574460  0.33683702  1
  Al  Al28  1  0.89893835  0.86719721  0.08631659  1
  Al  Al29  1  0.43172856  0.77004547  0.88989666  1
  Al  Al30  1  0.55898874  0.88045760  0.57767484  1
  Gd  Gd31  1  0.16829524  0.23251877  0.17508895  1
  Gd  Gd32  1  0.55986849  0.20174383  0.09546164  1
  Gd  Gd33  1  0.77385234  0.42974017  0.32966283  1
  Gd  Gd34  1  0.54109259  0.54612005  0.62852492  1
  Gd  Gd35  1  0.55986851  0.87172027  0.09546178  1
  N  N36  1  0.22263397  0.20534933  0.39295908  1
  N  N37  1  0.11295561  0.07159492  0.06708489  1
  N  N38  1  0.88125775  0.20295512  0.88116009  1
  N  N39  1  0.77707798  0.09087283  0.64142454  1
  N  N40  1  0.56996611  0.19601513  0.38725251  1
  N  N41  1  0.42238147  0.10547563  0.17647080  1
  N  N42  1  0.21442779  0.20945244  0.83042567  1
  N  N43  1  0.11067974  0.09053487  0.60399761  1
  N  N44  1  0.89979582  0.18260744  0.40634488  1
  N  N45  1  0.81671616  0.07543478  0.15570374  1
  N  N46  1  0.55060563  0.20453485  0.87307594  1
  N  N47  1  0.44926907  0.09203181  0.63359255  1
  N  N48  1  0.22133415  0.53473565  0.33305444  1
  N  N49  1  0.11295570  0.44878216  0.06708485  1
  N  N50  1  0.88125776  0.54911988  0.88116009  1
  N  N51  1  0.80789162  0.41272058  0.64696136  1
  N  N52  1  0.52555538  0.55388858  0.39220442  1
  N  N53  1  0.42422853  0.45638431  0.07384613  1
  N  N54  1  0.21871502  0.54603701  0.83155316  1
  N  N55  1  0.11067973  0.43211811  0.60399764  1
  N  N56  1  0.89979586  0.55092941  0.40634486  1
  N  N57  1  0.78349584  0.42491850  0.10790226  1
  N  N58  1  0.55900022  0.53716625  0.86451655  1
  N  N59  1  0.41886704  0.41177488  0.58430458  1
  N  N60  1  0.22133413  0.87726284  0.33305445  1
  N  N61  1  0.11895094  0.75719090  0.08413084  1
  N  N62  1  0.87847051  0.87743114  0.89481295  1
  N  N63  1  0.77707797  0.76538197  0.64142455  1
  N  N64  1  0.56996611  0.86735135  0.38725245  1
  N  N65  1  0.42422845  0.75271991  0.07384613  1
  N  N66  1  0.21871503  0.86858068  0.83155315  1
  N  N67  1  0.12150814  0.75591228  0.58673580  1
  N  N68  1  0.89419192  0.86957040  0.39661784  1
  N  N69  1  0.81671624  0.74118184  0.15570374  1
  N  N70  1  0.55060564  0.87819225  0.87307604  1
  N  N71  1  0.41886706  0.80269078  0.58430456  1
