# generated using pymatgen
data_Gd5Al31N36
_symmetry_space_group_name_H-M   'P 1'
_cell_length_a   9.67764745
_cell_length_b   9.69074037
_cell_length_c   10.61466191
_cell_angle_alpha   89.72333281
_cell_angle_beta   88.72215533
_cell_angle_gamma   60.08283807
_symmetry_Int_Tables_number   1
_chemical_formula_structural   Gd5Al31N36
_chemical_formula_sum   'Gd5 Al31 N36'
_cell_volume   862.59312455
_cell_formula_units_Z   1
loop_
 _symmetry_equiv_pos_site_id
 _symmetry_equiv_pos_as_xyz
  1  'x, y, z'
loop_
 _atom_site_type_symbol
 _atom_site_label
 _atom_site_symmetry_multiplicity
 _atom_site_fract_x
 _atom_site_fract_y
 _atom_site_fract_z
 _atom_site_occupancy
  Al  Al0  1  0.12708335  0.08300596  0.41723606  1
  Al  Al1  1  0.77717747  0.09714615  0.82534460  1
  Al  Al2  1  0.89163466  0.20020084  0.58677717  1
  Al  Al3  1  0.45056692  0.09544784  0.42471404  1
  Al  Al4  1  0.11396274  0.08615439  0.89264583  1
  Al  Al5  1  0.21829111  0.20636257  0.65468692  1
  Al  Al6  1  0.79460198  0.08750784  0.34440875  1
  Al  Al7  1  0.88462602  0.19763274  0.06742815  1
  Al  Al8  1  0.43864882  0.09479879  0.89085623  1
  Al  Al9  1  0.54600582  0.20552524  0.65222238  1
  Al  Al10  1  0.12769237  0.42512378  0.41814920  1
  Al  Al11  1  0.21420095  0.54987244  0.14328115  1
  Al  Al12  1  0.79296380  0.41711462  0.83064995  1
  Al  Al13  1  0.89694084  0.53291999  0.59371492  1
  Al  Al14  1  0.43790737  0.42434346  0.41168295  1
  Al  Al15  1  0.55629212  0.53891084  0.05336379  1
  Al  Al16  1  0.11635781  0.42919079  0.88936652  1
  Al  Al17  1  0.21473623  0.54010346  0.65346959  1
  Al  Al18  1  0.88283147  0.55127550  0.05812253  1
  Al  Al19  1  0.43084715  0.43020246  0.89024782  1
  Al  Al20  1  0.12175899  0.75583551  0.40043805  1
  Al  Al21  1  0.21580916  0.86730186  0.14314307  1
  Al  Al22  1  0.77642482  0.76033832  0.83450883  1
  Al  Al23  1  0.89934544  0.86961793  0.64788412  1
  Al  Al24  1  0.43443939  0.77443915  0.41703598  1
  Al  Al25  1  0.10465985  0.76297715  0.90347658  1
  Al  Al26  1  0.21247238  0.87982340  0.65481269  1
  Al  Al27  1  0.78404492  0.76786988  0.41169663  1
  Al  Al28  1  0.90342985  0.85794645  0.16296704  1
  Al  Al29  1  0.43164587  0.77218129  0.88970062  1
  Al  Al30  1  0.54431990  0.88403147  0.64943638  1
  Gd  Gd31  1  0.19903204  0.21621074  0.15475644  1
  Gd  Gd32  1  0.54987448  0.21569630  0.14723948  1
  Gd  Gd33  1  0.77790165  0.43309970  0.32607287  1
  Gd  Gd34  1  0.54936032  0.54127591  0.62981340  1
  Gd  Gd35  1  0.55147611  0.86189096  0.16091528  1
  N  N36  1  0.23077209  0.20277984  0.37214480  1
  N  N37  1  0.10653328  0.07304324  0.07161381  1
  N  N38  1  0.88143257  0.20240436  0.88609943  1
  N  N39  1  0.77743498  0.09779665  0.64200808  1
  N  N40  1  0.56241767  0.20167716  0.36530433  1
  N  N41  1  0.43554454  0.09326777  0.06578891  1
  N  N42  1  0.21555562  0.20682154  0.83800305  1
  N  N43  1  0.11604792  0.09081381  0.60010700  1
  N  N44  1  0.90202547  0.18577513  0.40685989  1
  N  N45  1  0.81144334  0.08285829  0.15895946  1
  N  N46  1  0.54625058  0.21028125  0.83923407  1
  N  N47  1  0.44151463  0.09757307  0.60409898  1
  N  N48  1  0.22782703  0.53299648  0.33486169  1
  N  N49  1  0.10588205  0.45249700  0.06942640  1
  N  N50  1  0.88575340  0.54225443  0.87529449  1
  N  N51  1  0.81422825  0.40651488  0.65140280  1
  N  N52  1  0.53145071  0.55337259  0.39946777  1
  N  N53  1  0.42142864  0.45537696  0.06745709  1
  N  N54  1  0.21688979  0.54677847  0.83304759  1
  N  N55  1  0.11916147  0.42398755  0.60220462  1
  N  N56  1  0.90328161  0.54772780  0.41254481  1
  N  N57  1  0.77546904  0.42918047  0.10519458  1
  N  N58  1  0.55951423  0.53652545  0.86283160  1
  N  N59  1  0.42215558  0.41067202  0.59069642  1
  N  N60  1  0.22789020  0.87462565  0.33506678  1
  N  N61  1  0.10838464  0.76210795  0.08880507  1
  N  N62  1  0.89402866  0.86849961  0.83438201  1
  N  N63  1  0.77753992  0.76310734  0.62300407  1
  N  N64  1  0.56274729  0.87273238  0.37932287  1
  N  N65  1  0.42321300  0.75630368  0.06699219  1
  N  N66  1  0.21536080  0.86996343  0.83451645  1
  N  N67  1  0.11718780  0.75823376  0.58634654  1
  N  N68  1  0.90270263  0.86184435  0.35334955  1
  N  N69  1  0.79920460  0.75318642  0.11525645  1
  N  N70  1  0.54840471  0.87454774  0.83292221  1
  N  N71  1  0.42018638  0.80036577  0.59461238  1
