# generated using pymatgen
data_Gd5Al31N36
_symmetry_space_group_name_H-M   'P 1'
_cell_length_a   9.64248480
_cell_length_b   9.65418454
_cell_length_c   10.72098644
_cell_angle_alpha   89.84891112
_cell_angle_beta   89.48013614
_cell_angle_gamma   60.02010201
_symmetry_Int_Tables_number   1
_chemical_formula_structural   Gd5Al31N36
_chemical_formula_sum   'Gd5 Al31 N36'
_cell_volume   864.44816077
_cell_formula_units_Z   1
loop_
 _symmetry_equiv_pos_site_id
 _symmetry_equiv_pos_as_xyz
  1  'x, y, z'
loop_
 _atom_site_type_symbol
 _atom_site_label
 _atom_site_symmetry_multiplicity
 _atom_site_fract_x
 _atom_site_fract_y
 _atom_site_fract_z
 _atom_site_occupancy
  Al  Al0  1  0.12197202  0.08030244  0.39744848  1
  Al  Al1  1  0.77674810  0.09137549  0.79723864  1
  Al  Al2  1  0.89049845  0.20008508  0.56615328  1
  Al  Al3  1  0.44984141  0.09247727  0.32989380  1
  Al  Al4  1  0.11823082  0.08744655  0.86880964  1
  Al  Al5  1  0.21801794  0.20744868  0.61087403  1
  Al  Al6  1  0.78770085  0.08745605  0.31361211  1
  Al  Al7  1  0.88642790  0.19677023  0.03964283  1
  Al  Al8  1  0.44583087  0.09313041  0.78513725  1
  Al  Al9  1  0.55657442  0.20237569  0.55570087  1
  Al  Al10  1  0.12188147  0.43172470  0.39768608  1
  Al  Al11  1  0.21275421  0.54501183  0.12639336  1
  Al  Al12  1  0.78614557  0.42296774  0.80903070  1
  Al  Al13  1  0.89070692  0.54262391  0.56656095  1
  Al  Al14  1  0.44228772  0.42944381  0.30279860  1
  Al  Al15  1  0.54839296  0.54289872  0.04367789  1
  Al  Al16  1  0.11864590  0.42603312  0.86888362  1
  Al  Al17  1  0.21343919  0.53790083  0.63433774  1
  Al  Al18  1  0.88650607  0.54975772  0.03942313  1
  Al  Al19  1  0.44649576  0.42162091  0.79907741  1
  Al  Al20  1  0.10245181  0.76596948  0.30796312  1
  Al  Al21  1  0.21330436  0.87554167  0.12556032  1
  Al  Al22  1  0.77678550  0.76384603  0.79707461  1
  Al  Al23  1  0.89051812  0.87137403  0.55500701  1
  Al  Al24  1  0.44241457  0.76323970  0.30237983  1
  Al  Al25  1  0.09933884  0.76613565  0.81047295  1
  Al  Al26  1  0.21311567  0.88173338  0.63458177  1
  Al  Al27  1  0.78770875  0.75907116  0.31393547  1
  Al  Al28  1  0.89960779  0.86672245  0.06221554  1
  Al  Al29  1  0.44617660  0.76415922  0.79941822  1
  Al  Al30  1  0.55636651  0.87463760  0.55583900  1
  Gd  Gd31  1  0.18216019  0.22523748  0.14848696  1
  Gd  Gd32  1  0.55684920  0.20632356  0.05353695  1
  Gd  Gd33  1  0.78692512  0.42416641  0.29458566  1
  Gd  Gd34  1  0.55686500  0.53862157  0.55908320  1
  Gd  Gd35  1  0.55751239  0.87203843  0.05316636  1
  N  N36  1  0.21944299  0.20749505  0.36319908  1
  N  N37  1  0.11128051  0.07212860  0.04597576  1
  N  N38  1  0.88065416  0.20208969  0.85971593  1
  N  N39  1  0.77852483  0.09061986  0.61673979  1
  N  N40  1  0.56055544  0.20881088  0.37026666  1
  N  N41  1  0.43946839  0.09754193  0.15380997  1
  N  N42  1  0.21666296  0.20772524  0.80988268  1
  N  N43  1  0.11651966  0.08737938  0.57453120  1
  N  N44  1  0.89494435  0.18578234  0.38514137  1
  N  N45  1  0.80667301  0.08152113  0.13172275  1
  N  N46  1  0.55345511  0.20124527  0.84155382  1
  N  N47  1  0.44884305  0.09214936  0.60396959  1
  N  N48  1  0.21547102  0.53501384  0.31433387  1
  N  N49  1  0.11147528  0.44982605  0.04631406  1
  N  N50  1  0.88118169  0.54899191  0.85948086  1
  N  N51  1  0.81211904  0.41028586  0.62987338  1
  N  N52  1  0.53215896  0.55143468  0.35351885  1
  N  N53  1  0.43801045  0.44986221  0.12068777  1
  N  N54  1  0.21823409  0.54045100  0.81553001  1
  N  N55  1  0.11671034  0.42896580  0.57478485  1
  N  N56  1  0.89491709  0.55372242  0.38588826  1
  N  N57  1  0.78423037  0.42422819  0.08021532  1
  N  N58  1  0.55207377  0.53998209  0.85650283  1
  N  N59  1  0.43607289  0.41041801  0.62135217  1
  N  N60  1  0.21552190  0.88426440  0.31341561  1
  N  N61  1  0.10477727  0.76444281  0.12254862  1
  N  N62  1  0.88176136  0.87498028  0.87298673  1
  N  N63  1  0.77840745  0.76379035  0.61676103  1
  N  N64  1  0.56045402  0.86531707  0.37034407  1
  N  N65  1  0.43876320  0.74654696  0.11989185  1
  N  N66  1  0.21774803  0.87358166  0.81588183  1
  N  N67  1  0.10180742  0.76547157  0.61935042  1
  N  N68  1  0.88965484  0.87231257  0.37391144  1
  N  N69  1  0.80704635  0.74402330  0.13194398  1
  N  N70  1  0.55357614  0.87702609  0.84127977  1
  N  N71  1  0.43559584  0.78689123  0.62162326  1
