# generated using pymatgen
data_Gd5Al31N36
_symmetry_space_group_name_H-M   'P 1'
_cell_length_a   9.72317292
_cell_length_b   9.73948120
_cell_length_c   10.34111403
_cell_angle_alpha   90.27167725
_cell_angle_beta   90.21786417
_cell_angle_gamma   59.81562232
_symmetry_Int_Tables_number   1
_chemical_formula_structural   Gd5Al31N36
_chemical_formula_sum   'Gd5 Al31 N36'
_cell_volume   846.49898550
_cell_formula_units_Z   1
loop_
 _symmetry_equiv_pos_site_id
 _symmetry_equiv_pos_as_xyz
  1  'x, y, z'
loop_
 _atom_site_type_symbol
 _atom_site_label
 _atom_site_symmetry_multiplicity
 _atom_site_fract_x
 _atom_site_fract_y
 _atom_site_fract_z
 _atom_site_occupancy
  Al  Al0  1  0.11170413  0.08651224  0.41179190  1
  Al  Al1  1  0.78210340  0.08534576  0.88774544  1
  Al  Al2  1  0.89461855  0.19480501  0.64969201  1
  Al  Al3  1  0.44449982  0.09249816  0.42483065  1
  Al  Al4  1  0.11650764  0.08780059  0.88779342  1
  Al  Al5  1  0.21715159  0.20875977  0.64673312  1
  Al  Al6  1  0.78282385  0.08394461  0.41307728  1
  Al  Al7  1  0.89410547  0.19942421  0.09695604  1
  Al  Al8  1  0.44324017  0.09607179  0.88678884  1
  Al  Al9  1  0.55258453  0.19996347  0.65182381  1
  Al  Al10  1  0.11195585  0.43371772  0.40687670  1
  Al  Al11  1  0.22041878  0.54957134  0.14558835  1
  Al  Al12  1  0.78873671  0.42451647  0.83509689  1
  Al  Al13  1  0.89497480  0.54294717  0.65140843  1
  Al  Al14  1  0.42799889  0.42515383  0.41451090  1
  Al  Al15  1  0.55932912  0.53863940  0.06161084  1
  Al  Al16  1  0.11056814  0.43367772  0.89428164  1
  Al  Al17  1  0.20990643  0.54062611  0.65068291  1
  Al  Al18  1  0.90111048  0.55024009  0.14169275  1
  Al  Al19  1  0.43476678  0.42606082  0.89046477  1
  Al  Al20  1  0.11351772  0.76040263  0.39473388  1
  Al  Al21  1  0.21838978  0.86714211  0.14537981  1
  Al  Al22  1  0.78579827  0.76024102  0.89399723  1
  Al  Al23  1  0.89327507  0.86751305  0.64962080  1
  Al  Al24  1  0.42971718  0.77550096  0.41210126  1
  Al  Al25  1  0.11122997  0.76106430  0.90056685  1
  Al  Al26  1  0.21245504  0.87949614  0.65029195  1
  Al  Al27  1  0.78365285  0.76339675  0.40594247  1
  Al  Al28  1  0.90095746  0.86924028  0.14705278  1
  Al  Al29  1  0.43586834  0.77204632  0.89012969  1
  Al  Al30  1  0.55478907  0.87717943  0.65124059  1
  Gd  Gd31  1  0.21018217  0.21185234  0.15508369  1
  Gd  Gd32  1  0.56484614  0.21299337  0.15412827  1
  Gd  Gd33  1  0.77046143  0.42699958  0.35242815  1
  Gd  Gd34  1  0.53821379  0.54625630  0.63116054  1
  Gd  Gd35  1  0.56186914  0.86175895  0.15061976  1
  N  N36  1  0.22187167  0.20436468  0.37661431  1
  N  N37  1  0.10912141  0.07408486  0.07014704  1
  N  N38  1  0.89241559  0.19908636  0.84496988  1
  N  N39  1  0.77856408  0.08921269  0.60138185  1
  N  N40  1  0.55612556  0.20035753  0.37336489  1
  N  N41  1  0.44393861  0.09842352  0.06763335  1
  N  N42  1  0.21750523  0.20975687  0.83747625  1
  N  N43  1  0.10792659  0.09363740  0.59868683  1
  N  N44  1  0.90350634  0.17014992  0.35496737  1
  N  N45  1  0.80455894  0.07438742  0.07021133  1
  N  N46  1  0.55790732  0.20524376  0.83959015  1
  N  N47  1  0.44284353  0.09365887  0.60856813  1
  N  N48  1  0.22208492  0.53580565  0.33563951  1
  N  N49  1  0.10697786  0.45351069  0.07606418  1
  N  N50  1  0.89370145  0.54378479  0.83794816  1
  N  N51  1  0.80207701  0.41509670  0.63459288  1
  N  N52  1  0.51640236  0.55560960  0.39980831  1
  N  N53  1  0.42696692  0.45285927  0.07256133  1
  N  N54  1  0.21765900  0.54420482  0.83516064  1
  N  N55  1  0.10460587  0.43304248  0.59199800  1
  N  N56  1  0.90654415  0.55672372  0.32998499  1
  N  N57  1  0.78123408  0.42857729  0.11306767  1
  N  N58  1  0.56183670  0.53602675  0.86750132  1
  N  N59  1  0.41742876  0.40808054  0.59655756  1
  N  N60  1  0.22227653  0.87480769  0.33554719  1
  N  N61  1  0.11259737  0.76160527  0.08921422  1
  N  N62  1  0.89492639  0.86712677  0.83365926  1
  N  N63  1  0.78020872  0.76025669  0.59359534  1
  N  N64  1  0.55676600  0.87222685  0.36992064  1
  N  N65  1  0.42532934  0.75688356  0.07223028  1
  N  N66  1  0.21965190  0.86863828  0.83387869  1
  N  N67  1  0.11258767  0.75988765  0.58504620  1
  N  N68  1  0.88783790  0.87229117  0.33932321  1
  N  N69  1  0.80613532  0.75565672  0.07609989  1
  N  N70  1  0.56005771  0.86908031  0.84070562  1
  N  N71  1  0.41971513  0.80436609  0.59471133  1
