# generated using pymatgen
data_Gd5Al31N36
_symmetry_space_group_name_H-M   'P 1'
_cell_length_a   9.68457084
_cell_length_b   9.70650081
_cell_length_c   10.55873272
_cell_angle_alpha   90.00002271
_cell_angle_beta   89.20116013
_cell_angle_gamma   59.92503268
_symmetry_Int_Tables_number   1
_chemical_formula_structural   Gd5Al31N36
_chemical_formula_sum   'Gd5 Al31 N36'
_cell_volume   858.81685682
_cell_formula_units_Z   1
loop_
 _symmetry_equiv_pos_site_id
 _symmetry_equiv_pos_as_xyz
  1  'x, y, z'
loop_
 _atom_site_type_symbol
 _atom_site_label
 _atom_site_symmetry_multiplicity
 _atom_site_fract_x
 _atom_site_fract_y
 _atom_site_fract_z
 _atom_site_occupancy
  Al  Al0  1  0.12377806  0.08024911  0.40189352  1
  Al  Al1  1  0.77409997  0.09251429  0.80316403  1
  Al  Al2  1  0.88795424  0.20100946  0.56804439  1
  Al  Al3  1  0.44900171  0.09216565  0.33093180  1
  Al  Al4  1  0.11703366  0.08843520  0.86571070  1
  Al  Al5  1  0.21546480  0.20893405  0.61963912  1
  Al  Al6  1  0.79770307  0.07996830  0.31574389  1
  Al  Al7  1  0.88982885  0.19436713  0.04258101  1
  Al  Al8  1  0.44647970  0.09342655  0.79481110  1
  Al  Al9  1  0.55914985  0.19380552  0.55658461  1
  Al  Al10  1  0.12377813  0.42930573  0.40189358  1
  Al  Al11  1  0.21634932  0.54841639  0.12326638  1
  Al  Al12  1  0.79252199  0.42040554  0.80825308  1
  Al  Al13  1  0.88795427  0.54436931  0.56804446  1
  Al  Al14  1  0.43257080  0.42812198  0.38231133  1
  Al  Al15  1  0.56012211  0.53660527  0.03830147  1
  Al  Al16  1  0.11703372  0.42786409  0.86571063  1
  Al  Al17  1  0.21407873  0.54081956  0.63084035  1
  Al  Al18  1  0.88982903  0.54913694  0.04258095  1
  Al  Al19  1  0.43189288  0.43147712  0.86881098  1
  Al  Al20  1  0.12389014  0.75472136  0.37804471  1
  Al  Al21  1  0.21634909  0.86856721  0.12326644  1
  Al  Al22  1  0.77409986  0.76671890  0.80316423  1
  Al  Al23  1  0.88850222  0.87241541  0.55807419  1
  Al  Al24  1  0.43257072  0.77264003  0.38231125  1
  Al  Al25  1  0.11424476  0.75954415  0.87885724  1
  Al  Al26  1  0.21407876  0.87843472  0.63084032  1
  Al  Al27  1  0.79770331  0.75566149  0.31574387  1
  Al  Al28  1  0.89909962  0.86711668  0.06522440  1
  Al  Al29  1  0.43189287  0.76996303  0.86881125  1
  Al  Al30  1  0.55914988  0.88037752  0.55658436  1
  Gd  Gd31  1  0.16844764  0.23244267  0.15400430  1
  Gd  Gd32  1  0.56002692  0.20166518  0.07437942  1
  Gd  Gd33  1  0.77401779  0.42965763  0.30857738  1
  Gd  Gd34  1  0.54125031  0.54604136  0.60743378  1
  Gd  Gd35  1  0.56002680  0.87164024  0.07438034  1
  N  N36  1  0.22279721  0.20526781  0.37187567  1
  N  N37  1  0.11311678  0.07151569  0.04599403  1
  N  N38  1  0.88142113  0.20287476  0.86006683  1
  N  N39  1  0.77723777  0.09079217  0.62033711  1
  N  N40  1  0.57012920  0.19593325  0.36615883  1
  N  N41  1  0.42253337  0.10539983  0.15538006  1
  N  N42  1  0.21459308  0.20936988  0.80933949  1
  N  N43  1  0.11084021  0.09045504  0.58291583  1
  N  N44  1  0.89996007  0.18252384  0.38525813  1
  N  N45  1  0.81687874  0.07535409  0.13461048  1
  N  N46  1  0.55076945  0.20445335  0.85199251  1
  N  N47  1  0.44943276  0.09195006  0.61250759  1
  N  N48  1  0.22149448  0.53465457  0.31196477  1
  N  N49  1  0.11311696  0.44870033  0.04599395  1
  N  N50  1  0.88142118  0.54903712  0.86006682  1
  N  N51  1  0.80804913  0.41264200  0.62586867  1
  N  N52  1  0.52571777  0.55380747  0.37111092  1
  N  N53  1  0.42439012  0.45630466  0.05275985  1
  N  N54  1  0.21888034  0.54595510  0.81046606  1
  N  N55  1  0.11084025  0.43203774  0.58291589  1
  N  N56  1  0.89996018  0.55084900  0.38525817  1
  N  N57  1  0.78365970  0.42483674  0.08681443  1
  N  N58  1  0.55916318  0.53708489  0.84342864  1
  N  N59  1  0.41902699  0.41169438  0.56321056  1
  N  N60  1  0.22149439  0.87718380  0.31196477  1
  N  N61  1  0.11911203  0.75711040  0.06304251  1
  N  N62  1  0.87863537  0.87734889  0.87372359  1
  N  N63  1  0.77723766  0.76530323  0.62033719  1
  N  N64  1  0.57012922  0.86727026  0.36615853  1
  N  N65  1  0.42438983  0.75263795  0.05275996  1
  N  N66  1  0.21888042  0.86849750  0.81046605  1
  N  N67  1  0.12166909  0.75583196  0.56564813  1
  N  N68  1  0.89435483  0.86948908  0.37552627  1
  N  N69  1  0.81687898  0.74110014  0.13461048  1
  N  N70  1  0.55076947  0.87811024  0.85199320  1
  N  N71  1  0.41902698  0.80261171  0.56321043  1
