# generated using pymatgen
data_Gd5Al31N36
_symmetry_space_group_name_H-M   'P 1'
_cell_length_a   9.72785898
_cell_length_b   9.75550656
_cell_length_c   10.44963028
_cell_angle_alpha   89.99792973
_cell_angle_beta   89.00985380
_cell_angle_gamma   59.92693794
_symmetry_Int_Tables_number   1
_chemical_formula_structural   Gd5Al31N36
_chemical_formula_sum   'Gd5 Al31 N36'
_cell_volume   858.00934645
_cell_formula_units_Z   1
loop_
 _symmetry_equiv_pos_site_id
 _symmetry_equiv_pos_as_xyz
  1  'x, y, z'
loop_
 _atom_site_type_symbol
 _atom_site_label
 _atom_site_symmetry_multiplicity
 _atom_site_fract_x
 _atom_site_fract_y
 _atom_site_fract_z
 _atom_site_occupancy
  Al  Al0  1  0.12377706  0.08206739  0.42115955  1
  Al  Al1  1  0.77132234  0.09325415  0.83058155  1
  Al  Al2  1  0.89195092  0.19976126  0.59417150  1
  Al  Al3  1  0.44366496  0.09484001  0.40793458  1
  Al  Al4  1  0.11553596  0.08680612  0.88831102  1
  Al  Al5  1  0.22570475  0.20382252  0.65306061  1
  Al  Al6  1  0.80336624  0.07681205  0.33899339  1
  Al  Al7  1  0.88560924  0.19581167  0.06459779  1
  Al  Al8  1  0.43921629  0.09706326  0.90089378  1
  Al  Al9  1  0.56235162  0.19652025  0.59136127  1
  Al  Al10  1  0.12375970  0.42747940  0.42115778  1
  Al  Al11  1  0.21033903  0.55356648  0.14497926  1
  Al  Al12  1  0.79174125  0.42078188  0.83308230  1
  Al  Al13  1  0.89194012  0.54162699  0.59417687  1
  Al  Al14  1  0.43158127  0.43147528  0.40603834  1
  Al  Al15  1  0.55534709  0.53900662  0.06218332  1
  Al  Al16  1  0.11552776  0.43097886  0.88831787  1
  Al  Al17  1  0.21601229  0.53875961  0.65386782  1
  Al  Al18  1  0.88560049  0.55188975  0.06460536  1
  Al  Al19  1  0.43425556  0.42677151  0.89628182  1
  Al  Al20  1  0.12362730  0.75484376  0.40188296  1
  Al  Al21  1  0.21034737  0.86943132  0.14497569  1
  Al  Al22  1  0.77132171  0.76874360  0.83058387  1
  Al  Al23  1  0.88955726  0.87188818  0.58483568  1
  Al  Al24  1  0.43158680  0.77028745  0.40603889  1
  Al  Al25  1  0.11586079  0.75872567  0.90011664  1
  Al  Al26  1  0.21601234  0.87856369  0.65387261  1
  Al  Al27  1  0.80335358  0.75313848  0.33899946  1
  Al  Al28  1  0.89396457  0.86967824  0.08277411  1
  Al  Al29  1  0.43425684  0.77230289  0.89628163  1
  Al  Al30  1  0.56234098  0.87450672  0.59136502  1
  Gd  Gd31  1  0.17969600  0.22681709  0.16037366  1
  Gd  Gd32  1  0.55109571  0.21760925  0.13847747  1
  Gd  Gd33  1  0.77741694  0.42793414  0.33395803  1
  Gd  Gd34  1  0.54241161  0.54548630  0.63509063  1
  Gd  Gd35  1  0.55109680  0.86468974  0.13847233  1
  N  N36  1  0.22249355  0.20543810  0.37670234  1
  N  N37  1  0.10578028  0.07162337  0.06978279  1
  N  N38  1  0.88260679  0.20296420  0.88025273  1
  N  N39  1  0.77910247  0.09046558  0.64410600  1
  N  N40  1  0.56708979  0.19966635  0.37647665  1
  N  N41  1  0.41624088  0.10854811  0.08567461  1
  N  N42  1  0.21995335  0.20670540  0.83853299  1
  N  N43  1  0.11626148  0.09134444  0.60550423  1
  N  N44  1  0.90140826  0.18082037  0.40951297  1
  N  N45  1  0.81641059  0.07379811  0.15554607  1
  N  N46  1  0.55431083  0.20575138  0.87801433  1
  N  N47  1  0.44630452  0.09350694  0.59265056  1
  N  N48  1  0.22107772  0.53558425  0.33603899  1
  N  N49  1  0.10576979  0.45589469  0.06979034  1
  N  N50  1  0.88259449  0.54778790  0.88024863  1
  N  N51  1  0.80806464  0.41260408  0.64754566  1
  N  N52  1  0.52703874  0.55318080  0.39220264  1
  N  N53  1  0.41878915  0.46106123  0.07696795  1
  N  N54  1  0.22132314  0.54419982  0.83403945  1
  N  N55  1  0.11624937  0.42569757  0.60549712  1
  N  N56  1  0.90138364  0.55113218  0.40952508  1
  N  N57  1  0.77897285  0.42714220  0.11003995  1
  N  N58  1  0.55952439  0.53692447  0.86788769  1
  N  N59  1  0.42201241  0.41108427  0.58682134  1
  N  N60  1  0.22108729  0.87668959  0.33603401  1
  N  N61  1  0.11384154  0.75972818  0.08596384  1
  N  N62  1  0.88193295  0.87571020  0.89278546  1
  N  N63  1  0.77908996  0.76372446  0.64410737  1
  N  N64  1  0.56708116  0.86664797  0.37647473  1
  N  N65  1  0.41881682  0.75344870  0.07697267  1
  N  N66  1  0.22131909  0.86783699  0.83404643  1
  N  N67  1  0.12286932  0.75521346  0.59021988  1
  N  N68  1  0.89454544  0.86940218  0.40027558  1
  N  N69  1  0.81641830  0.74304602  0.15555080  1
  N  N70  1  0.55430546  0.87333173  0.87801723  1
  N  N71  1  0.42199843  0.80022637  0.58681804  1
