# generated using pymatgen
data_Gd5Al31N36
_symmetry_space_group_name_H-M   'P 1'
_cell_length_a   9.68849865
_cell_length_b   9.69517632
_cell_length_c   10.61765328
_cell_angle_alpha   90.01314014
_cell_angle_beta   88.72005207
_cell_angle_gamma   59.98615200
_symmetry_Int_Tables_number   1
_chemical_formula_structural   Gd5Al31N36
_chemical_formula_sum   'Gd5 Al31 N36'
_cell_volume   863.30587003
_cell_formula_units_Z   1
loop_
 _symmetry_equiv_pos_site_id
 _symmetry_equiv_pos_as_xyz
  1  'x, y, z'
loop_
 _atom_site_type_symbol
 _atom_site_label
 _atom_site_symmetry_multiplicity
 _atom_site_fract_x
 _atom_site_fract_y
 _atom_site_fract_z
 _atom_site_occupancy
  Al  Al0  1  0.12769070  0.08198715  0.41807794  1
  Al  Al1  1  0.77719983  0.09690707  0.82497676  1
  Al  Al2  1  0.89197661  0.20118618  0.58901046  1
  Al  Al3  1  0.45385562  0.08958485  0.42308277  1
  Al  Al4  1  0.11335029  0.08778326  0.89137865  1
  Al  Al5  1  0.21773205  0.20781643  0.65361862  1
  Al  Al6  1  0.79411018  0.08692038  0.34872510  1
  Al  Al7  1  0.88453550  0.19860194  0.06677297  1
  Al  Al8  1  0.43665961  0.09846119  0.88960578  1
  Al  Al9  1  0.54602505  0.20498772  0.65122830  1
  Al  Al10  1  0.12766749  0.42350491  0.41803154  1
  Al  Al11  1  0.21507881  0.54992975  0.14388819  1
  Al  Al12  1  0.79206532  0.42067824  0.83163409  1
  Al  Al13  1  0.89191001  0.54019188  0.58889810  1
  Al  Al14  1  0.43656259  0.42323883  0.41370441  1
  Al  Al15  1  0.55592873  0.53875760  0.05324596  1
  Al  Al16  1  0.11333417  0.43227853  0.89143936  1
  Al  Al17  1  0.21281080  0.54054417  0.65393048  1
  Al  Al18  1  0.88461196  0.55010888  0.06683800  1
  Al  Al19  1  0.42980906  0.43074787  0.88965014  1
  Al  Al20  1  0.12351050  0.75484850  0.40153895  1
  Al  Al21  1  0.21510599  0.86838683  0.14393865  1
  Al  Al22  1  0.77725249  0.75924615  0.82504623  1
  Al  Al23  1  0.89601159  0.86863531  0.64206018  1
  Al  Al24  1  0.43665882  0.77335553  0.41347953  1
  Al  Al25  1  0.10328564  0.76507297  0.90223448  1
  Al  Al26  1  0.21289742  0.87992999  0.65387485  1
  Al  Al27  1  0.79419330  0.75204188  0.34833592  1
  Al  Al28  1  0.91019748  0.86165850  0.16518318  1
  Al  Al29  1  0.42979631  0.77283211  0.88968954  1
  Al  Al30  1  0.54600860  0.88231407  0.65136400  1
  Gd  Gd31  1  0.19924041  0.21706212  0.15568854  1
  Gd  Gd32  1  0.54978229  0.21888738  0.15017462  1
  Gd  Gd33  1  0.77618796  0.42838645  0.32782529  1
  Gd  Gd34  1  0.54842194  0.54249610  0.62973734  1
  Gd  Gd35  1  0.55002879  0.86490131  0.14969242  1
  N  N36  1  0.23216908  0.20049642  0.37248241  1
  N  N37  1  0.10687462  0.07377881  0.07112137  1
  N  N38  1  0.88055206  0.20460436  0.88558196  1
  N  N39  1  0.77780221  0.09709224  0.64135121  1
  N  N40  1  0.56284040  0.20028414  0.36742024  1
  N  N41  1  0.43542844  0.09919267  0.06485539  1
  N  N42  1  0.21344080  0.21000097  0.83753832  1
  N  N43  1  0.11618213  0.09118110  0.60101112  1
  N  N44  1  0.90274652  0.18425316  0.40922595  1
  N  N45  1  0.81158462  0.08453854  0.15987170  1
  N  N46  1  0.54555095  0.21135936  0.83767465  1
  N  N47  1  0.44296044  0.09512755  0.60311330  1
  N  N48  1  0.22796377  0.53143305  0.33474437  1
  N  N49  1  0.10691872  0.45264409  0.07116103  1
  N  N50  1  0.88053836  0.54826513  0.88566552  1
  N  N51  1  0.81395862  0.40969693  0.65186862  1
  N  N52  1  0.52958236  0.55177950  0.40008096  1
  N  N53  1  0.42144596  0.45575280  0.06711125  1
  N  N54  1  0.21491430  0.54780472  0.83366698  1
  N  N55  1  0.11612646  0.42596628  0.60093635  1
  N  N56  1  0.90269409  0.54619519  0.40907032  1
  N  N57  1  0.77416548  0.42958190  0.10768667  1
  N  N58  1  0.55837022  0.53753532  0.86311905  1
  N  N59  1  0.42102953  0.41092137  0.59219922  1
  N  N60  1  0.22792277  0.87378505  0.33476230  1
  N  N61  1  0.10994083  0.76173832  0.08752782  1
  N  N62  1  0.89150046  0.87096938  0.83967377  1
  N  N63  1  0.77777136  0.75837407  0.64142764  1
  N  N64  1  0.56283940  0.87005099  0.36697781  1
  N  N65  1  0.42147142  0.75625074  0.06715675  1
  N  N66  1  0.21497584  0.87063862  0.83362332  1
  N  N67  1  0.11728358  0.75799410  0.58669249  1
  N  N68  1  0.90675018  0.86322851  0.35481521  1
  N  N69  1  0.81180989  0.73716354  0.15977586  1
  N  N70  1  0.54555694  0.87653302  0.83783795  1
  N  N71  1  0.42109551  0.80137499  0.59203671  1
