# generated using pymatgen
data_Gd5Al31N36
_symmetry_space_group_name_H-M   'P 1'
_cell_length_a   9.71835737
_cell_length_b   9.68657259
_cell_length_c   10.39814275
_cell_angle_alpha   89.95170541
_cell_angle_beta   89.27913013
_cell_angle_gamma   60.03013170
_symmetry_Int_Tables_number   1
_chemical_formula_structural   Gd5Al31N36
_chemical_formula_sum   'Gd5 Al31 N36'
_cell_volume   847.88752981
_cell_formula_units_Z   1
loop_
 _symmetry_equiv_pos_site_id
 _symmetry_equiv_pos_as_xyz
  1  'x, y, z'
loop_
 _atom_site_type_symbol
 _atom_site_label
 _atom_site_symmetry_multiplicity
 _atom_site_fract_x
 _atom_site_fract_y
 _atom_site_fract_z
 _atom_site_occupancy
  Al  Al0  1  0.11929108  0.08364168  0.38483951  1
  Al  Al1  1  0.77367142  0.09110118  0.80124245  1
  Al  Al2  1  0.88970432  0.20095370  0.57170319  1
  Al  Al3  1  0.44490780  0.09493426  0.32854892  1
  Al  Al4  1  0.10551780  0.09674314  0.80631199  1
  Al  Al5  1  0.22295841  0.21347374  0.56954527  1
  Al  Al6  1  0.79011906  0.08459838  0.31817143  1
  Al  Al7  1  0.89484282  0.19397715  0.04235639  1
  Al  Al8  1  0.44435236  0.09387175  0.78466032  1
  Al  Al9  1  0.55473025  0.20409086  0.55689202  1
  Al  Al10  1  0.11303436  0.43440986  0.31814288  1
  Al  Al11  1  0.21202860  0.55216858  0.06490239  1
  Al  Al12  1  0.78212376  0.42709827  0.82053903  1
  Al  Al13  1  0.89673068  0.53919577  0.56490087  1
  Al  Al14  1  0.43648647  0.43606058  0.30772133  1
  Al  Al15  1  0.54137403  0.54629959  0.04766726  1
  Al  Al16  1  0.10779588  0.43451323  0.79897720  1
  Al  Al17  1  0.21666421  0.53931908  0.55809822  1
  Al  Al18  1  0.89414319  0.54650617  0.05185591  1
  Al  Al19  1  0.43210764  0.42631956  0.80577436  1
  Al  Al20  1  0.10732133  0.75671276  0.31580028  1
  Al  Al21  1  0.21100326  0.87806778  0.13703915  1
  Al  Al22  1  0.77700710  0.76459525  0.80122360  1
  Al  Al23  1  0.88880583  0.87058496  0.55916156  1
  Al  Al24  1  0.44531402  0.75797662  0.31066610  1
  Al  Al25  1  0.10330828  0.75913559  0.81163078  1
  Al  Al26  1  0.21777699  0.87064119  0.62276547  1
  Al  Al27  1  0.78807336  0.75935516  0.31657637  1
  Al  Al28  1  0.90166654  0.86819311  0.06673188  1
  Al  Al29  1  0.44078071  0.76830566  0.80159561  1
  Al  Al30  1  0.55839848  0.87278970  0.55573455  1
  Gd  Gd31  1  0.21944015  0.21273104  0.05156694  1
  Gd  Gd32  1  0.56575237  0.20654260  0.06443516  1
  Gd  Gd33  1  0.79563977  0.41511694  0.29299693  1
  Gd  Gd34  1  0.56083215  0.53212568  0.56904016  1
  Gd  Gd35  1  0.56311309  0.86392468  0.06037439  1
  N  N36  1  0.21963790  0.21152629  0.37979626  1
  N  N37  1  0.10079171  0.08442485  0.08880810  1
  N  N38  1  0.88392307  0.19987573  0.85694332  1
  N  N39  1  0.77554972  0.09176937  0.61810307  1
  N  N40  1  0.56046841  0.20972442  0.36795962  1
  N  N41  1  0.44406243  0.09482229  0.15134975  1
  N  N42  1  0.21979935  0.20729522  0.82748470  1
  N  N43  1  0.11329085  0.09226074  0.59757469  1
  N  N44  1  0.89860353  0.18086497  0.39043235  1
  N  N45  1  0.81158065  0.07990384  0.13403874  1
  N  N46  1  0.55041517  0.20246833  0.84618022  1
  N  N47  1  0.44776153  0.09263294  0.60115561  1
  N  N48  1  0.22353970  0.54002341  0.37372287  1
  N  N49  1  0.09437270  0.45603278  0.13377256  1
  N  N50  1  0.89062524  0.54634322  0.86601522  1
  N  N51  1  0.81350273  0.41168282  0.63379150  1
  N  N52  1  0.54299962  0.54375919  0.35612437  1
  N  N53  1  0.42383039  0.45660435  0.12293961  1
  N  N54  1  0.21526878  0.54006159  0.87434095  1
  N  N55  1  0.10987279  0.43442177  0.61751159  1
  N  N56  1  0.90142059  0.54997740  0.38351966  1
  N  N57  1  0.77407797  0.42935152  0.07273670  1
  N  N58  1  0.54590349  0.54290244  0.85470491  1
  N  N59  1  0.42307205  0.41446778  0.62459817  1
  N  N60  1  0.22069086  0.87220843  0.33336806  1
  N  N61  1  0.10825969  0.75991074  0.12715631  1
  N  N62  1  0.88305739  0.87479937  0.87317895  1
  N  N63  1  0.77787906  0.76238085  0.61726339  1
  N  N64  1  0.56145206  0.86503664  0.36830937  1
  N  N65  1  0.43270504  0.74866253  0.12436876  1
  N  N66  1  0.21524443  0.87294315  0.81534591  1
  N  N67  1  0.10426465  0.75641387  0.61995345  1
  N  N68  1  0.89091307  0.87022442  0.37605661  1
  N  N69  1  0.80741793  0.74933137  0.13229208  1
  N  N70  1  0.55255435  0.87730451  0.84223112  1
  N  N71  1  0.43636586  0.78549965  0.61729284  1
