# generated using pymatgen
data_Gd5Al31N36
_symmetry_space_group_name_H-M   'P 1'
_cell_length_a   9.69691084
_cell_length_b   9.68461931
_cell_length_c   10.63581720
_cell_angle_alpha   89.60037605
_cell_angle_beta   89.08594698
_cell_angle_gamma   60.09163666
_symmetry_Int_Tables_number   1
_chemical_formula_structural   Gd5Al31N36
_chemical_formula_sum   'Gd5 Al31 N36'
_cell_volume   865.68958281
_cell_formula_units_Z   1
loop_
 _symmetry_equiv_pos_site_id
 _symmetry_equiv_pos_as_xyz
  1  'x, y, z'
loop_
 _atom_site_type_symbol
 _atom_site_label
 _atom_site_symmetry_multiplicity
 _atom_site_fract_x
 _atom_site_fract_y
 _atom_site_fract_z
 _atom_site_occupancy
  Al  Al0  1  0.11971883  0.08110572  0.39166646  1
  Al  Al1  1  0.77369002  0.09114912  0.79777897  1
  Al  Al2  1  0.89153821  0.20045710  0.56717676  1
  Al  Al3  1  0.45200288  0.09301246  0.32670685  1
  Al  Al4  1  0.11279513  0.08389357  0.86914729  1
  Al  Al5  1  0.22789643  0.20204690  0.56913306  1
  Al  Al6  1  0.78770991  0.08855621  0.31544181  1
  Al  Al7  1  0.88383059  0.19747133  0.04159481  1
  Al  Al8  1  0.43768140  0.09577964  0.78919194  1
  Al  Al9  1  0.55728236  0.20244356  0.55682148  1
  Al  Al10  1  0.11987414  0.43564121  0.39421332  1
  Al  Al11  1  0.21061711  0.54693102  0.13237106  1
  Al  Al12  1  0.78212877  0.42337178  0.81124957  1
  Al  Al13  1  0.89166572  0.54160245  0.56918880  1
  Al  Al14  1  0.44458760  0.43076433  0.30542940  1
  Al  Al15  1  0.54343178  0.54575358  0.04513124  1
  Al  Al16  1  0.11296684  0.42991518  0.86490569  1
  Al  Al17  1  0.21436842  0.53760532  0.63051478  1
  Al  Al18  1  0.88489610  0.55092933  0.04009812  1
  Al  Al19  1  0.44324264  0.42146678  0.79911897  1
  Al  Al20  1  0.10272868  0.76727743  0.31405436  1
  Al  Al21  1  0.21195096  0.87419483  0.12917891  1
  Al  Al22  1  0.77386542  0.76515533  0.79730214  1
  Al  Al23  1  0.88938282  0.87222220  0.55605305  1
  Al  Al24  1  0.44416008  0.76307048  0.30351932  1
  Al  Al25  1  0.09713925  0.76536238  0.80891232  1
  Al  Al26  1  0.21339305  0.88149645  0.63201545  1
  Al  Al27  1  0.78789309  0.76053786  0.31621710  1
  Al  Al28  1  0.90138152  0.86558712  0.06545047  1
  Al  Al29  1  0.44333167  0.76466829  0.80008991  1
  Al  Al30  1  0.55670652  0.87429668  0.55694356  1
  Gd  Gd31  1  0.20510010  0.21302686  0.10376865  1
  Gd  Gd32  1  0.56400498  0.20809880  0.05452290  1
  Gd  Gd33  1  0.79394996  0.42378753  0.29298195  1
  Gd  Gd34  1  0.55875094  0.53825678  0.55961044  1
  Gd  Gd35  1  0.56502243  0.86659410  0.05369905  1
  N  N36  1  0.22410801  0.20676516  0.36823586  1
  N  N37  1  0.10267953  0.06695379  0.04847068  1
  N  N38  1  0.87694240  0.20184260  0.85985473  1
  N  N39  1  0.77820514  0.09097957  0.61681516  1
  N  N40  1  0.56121575  0.20927414  0.37097540  1
  N  N41  1  0.45355239  0.09208413  0.15196975  1
  N  N42  1  0.22058072  0.20326766  0.84779051  1
  N  N43  1  0.11715918  0.08808073  0.57344024  1
  N  N44  1  0.89542514  0.18675965  0.38482180  1
  N  N45  1  0.80809430  0.08010307  0.13425549  1
  N  N46  1  0.55088931  0.20095242  0.84136244  1
  N  N47  1  0.44724878  0.09282787  0.60556644  1
  N  N48  1  0.21888348  0.53831993  0.32216973  1
  N  N49  1  0.10366935  0.46148631  0.04962951  1
  N  N50  1  0.87850844  0.54950805  0.85819256  1
  N  N51  1  0.81119104  0.41025321  0.63073157  1
  N  N52  1  0.53939341  0.54961961  0.35176029  1
  N  N53  1  0.43415486  0.45171303  0.12275662  1
  N  N54  1  0.21587464  0.54056546  0.81324885  1
  N  N55  1  0.11726072  0.42641857  0.57682183  1
  N  N56  1  0.89631326  0.55556344  0.38793670  1
  N  N57  1  0.77905900  0.42663255  0.07745425  1
  N  N58  1  0.54809683  0.54030359  0.85638919  1
  N  N59  1  0.43601401  0.41087381  0.61964166  1
  N  N60  1  0.21817508  0.88163774  0.31722823  1
  N  N61  1  0.10369828  0.76456891  0.12792347  1
  N  N62  1  0.88015873  0.87441263  0.87379998  1
  N  N63  1  0.77773293  0.76422129  0.61697502  1
  N  N64  1  0.56073949  0.86660585  0.37073056  1
  N  N65  1  0.43589414  0.75004948  0.11970451  1
  N  N66  1  0.21546113  0.87209621  0.81476161  1
  N  N67  1  0.10119767  0.76575160  0.61683213  1
  N  N68  1  0.88866118  0.87409786  0.37539305  1
  N  N69  1  0.80857436  0.74262918  0.13445127  1
  N  N70  1  0.55163192  0.87634001  0.84075288  1
  N  N71  1  0.43486132  0.78689925  0.62057287  1
