# generated using pymatgen
data_Gd5Al31N36
_symmetry_space_group_name_H-M   'P 1'
_cell_length_a   9.67350444
_cell_length_b   9.68823960
_cell_length_c   10.60605588
_cell_angle_alpha   89.75567377
_cell_angle_beta   88.77697075
_cell_angle_gamma   60.11258959
_symmetry_Int_Tables_number   1
_chemical_formula_structural   Gd5Al31N36
_chemical_formula_sum   'Gd5 Al31 N36'
_cell_volume   861.57714081
_cell_formula_units_Z   1
loop_
 _symmetry_equiv_pos_site_id
 _symmetry_equiv_pos_as_xyz
  1  'x, y, z'
loop_
 _atom_site_type_symbol
 _atom_site_label
 _atom_site_symmetry_multiplicity
 _atom_site_fract_x
 _atom_site_fract_y
 _atom_site_fract_z
 _atom_site_occupancy
  Al  Al0  1  0.12705874  0.08261948  0.41745528  1
  Al  Al1  1  0.77718667  0.09768289  0.82525915  1
  Al  Al2  1  0.89152816  0.19963127  0.58678568  1
  Al  Al3  1  0.45071641  0.09474485  0.42472169  1
  Al  Al4  1  0.11399586  0.08622879  0.89265494  1
  Al  Al5  1  0.21863957  0.20604710  0.65443385  1
  Al  Al6  1  0.79467070  0.08614459  0.34383076  1
  Al  Al7  1  0.88464292  0.19765946  0.06743315  1
  Al  Al8  1  0.43833405  0.09509398  0.89099866  1
  Al  Al9  1  0.54606856  0.20535817  0.65217329  1
  Al  Al10  1  0.12716765  0.42509569  0.41800048  1
  Al  Al11  1  0.21475324  0.54980677  0.14377997  1
  Al  Al12  1  0.79311587  0.41724426  0.82978349  1
  Al  Al13  1  0.89651551  0.53380887  0.59418785  1
  Al  Al14  1  0.43773257  0.42426849  0.41175706  1
  Al  Al15  1  0.55626889  0.53924084  0.05361601  1
  Al  Al16  1  0.11670555  0.42893168  0.88901458  1
  Al  Al17  1  0.21443680  0.54034580  0.65328875  1
  Al  Al18  1  0.88429761  0.54815166  0.05756660  1
  Al  Al19  1  0.43109491  0.43028139  0.89022661  1
  Al  Al20  1  0.12053674  0.75584515  0.39991696  1
  Al  Al21  1  0.21582268  0.86740109  0.14374140  1
  Al  Al22  1  0.77551593  0.76489615  0.86133391  1
  Al  Al23  1  0.89767502  0.86821745  0.64949250  1
  Al  Al24  1  0.43453113  0.77473995  0.41703119  1
  Al  Al25  1  0.10560905  0.76277965  0.90349561  1
  Al  Al26  1  0.21257072  0.87971927  0.65455347  1
  Al  Al27  1  0.78281663  0.76914470  0.42012112  1
  Al  Al28  1  0.90243164  0.85804075  0.16025276  1
  Al  Al29  1  0.43193067  0.77223934  0.88960399  1
  Al  Al30  1  0.54759501  0.88268282  0.65062664  1
  Gd  Gd31  1  0.19901574  0.21590014  0.15549065  1
  Gd  Gd32  1  0.54938595  0.21588344  0.14727264  1
  Gd  Gd33  1  0.77780832  0.43188203  0.32733342  1
  Gd  Gd34  1  0.54904724  0.54161734  0.62959728  1
  Gd  Gd35  1  0.55378308  0.86078853  0.16009455  1
  N  N36  1  0.23068202  0.20249991  0.37253328  1
  N  N37  1  0.10639441  0.07299519  0.07179235  1
  N  N38  1  0.88141725  0.20291291  0.88618693  1
  N  N39  1  0.77734739  0.09751923  0.64237287  1
  N  N40  1  0.56242003  0.20148752  0.36523022  1
  N  N41  1  0.43526174  0.09238409  0.06638683  1
  N  N42  1  0.21589076  0.20660386  0.83815170  1
  N  N43  1  0.11590080  0.09080822  0.60035812  1
  N  N44  1  0.90221056  0.18417836  0.40682978  1
  N  N45  1  0.81086555  0.08302628  0.15818847  1
  N  N46  1  0.54628549  0.21028480  0.83980966  1
  N  N47  1  0.44187172  0.09693416  0.60446683  1
  N  N48  1  0.22790971  0.53269198  0.33478909  1
  N  N49  1  0.10600587  0.45256713  0.07018402  1
  N  N50  1  0.88706980  0.54042592  0.87446067  1
  N  N51  1  0.81389337  0.40650733  0.65062301  1
  N  N52  1  0.53094607  0.55363062  0.39967103  1
  N  N53  1  0.42161441  0.45557562  0.06762498  1
  N  N54  1  0.21711902  0.54676452  0.83316717  1
  N  N55  1  0.11889500  0.42402976  0.60224770  1
  N  N56  1  0.90336908  0.54727154  0.41072485  1
  N  N57  1  0.77553978  0.42991036  0.10605959  1
  N  N58  1  0.55971072  0.53667948  0.86312692  1
  N  N59  1  0.42196233  0.41060526  0.59085721  1
  N  N60  1  0.22746521  0.87445588  0.33522786  1
  N  N61  1  0.10874364  0.76183109  0.08892312  1
  N  N62  1  0.89439739  0.86886913  0.83464463  1
  N  N63  1  0.77677050  0.76569637  0.61253661  1
  N  N64  1  0.56279022  0.87249509  0.37763766  1
  N  N65  1  0.42341528  0.75687575  0.06742635  1
  N  N66  1  0.21570485  0.86998101  0.83458662  1
  N  N67  1  0.11620470  0.75861692  0.58629222  1
  N  N68  1  0.90129579  0.85978835  0.35007426  1
  N  N69  1  0.79679341  0.75993177  0.09216042  1
  N  N70  1  0.55027578  0.87408480  0.83406166  1
  N  N71  1  0.42078382  0.80078595  0.59515361  1
