# generated using pymatgen
data_Gd5Al31N36
_symmetry_space_group_name_H-M   'P 1'
_cell_length_a   9.71901196
_cell_length_b   9.68619480
_cell_length_c   10.40103763
_cell_angle_alpha   89.91523753
_cell_angle_beta   89.26867801
_cell_angle_gamma   60.03387883
_symmetry_Int_Tables_number   1
_chemical_formula_structural   Gd5Al31N36
_chemical_formula_sum   'Gd5 Al31 N36'
_cell_volume   848.18084607
_cell_formula_units_Z   1
loop_
 _symmetry_equiv_pos_site_id
 _symmetry_equiv_pos_as_xyz
  1  'x, y, z'
loop_
 _atom_site_type_symbol
 _atom_site_label
 _atom_site_symmetry_multiplicity
 _atom_site_fract_x
 _atom_site_fract_y
 _atom_site_fract_z
 _atom_site_occupancy
  Al  Al0  1  0.11966080  0.08309875  0.38918410  1
  Al  Al1  1  0.77328352  0.09110188  0.80102649  1
  Al  Al2  1  0.88995889  0.20094309  0.57214992  1
  Al  Al3  1  0.44478435  0.09511842  0.32869328  1
  Al  Al4  1  0.10622943  0.09480628  0.81599870  1
  Al  Al5  1  0.22293032  0.21340588  0.56988161  1
  Al  Al6  1  0.79018268  0.08486881  0.31845155  1
  Al  Al7  1  0.89387034  0.19462109  0.04210382  1
  Al  Al8  1  0.44431306  0.09373372  0.78468487  1
  Al  Al9  1  0.55468918  0.20416258  0.55684383  1
  Al  Al10  1  0.11293454  0.43466306  0.31841137  1
  Al  Al11  1  0.21196538  0.55224456  0.06494656  1
  Al  Al12  1  0.78204644  0.42709914  0.81988558  1
  Al  Al13  1  0.89673213  0.53931945  0.56491167  1
  Al  Al14  1  0.43627135  0.43621699  0.30775191  1
  Al  Al15  1  0.54154459  0.54608247  0.04767549  1
  Al  Al16  1  0.10771454  0.43423374  0.79899134  1
  Al  Al17  1  0.21659740  0.53953326  0.55814174  1
  Al  Al18  1  0.89402590  0.54657908  0.05198282  1
  Al  Al19  1  0.43211849  0.42611356  0.80582280  1
  Al  Al20  1  0.10726297  0.75720547  0.31540474  1
  Al  Al21  1  0.21108209  0.87809165  0.13580397  1
  Al  Al22  1  0.77700774  0.76452255  0.80118485  1
  Al  Al23  1  0.88888232  0.87061330  0.55912404  1
  Al  Al24  1  0.44476305  0.75856313  0.31023678  1
  Al  Al25  1  0.10314981  0.75858329  0.81154875  1
  Al  Al26  1  0.21729945  0.87175124  0.62432053  1
  Al  Al27  1  0.78797589  0.75959938  0.31659700  1
  Al  Al28  1  0.90179498  0.86822466  0.06672881  1
  Al  Al29  1  0.44135034  0.76773219  0.80159565  1
  Al  Al30  1  0.55828196  0.87282390  0.55579743  1
  Gd  Gd31  1  0.22016892  0.21353546  0.05213032  1
  Gd  Gd32  1  0.56638028  0.20629579  0.06464969  1
  Gd  Gd33  1  0.79497274  0.41587792  0.29365942  1
  Gd  Gd34  1  0.56047673  0.53237894  0.56893870  1
  Gd  Gd35  1  0.56308874  0.86397669  0.06018309  1
  N  N36  1  0.21964163  0.21184015  0.37944238  1
  N  N37  1  0.10327569  0.08094272  0.07741447  1
  N  N38  1  0.88230362  0.20052375  0.85669168  1
  N  N39  1  0.77548200  0.09178692  0.61801333  1
  N  N40  1  0.56040955  0.20989283  0.36798476  1
  N  N41  1  0.44469001  0.09455714  0.15150140  1
  N  N42  1  0.21995077  0.20711283  0.82790812  1
  N  N43  1  0.11403925  0.09159892  0.59428063  1
  N  N44  1  0.89839531  0.18134990  0.39021103  1
  N  N45  1  0.81236065  0.07994369  0.13444823  1
  N  N46  1  0.55023321  0.20229313  0.84640736  1
  N  N47  1  0.44777148  0.09267760  0.60125912  1
  N  N48  1  0.22338799  0.54048724  0.37377163  1
  N  N49  1  0.09394109  0.45650277  0.13408531  1
  N  N50  1  0.89053977  0.54616890  0.86609107  1
  N  N51  1  0.81331205  0.41192644  0.63354012  1
  N  N52  1  0.54219085  0.54443992  0.35617214  1
  N  N53  1  0.42385029  0.45635354  0.12288208  1
  N  N54  1  0.21525571  0.53969468  0.87442847  1
  N  N55  1  0.10988312  0.43442908  0.61762703  1
  N  N56  1  0.90137557  0.55029007  0.38366846  1
  N  N57  1  0.77439164  0.42903098  0.07336896  1
  N  N58  1  0.54612937  0.54258126  0.85479597  1
  N  N59  1  0.42302561  0.41445622  0.62470160  1
  N  N60  1  0.21977467  0.87396102  0.33114964  1
  N  N61  1  0.10830346  0.75979251  0.12696570  1
  N  N62  1  0.88300952  0.87478682  0.87320323  1
  N  N63  1  0.77788030  0.76243881  0.61730160  1
  N  N64  1  0.56129568  0.86513708  0.36838779  1
  N  N65  1  0.43301214  0.74836468  0.12402152  1
  N  N66  1  0.21575936  0.87171603  0.81539024  1
  N  N67  1  0.10427671  0.75660832  0.62007675  1
  N  N68  1  0.89094269  0.87035836  0.37603860  1
  N  N69  1  0.80725965  0.74954250  0.13227378  1
  N  N70  1  0.55264068  0.87710449  0.84215729  1
  N  N71  1  0.43620991  0.78557540  0.61750652  1
