# generated using pymatgen
data_Gd5Al31N36
_symmetry_space_group_name_H-M   'P 1'
_cell_length_a   9.68083113
_cell_length_b   9.70294509
_cell_length_c   10.57384987
_cell_angle_alpha   90.19314052
_cell_angle_beta   89.58129776
_cell_angle_gamma   59.92133094
_symmetry_Int_Tables_number   1
_chemical_formula_structural   Gd5Al31N36
_chemical_formula_sum   'Gd5 Al31 N36'
_cell_volume   859.42745981
_cell_formula_units_Z   1
loop_
 _symmetry_equiv_pos_site_id
 _symmetry_equiv_pos_as_xyz
  1  'x, y, z'
loop_
 _atom_site_type_symbol
 _atom_site_label
 _atom_site_symmetry_multiplicity
 _atom_site_fract_x
 _atom_site_fract_y
 _atom_site_fract_z
 _atom_site_occupancy
  Al  Al0  1  0.12152801  0.08201116  0.39735811  1
  Al  Al1  1  0.77875699  0.08885510  0.79816292  1
  Al  Al2  1  0.88824360  0.20164932  0.56434524  1
  Al  Al3  1  0.44830320  0.09504312  0.32825057  1
  Al  Al4  1  0.11667259  0.08730152  0.86382901  1
  Al  Al5  1  0.21392173  0.20995272  0.61723061  1
  Al  Al6  1  0.79194984  0.08358253  0.31316986  1
  Al  Al7  1  0.88872619  0.19383200  0.04031396  1
  Al  Al8  1  0.44628134  0.08966347  0.78941849  1
  Al  Al9  1  0.55952156  0.19546092  0.55955962  1
  Al  Al10  1  0.12096661  0.42947463  0.39770954  1
  Al  Al11  1  0.21989999  0.54607188  0.12457730  1
  Al  Al12  1  0.79479675  0.41879749  0.80645359  1
  Al  Al13  1  0.88980973  0.54389985  0.56516712  1
  Al  Al14  1  0.43262702  0.42938524  0.37998290  1
  Al  Al15  1  0.55767934  0.53264544  0.03288922  1
  Al  Al16  1  0.11855642  0.42739755  0.86512351  1
  Al  Al17  1  0.21107725  0.54521568  0.62750640  1
  Al  Al18  1  0.89126969  0.54803141  0.03994133  1
  Al  Al19  1  0.43926559  0.42446439  0.82867659  1
  Al  Al20  1  0.12106985  0.75694622  0.37562925  1
  Al  Al21  1  0.21750464  0.86593344  0.11980239  1
  Al  Al22  1  0.77488873  0.76584966  0.80065654  1
  Al  Al23  1  0.88743871  0.87325127  0.55435757  1
  Al  Al24  1  0.42988497  0.77575150  0.37915497  1
  Al  Al25  1  0.11521723  0.75802254  0.87818165  1
  Al  Al26  1  0.21304448  0.87980574  0.62763180  1
  Al  Al27  1  0.79646238  0.75595036  0.31268802  1
  Al  Al28  1  0.89837856  0.86733127  0.06371370  1
  Al  Al29  1  0.43147461  0.76874457  0.86520918  1
  Al  Al30  1  0.55831861  0.88294954  0.55169291  1
  Gd  Gd31  1  0.17219163  0.22930901  0.14873337  1
  Gd  Gd32  1  0.55743725  0.20107037  0.05842794  1
  Gd  Gd33  1  0.77112811  0.43052352  0.30131317  1
  Gd  Gd34  1  0.54977498  0.55123440  0.59794816  1
  Gd  Gd35  1  0.56034226  0.86930318  0.07290806  1
  N  N36  1  0.22061047  0.20618622  0.36584566  1
  N  N37  1  0.11235186  0.06912960  0.04329643  1
  N  N38  1  0.88157802  0.20163668  0.85763323  1
  N  N39  1  0.78016958  0.08943589  0.61708333  1
  N  N40  1  0.56608170  0.19974666  0.37196740  1
  N  N41  1  0.42649002  0.10468877  0.15268360  1
  N  N42  1  0.21467767  0.20855804  0.80724496  1
  N  N43  1  0.11058802  0.09129019  0.57828624  1
  N  N44  1  0.89678709  0.18523609  0.38169092  1
  N  N45  1  0.81161396  0.07768873  0.13186862  1
  N  N46  1  0.55242573  0.20242023  0.83849806  1
  N  N47  1  0.44761198  0.09330986  0.60867030  1
  N  N48  1  0.21894809  0.53645204  0.31519576  1
  N  N49  1  0.11512792  0.44806448  0.04472348  1
  N  N50  1  0.88286255  0.54863014  0.85771494  1
  N  N51  1  0.81429390  0.41058233  0.62549703  1
  N  N52  1  0.52539693  0.55535105  0.37275491  1
  N  N53  1  0.43278981  0.45077362  0.07585010  1
  N  N54  1  0.21655445  0.54657842  0.80761804  1
  N  N55  1  0.11311895  0.43186600  0.57793538  1
  N  N56  1  0.89659951  0.55104761  0.38248985  1
  N  N57  1  0.78447885  0.42494610  0.08053875  1
  N  N58  1  0.55870038  0.53469472  0.83779813  1
  N  N59  1  0.42535963  0.41452718  0.57923705  1
  N  N60  1  0.21975238  0.87767685  0.30833435  1
  N  N61  1  0.11916174  0.75485528  0.06167873  1
  N  N62  1  0.87918657  0.87671748  0.87161284  1
  N  N63  1  0.77675743  0.76553308  0.61738061  1
  N  N64  1  0.56878017  0.86871253  0.36228850  1
  N  N65  1  0.42410114  0.75044060  0.04670397  1
  N  N66  1  0.21801316  0.86806792  0.80706136  1
  N  N67  1  0.11988822  0.75804460  0.56226120  1
  N  N68  1  0.89127439  0.87181596  0.37231002  1
  N  N69  1  0.81749917  0.73987709  0.13214629  1
  N  N70  1  0.55150879  0.87650519  0.84938498  1
  N  N71  1  0.41607024  0.80837440  0.55931329  1
