# generated using pymatgen
data_Gd5Al31N36
_symmetry_space_group_name_H-M   'P 1'
_cell_length_a   9.70791807
_cell_length_b   9.68780470
_cell_length_c   10.61952398
_cell_angle_alpha   89.48672561
_cell_angle_beta   88.94267751
_cell_angle_gamma   60.09738727
_symmetry_Int_Tables_number   1
_chemical_formula_structural   Gd5Al31N36
_chemical_formula_sum   'Gd5 Al31 N36'
_cell_volume   865.64244852
_cell_formula_units_Z   1
loop_
 _symmetry_equiv_pos_site_id
 _symmetry_equiv_pos_as_xyz
  1  'x, y, z'
loop_
 _atom_site_type_symbol
 _atom_site_label
 _atom_site_symmetry_multiplicity
 _atom_site_fract_x
 _atom_site_fract_y
 _atom_site_fract_z
 _atom_site_occupancy
  Al  Al0  1  0.12018480  0.08235876  0.39162976  1
  Al  Al1  1  0.77295520  0.09095505  0.79805275  1
  Al  Al2  1  0.89136943  0.20067099  0.56736273  1
  Al  Al3  1  0.45094591  0.09417020  0.32679253  1
  Al  Al4  1  0.10992503  0.08222950  0.86721448  1
  Al  Al5  1  0.22851808  0.20100917  0.56869967  1
  Al  Al6  1  0.78803460  0.08911441  0.31594640  1
  Al  Al7  1  0.88356354  0.19838129  0.04209657  1
  Al  Al8  1  0.43956365  0.09415320  0.78798272  1
  Al  Al9  1  0.55758579  0.20234219  0.55641891  1
  Al  Al10  1  0.12048367  0.43504038  0.39429757  1
  Al  Al11  1  0.20981595  0.54670362  0.13616450  1
  Al  Al12  1  0.77989367  0.42347068  0.81215093  1
  Al  Al13  1  0.89057097  0.54228251  0.56985896  1
  Al  Al14  1  0.44569583  0.43116371  0.30662440  1
  Al  Al15  1  0.54220094  0.54631854  0.04590081  1
  Al  Al16  1  0.10809549  0.42829660  0.84396053  1
  Al  Al17  1  0.21553254  0.53922605  0.62798749  1
  Al  Al18  1  0.88686489  0.54962756  0.03999621  1
  Al  Al19  1  0.44214845  0.42133895  0.79950999  1
  Al  Al20  1  0.10313670  0.76829080  0.31585755  1
  Al  Al21  1  0.21122424  0.87546244  0.12993805  1
  Al  Al22  1  0.77319313  0.76591997  0.79748852  1
  Al  Al23  1  0.88887089  0.87268487  0.55622232  1
  Al  Al24  1  0.44445366  0.76309591  0.30360697  1
  Al  Al25  1  0.09670988  0.76456485  0.80913986  1
  Al  Al26  1  0.21345841  0.88125120  0.63164977  1
  Al  Al27  1  0.78827417  0.76085319  0.31651364  1
  Al  Al28  1  0.90196895  0.86515641  0.06662495  1
  Al  Al29  1  0.44291430  0.76433485  0.80036964  1
  Al  Al30  1  0.55671064  0.87430265  0.55650317  1
  Gd  Gd31  1  0.21490170  0.20911811  0.08229461  1
  Gd  Gd32  1  0.56590473  0.20850745  0.05637458  1
  Gd  Gd33  1  0.79730118  0.42376141  0.29148309  1
  Gd  Gd34  1  0.55946285  0.53817655  0.55932569  1
  Gd  Gd35  1  0.56599412  0.86603421  0.05518867  1
  N  N36  1  0.22601161  0.20698149  0.37403665  1
  N  N37  1  0.10125341  0.06757766  0.04790218  1
  N  N38  1  0.87599291  0.20159058  0.85970716  1
  N  N39  1  0.77777671  0.09121135  0.61707953  1
  N  N40  1  0.56177845  0.20941518  0.37114544  1
  N  N41  1  0.45530902  0.09206138  0.15262619  1
  N  N42  1  0.21956055  0.20191941  0.84417672  1
  N  N43  1  0.11640599  0.08814251  0.57456929  1
  N  N44  1  0.89571897  0.18760303  0.38486175  1
  N  N45  1  0.80914104  0.07993330  0.13489651  1
  N  N46  1  0.54989096  0.20066522  0.84238267  1
  N  N47  1  0.44793835  0.09247487  0.60580109  1
  N  N48  1  0.22045621  0.53998829  0.32757093  1
  N  N49  1  0.09992734  0.46117349  0.06188908  1
  N  N50  1  0.87897997  0.54869634  0.85695254  1
  N  N51  1  0.81055198  0.41038680  0.63152317  1
  N  N52  1  0.54228500  0.54899383  0.35113259  1
  N  N53  1  0.43296507  0.45221489  0.12404815  1
  N  N54  1  0.21492559  0.54004320  0.81295284  1
  N  N55  1  0.11555004  0.42632716  0.58409119  1
  N  N56  1  0.89761697  0.55587305  0.38956124  1
  N  N57  1  0.77650115  0.42798697  0.07554077  1
  N  N58  1  0.54674818  0.54028944  0.85637706  1
  N  N59  1  0.43639096  0.41074984  0.61954419  1
  N  N60  1  0.21851035  0.88239696  0.31808977  1
  N  N61  1  0.10402597  0.76459925  0.12938428  1
  N  N62  1  0.87989403  0.87416333  0.87401427  1
  N  N63  1  0.77711855  0.76482757  0.61738392  1
  N  N64  1  0.56104264  0.86661433  0.37069131  1
  N  N65  1  0.43486190  0.75083832  0.11971133  1
  N  N66  1  0.21529683  0.87069585  0.81483085  1
  N  N67  1  0.10075131  0.76640399  0.61654383  1
  N  N68  1  0.88850936  0.87467957  0.37575587  1
  N  N69  1  0.80781981  0.74325214  0.13449379  1
  N  N70  1  0.55125711  0.87590771  0.84146366  1
  N  N71  1  0.43479997  0.78694149  0.62065602  1
