# generated using pymatgen
data_Gd5Al31N36
_symmetry_space_group_name_H-M   'P 1'
_cell_length_a   9.73646093
_cell_length_b   9.75251168
_cell_length_c   10.42908649
_cell_angle_alpha   90.00260375
_cell_angle_beta   89.09260894
_cell_angle_gamma   59.93284254
_symmetry_Int_Tables_number   1
_chemical_formula_structural   Gd5Al31N36
_chemical_formula_sum   'Gd5 Al31 N36'
_cell_volume   856.89434958
_cell_formula_units_Z   1
loop_
 _symmetry_equiv_pos_site_id
 _symmetry_equiv_pos_as_xyz
  1  'x, y, z'
loop_
 _atom_site_type_symbol
 _atom_site_label
 _atom_site_symmetry_multiplicity
 _atom_site_fract_x
 _atom_site_fract_y
 _atom_site_fract_z
 _atom_site_occupancy
  Al  Al0  1  0.12259700  0.08098768  0.42438769  1
  Al  Al1  1  0.77243755  0.09281594  0.82938038  1
  Al  Al2  1  0.88983257  0.19993790  0.59449143  1
  Al  Al3  1  0.44397869  0.09467551  0.36076232  1
  Al  Al4  1  0.11655693  0.08730511  0.88717384  1
  Al  Al5  1  0.22038895  0.20646663  0.64376404  1
  Al  Al6  1  0.80153734  0.07789332  0.33949848  1
  Al  Al7  1  0.88860030  0.19467386  0.06531081  1
  Al  Al8  1  0.44730533  0.09301403  0.83284570  1
  Al  Al9  1  0.56080753  0.19452458  0.57863681  1
  Al  Al10  1  0.12260615  0.42975332  0.42438918  1
  Al  Al11  1  0.21191838  0.55173360  0.14606399  1
  Al  Al12  1  0.79138698  0.42097921  0.83298084  1
  Al  Al13  1  0.88983709  0.54355535  0.59448890  1
  Al  Al14  1  0.43133120  0.43105390  0.40437723  1
  Al  Al15  1  0.55596685  0.53867576  0.06432512  1
  Al  Al16  1  0.11656206  0.42947709  0.88717078  1
  Al  Al17  1  0.21609657  0.53961866  0.65376588  1
  Al  Al18  1  0.88860666  0.55006276  0.06530740  1
  Al  Al19  1  0.43254725  0.42933089  0.89586757  1
  Al  Al20  1  0.12264233  0.75534981  0.40218498  1
  Al  Al21  1  0.21191255  0.86967628  0.14606573  1
  Al  Al22  1  0.77243844  0.76808571  0.82938179  1
  Al  Al23  1  0.88847612  0.87242611  0.58493072  1
  Al  Al24  1  0.43132809  0.77094571  0.40437610  1
  Al  Al25  1  0.11588481  0.75873044  0.90062166  1
  Al  Al26  1  0.21609707  0.87761491  0.65376285  1
  Al  Al27  1  0.80154482  0.75390848  0.33949571  1
  Al  Al28  1  0.89719898  0.86806690  0.08531036  1
  Al  Al29  1  0.43254577  0.77146041  0.89587044  1
  Al  Al30  1  0.56081104  0.87798157  0.57863306  1
  Gd  Gd31  1  0.16918635  0.23207441  0.17147539  1
  Gd  Gd32  1  0.55764271  0.21006314  0.11804246  1
  Gd  Gd33  1  0.77620759  0.42857324  0.33500948  1
  Gd  Gd34  1  0.54188194  0.54571460  0.63289418  1
  Gd  Gd35  1  0.55764223  0.86559285  0.11804667  1
  N  N36  1  0.21739615  0.20795649  0.39161207  1
  N  N37  1  0.10986504  0.07145607  0.06899881  1
  N  N38  1  0.88197450  0.20291567  0.88095048  1
  N  N39  1  0.77630424  0.09171975  0.64403935  1
  N  N40  1  0.56953804  0.19876460  0.38273623  1
  N  N41  1  0.42029535  0.10652391  0.17737762  1
  N  N42  1  0.21814823  0.20758303  0.83567604  1
  N  N43  1  0.11279583  0.09028338  0.60813349  1
  N  N44  1  0.90083111  0.18110626  0.40946709  1
  N  N45  1  0.81922310  0.07331554  0.15681740  1
  N  N46  1  0.55254535  0.20320957  0.88358394  1
  N  N47  1  0.44962157  0.09186307  0.62463439  1
  N  N48  1  0.21999537  0.53609150  0.33654514  1
  N  N49  1  0.10987480  0.45202118  0.06899516  1
  N  N50  1  0.88197855  0.54842933  0.88095409  1
  N  N51  1  0.80760699  0.41287825  0.64772543  1
  N  N52  1  0.52612102  0.55358819  0.39129666  1
  N  N53  1  0.41958819  0.46075542  0.07841818  1
  N  N54  1  0.22132647  0.54452439  0.83446591  1
  N  N55  1  0.11280140  0.43026957  0.60813740  1
  N  N56  1  0.90084447  0.55137807  0.40945967  1
  N  N57  1  0.78089622  0.42623655  0.11031415  1
  N  N58  1  0.55921871  0.53704710  0.86824067  1
  N  N59  1  0.42101262  0.41136688  0.58649322  1
  N  N60  1  0.21999050  0.87723337  0.33654702  1
  N  N61  1  0.11579599  0.75877596  0.08634778  1
  N  N62  1  0.88131533  0.87600409  0.89370613  1
  N  N63  1  0.77630964  0.76532984  0.64403930  1
  N  N64  1  0.56954100  0.86499581  0.38273677  1
  N  N65  1  0.41957393  0.75301054  0.07841740  1
  N  N66  1  0.22132982  0.86746474  0.83446193  1
  N  N67  1  0.12172994  0.75581042  0.59087786  1
  N  N68  1  0.89409927  0.86961152  0.40028512  1
  N  N69  1  0.81922414  0.74083133  0.15681517  1
  N  N70  1  0.55254502  0.87755729  0.88359043  1
  N  N71  1  0.42101925  0.80096479  0.58649424  1
