# generated using pymatgen
data_Gd5Al31N36
_symmetry_space_group_name_H-M   'P 1'
_cell_length_a   9.73614021
_cell_length_b   9.76015953
_cell_length_c   10.43432014
_cell_angle_alpha   89.99808935
_cell_angle_beta   89.01610893
_cell_angle_gamma   59.93401743
_symmetry_Int_Tables_number   1
_chemical_formula_structural   Gd5Al31N36
_chemical_formula_sum   'Gd5 Al31 N36'
_cell_volume   857.95409627
_cell_formula_units_Z   1
loop_
 _symmetry_equiv_pos_site_id
 _symmetry_equiv_pos_as_xyz
  1  'x, y, z'
loop_
 _atom_site_type_symbol
 _atom_site_label
 _atom_site_symmetry_multiplicity
 _atom_site_fract_x
 _atom_site_fract_y
 _atom_site_fract_z
 _atom_site_occupancy
  Al  Al0  1  0.12315644  0.08185031  0.42213467  1
  Al  Al1  1  0.77105353  0.09323992  0.83053654  1
  Al  Al2  1  0.89138942  0.19987414  0.59466535  1
  Al  Al3  1  0.44312739  0.09510340  0.40423875  1
  Al  Al4  1  0.11577481  0.08680002  0.88771647  1
  Al  Al5  1  0.22607116  0.20363668  0.65083822  1
  Al  Al6  1  0.80368789  0.07671420  0.33891005  1
  Al  Al7  1  0.88673347  0.19524728  0.06466964  1
  Al  Al8  1  0.43884629  0.09724274  0.89900983  1
  Al  Al9  1  0.56269529  0.19618441  0.58635610  1
  Al  Al10  1  0.12314737  0.42831795  0.42213372  1
  Al  Al11  1  0.21050898  0.55308511  0.14489048  1
  Al  Al12  1  0.79143917  0.42093867  0.83317745  1
  Al  Al13  1  0.89138377  0.54207731  0.59466818  1
  Al  Al14  1  0.43106252  0.43201203  0.40521014  1
  Al  Al15  1  0.55519018  0.53908088  0.06278903  1
  Al  Al16  1  0.11577052  0.43074871  0.88772042  1
  Al  Al17  1  0.21615569  0.53892495  0.65377363  1
  Al  Al18  1  0.88672879  0.55134438  0.06467429  1
  Al  Al19  1  0.43376561  0.42746530  0.89644525  1
  Al  Al20  1  0.12311055  0.75510483  0.40189439  1
  Al  Al21  1  0.21051345  0.86974599  0.14488817  1
  Al  Al22  1  0.77105391  0.76903075  0.83053708  1
  Al  Al23  1  0.88914211  0.87209791  0.58519141  1
  Al  Al24  1  0.43106582  0.77026013  0.40521184  1
  Al  Al25  1  0.11593759  0.75869044  0.90017990  1
  Al  Al26  1  0.21615571  0.87825592  0.65377671  1
  Al  Al27  1  0.80368134  0.75292020  0.33891356  1
  Al  Al28  1  0.89522308  0.86905466  0.08344244  1
  Al  Al29  1  0.43376534  0.77209686  0.89644326  1
  Al  Al30  1  0.56269010  0.87447996  0.58635820  1
  Gd  Gd31  1  0.17675769  0.22828808  0.16334634  1
  Gd  Gd32  1  0.55367562  0.21705370  0.13524232  1
  Gd  Gd33  1  0.77724080  0.42803163  0.33438933  1
  Gd  Gd34  1  0.54223255  0.54556528  0.63456474  1
  Gd  Gd35  1  0.55367599  0.86264126  0.13524059  1
  N  N36  1  0.22065155  0.20635297  0.37977222  1
  N  N37  1  0.10664680  0.07168803  0.06925324  1
  N  N38  1  0.88247353  0.20296148  0.88008295  1
  N  N39  1  0.77789839  0.09107036  0.64402607  1
  N  N40  1  0.56771682  0.19987881  0.37678521  1
  N  N41  1  0.41529050  0.10901749  0.09589669  1
  N  N42  1  0.22089693  0.20622786  0.83769022  1
  N  N43  1  0.11544422  0.09118771  0.60647590  1
  N  N44  1  0.90117463  0.18091588  0.40975545  1
  N  N45  1  0.81862593  0.07277649  0.15595733  1
  N  N46  1  0.55434840  0.20529249  0.88128752  1
  N  N47  1  0.44661113  0.09335269  0.59111999  1
  N  N48  1  0.22047857  0.53583599  0.33620467  1
  N  N49  1  0.10664071  0.45497884  0.06925725  1
  N  N50  1  0.88246734  0.54791647  0.88007940  1
  N  N51  1  0.80769301  0.41280142  0.64743429  1
  N  N52  1  0.52673158  0.55332179  0.39156241  1
  N  N53  1  0.41847975  0.46167207  0.07724857  1
  N  N54  1  0.22147549  0.54426619  0.83405570  1
  N  N55  1  0.11543726  0.42668090  0.60647134  1
  N  N56  1  0.90116104  0.55126215  0.40976296  1
  N  N57  1  0.77929174  0.42699956  0.11008427  1
  N  N58  1  0.55942333  0.53696700  0.86781566  1
  N  N59  1  0.42186367  0.41110979  0.58646606  1
  N  N60  1  0.22048440  0.87703149  0.33620197  1
  N  N61  1  0.11454710  0.75938256  0.08600023  1
  N  N62  1  0.88193229  0.87570764  0.89278728  1
  N  N63  1  0.77789198  0.76433867  0.64402644  1
  N  N64  1  0.56771248  0.86577876  0.37678496  1
  N  N65  1  0.41849542  0.75315566  0.07724945  1
  N  N66  1  0.22147111  0.86761141  0.83406028  1
  N  N67  1  0.12247248  0.75541868  0.59042401  1
  N  N68  1  0.89424808  0.86954924  0.40051137  1
  N  N69  1  0.81863114  0.74188343  0.15596004  1
  N  N70  1  0.55434558  0.87372830  0.88128677  1
  N  N71  1  0.42185506  0.80034695  0.58646503  1
