# generated using pymatgen
data_Gd5Al31N36
_symmetry_space_group_name_H-M   'P 1'
_cell_length_a   9.70490583
_cell_length_b   9.68538747
_cell_length_c   10.28541801
_cell_angle_alpha   89.99999503
_cell_angle_beta   90.13273522
_cell_angle_gamma   60.06652071
_symmetry_Int_Tables_number   1
_chemical_formula_structural   Gd5Al31N36
_chemical_formula_sum   'Gd5 Al31 N36'
_cell_volume   837.81874384
_cell_formula_units_Z   1
loop_
 _symmetry_equiv_pos_site_id
 _symmetry_equiv_pos_as_xyz
  1  'x, y, z'
loop_
 _atom_site_type_symbol
 _atom_site_label
 _atom_site_symmetry_multiplicity
 _atom_site_fract_x
 _atom_site_fract_y
 _atom_site_fract_z
 _atom_site_occupancy
  Al  Al0  1  0.11259703  0.08563804  0.41733531  1
  Al  Al1  1  0.78434743  0.08972911  0.89924789  1
  Al  Al2  1  0.89442766  0.20241431  0.66269230  1
  Al  Al3  1  0.44412985  0.09460161  0.43268470  1
  Al  Al4  1  0.11014796  0.09042278  0.90016737  1
  Al  Al5  1  0.21639608  0.20846850  0.65520808  1
  Al  Al6  1  0.78288546  0.08564575  0.41540150  1
  Al  Al7  1  0.89948894  0.18554007  0.15012263  1
  Al  Al8  1  0.44269860  0.09531724  0.88920825  1
  Al  Al9  1  0.55443645  0.20479672  0.65774336  1
  Al  Al10  1  0.11259702  0.43509794  0.41733531  1
  Al  Al11  1  0.21395369  0.55026225  0.15525787  1
  Al  Al12  1  0.78163642  0.42584832  0.91649133  1
  Al  Al13  1  0.89442763  0.53649113  0.66269230  1
  Al  Al14  1  0.43096038  0.42996789  0.41130524  1
  Al  Al15  1  0.53649439  0.54841936  0.15178587  1
  Al  Al16  1  0.11014795  0.43276234  0.90016738  1
  Al  Al17  1  0.21567612  0.54147061  0.65789921  1
  Al  Al18  1  0.89948889  0.54830405  0.15012265  1
  Al  Al19  1  0.43809309  0.43264833  0.90899307  1
  Al  Al20  1  0.11013345  0.76159978  0.40467372  1
  Al  Al21  1  0.21395372  0.86911712  0.15525786  1
  Al  Al22  1  0.78434742  0.75925653  0.89924789  1
  Al  Al23  1  0.89215664  0.87058823  0.65700610  1
  Al  Al24  1  0.43096038  0.77240479  0.41130525  1
  Al  Al25  1  0.11062329  0.76135489  0.90746865  1
  Al  Al26  1  0.21567614  0.87618631  0.65789922  1
  Al  Al27  1  0.78288543  0.76480183  0.41540151  1
  Al  Al28  1  0.90019831  0.86656736  0.15331600  1
  Al  Al29  1  0.43809313  0.76259165  0.90899307  1
  Al  Al30  1  0.55443644  0.87409994  0.65774337  1
  Gd  Gd31  1  0.21164810  0.21084250  0.16111923  1
  Gd  Gd32  1  0.56363577  0.20731993  0.15719664  1
  Gd  Gd33  1  0.78268893  0.42532201  0.38468764  1
  Gd  Gd34  1  0.55550285  0.53891513  0.65911673  1
  Gd  Gd35  1  0.56363577  0.86237746  0.15719666  1
  N  N36  1  0.22105796  0.20613756  0.38451513  1
  N  N37  1  0.10412842  0.07604986  0.08305157  1
  N  N38  1  0.88804993  0.20768231  0.84934143  1
  N  N39  1  0.78039913  0.09409981  0.60360968  1
  N  N40  1  0.55624741  0.20217946  0.37744478  1
  N  N41  1  0.44200025  0.09566644  0.07023926  1
  N  N42  1  0.21589736  0.20871788  0.84552418  1
  N  N43  1  0.10773866  0.09217708  0.60390104  1
  N  N44  1  0.90726382  0.16733372  0.33677551  1
  N  N45  1  0.80653649  0.07366875  0.08203087  1
  N  N46  1  0.55802340  0.20965965  0.84831455  1
  N  N47  1  0.44354828  0.09489240  0.61792524  1
  N  N48  1  0.21890755  0.53940904  0.34583243  1
  N  N49  1  0.10412837  0.45315480  0.08305158  1
  N  N50  1  0.88804991  0.53760088  0.84934142  1
  N  N51  1  0.80869350  0.41231977  0.60236970  1
  N  N52  1  0.51954009  0.55689652  0.34537878  1
  N  N53  1  0.42247662  0.45375717  0.09126255  1
  N  N54  1  0.22130349  0.54293350  0.84396113  1
  N  N55  1  0.10773864  0.43341730  0.60390104  1
  N  N56  1  0.90726376  0.55873553  0.33677554  1
  N  N57  1  0.78115705  0.42608796  0.11302838  1
  N  N58  1  0.55925091  0.53704110  0.87516680  1
  N  N59  1  0.42513957  0.41721383  0.59467592  1
  N  N60  1  0.21890757  0.87501646  0.34583242  1
  N  N61  1  0.11081549  0.76125878  0.09693117  1
  N  N62  1  0.89319431  0.87006940  0.84161886  1
  N  N63  1  0.78039912  0.75883410  0.60360969  1
  N  N64  1  0.55624739  0.87490626  0.37744480  1
  N  N65  1  0.42247668  0.75709929  0.09126256  1
  N  N66  1  0.22130353  0.86909610  0.84396114  1
  N  N67  1  0.11063330  0.76134986  0.59407769  1
  N  N68  1  0.88711287  0.87311009  0.34743332  1
  N  N69  1  0.80653648  0.75312778  0.08203087  1
  N  N70  1  0.55802341  0.86565008  0.84831455  1
  N  N71  1  0.42513958  0.79097966  0.59467593  1
