# generated using pymatgen
data_Gd5Al31N36
_symmetry_space_group_name_H-M   'P 1'
_cell_length_a   9.65295069
_cell_length_b   9.66130408
_cell_length_c   10.70287356
_cell_angle_alpha   89.81384220
_cell_angle_beta   89.43858063
_cell_angle_gamma   60.03637156
_symmetry_Int_Tables_number   1
_chemical_formula_structural   Gd5Al31N36
_chemical_formula_sum   'Gd5 Al31 N36'
_cell_volume   864.69766769
_cell_formula_units_Z   1
loop_
 _symmetry_equiv_pos_site_id
 _symmetry_equiv_pos_as_xyz
  1  'x, y, z'
loop_
 _atom_site_type_symbol
 _atom_site_label
 _atom_site_symmetry_multiplicity
 _atom_site_fract_x
 _atom_site_fract_y
 _atom_site_fract_z
 _atom_site_occupancy
  Al  Al0  1  0.12085665  0.07945895  0.39601878  1
  Al  Al1  1  0.77638204  0.09136672  0.79741150  1
  Al  Al2  1  0.89081088  0.20015905  0.56634199  1
  Al  Al3  1  0.45129690  0.09195820  0.32955388  1
  Al  Al4  1  0.11825651  0.08732445  0.86997913  1
  Al  Al5  1  0.22168339  0.20557131  0.59665492  1
  Al  Al6  1  0.78743885  0.08756883  0.31362170  1
  Al  Al7  1  0.88576935  0.19684554  0.04012731  1
  Al  Al8  1  0.44257808  0.09459063  0.78585464  1
  Al  Al9  1  0.55725306  0.20237215  0.55608543  1
  Al  Al10  1  0.12077727  0.43389218  0.39640803  1
  Al  Al11  1  0.21254133  0.54560515  0.12709225  1
  Al  Al12  1  0.78611037  0.42280934  0.80951361  1
  Al  Al13  1  0.89107104  0.54223698  0.56691441  1
  Al  Al14  1  0.44276762  0.42958770  0.30308593  1
  Al  Al15  1  0.54774163  0.54331240  0.04371890  1
  Al  Al16  1  0.11877764  0.42565585  0.86997405  1
  Al  Al17  1  0.21350466  0.53766769  0.63411484  1
  Al  Al18  1  0.88591395  0.55021165  0.03979075  1
  Al  Al19  1  0.44600356  0.42154047  0.79905543  1
  Al  Al20  1  0.10231712  0.76617270  0.30874178  1
  Al  Al21  1  0.21319913  0.87504620  0.12603537  1
  Al  Al22  1  0.77642896  0.76389684  0.79721160  1
  Al  Al23  1  0.89054242  0.87137534  0.55521101  1
  Al  Al24  1  0.44288489  0.76307117  0.30253195  1
  Al  Al25  1  0.09903988  0.76606233  0.81034883  1
  Al  Al26  1  0.21311197  0.88182836  0.63443190  1
  Al  Al27  1  0.78746998  0.75952424  0.31402873  1
  Al  Al28  1  0.89951253  0.86672161  0.06252320  1
  Al  Al29  1  0.44564350  0.76442366  0.79949907  1
  Al  Al30  1  0.55700385  0.87401543  0.55624713  1
  Gd  Gd31  1  0.18430812  0.22404905  0.14614350  1
  Gd  Gd32  1  0.55716727  0.20673793  0.05309249  1
  Gd  Gd33  1  0.78740868  0.42427929  0.29443795  1
  Gd  Gd34  1  0.55701942  0.53862354  0.55948104  1
  Gd  Gd35  1  0.55796464  0.87177156  0.05265077  1
  N  N36  1  0.22028858  0.20721234  0.36532914  1
  N  N37  1  0.10964366  0.07173511  0.04764002  1
  N  N38  1  0.88026655  0.20195175  0.85998427  1
  N  N39  1  0.77888226  0.09056145  0.61666518  1
  N  N40  1  0.56076348  0.20891432  0.37043912  1
  N  N41  1  0.44108247  0.09691990  0.15378678  1
  N  N42  1  0.21821024  0.20673838  0.81872897  1
  N  N43  1  0.11677965  0.08700686  0.57351321  1
  N  N44  1  0.89481205  0.18581258  0.38474829  1
  N  N45  1  0.80611290  0.08141784  0.13190529  1
  N  N46  1  0.55319952  0.20110459  0.84089520  1
  N  N47  1  0.44934545  0.09188074  0.60356018  1
  N  N48  1  0.21620047  0.53570572  0.31511482  1
  N  N49  1  0.10996811  0.45167708  0.04798604  1
  N  N50  1  0.88093689  0.54908438  0.85964357  1
  N  N51  1  0.81215793  0.41020173  0.62980503  1
  N  N52  1  0.53309144  0.55119994  0.35343386  1
  N  N53  1  0.43751751  0.45015042  0.12081012  1
  N  N54  1  0.21781833  0.54041521  0.81549406  1
  N  N55  1  0.11702199  0.42891353  0.57393828  1
  N  N56  1  0.89484062  0.55421680  0.38576663  1
  N  N57  1  0.78332539  0.42462022  0.08004470  1
  N  N58  1  0.55156945  0.54004118  0.85628926  1
  N  N59  1  0.43589859  0.41048916  0.62093992  1
  N  N60  1  0.21622026  0.88322125  0.31389978  1
  N  N61  1  0.10427900  0.76467647  0.12324722  1
  N  N62  1  0.88153056  0.87489207  0.87304739  1
  N  N63  1  0.77873198  0.76347715  0.61670830  1
  N  N64  1  0.56063240  0.86535586  0.37050778  1
  N  N65  1  0.43842912  0.74702313  0.11977995  1
  N  N66  1  0.21724221  0.87369808  0.81594740  1
  N  N67  1  0.10190803  0.76536342  0.61896397  1
  N  N68  1  0.88945035  0.87257394  0.37407828  1
  N  N69  1  0.80659631  0.74438442  0.13217230  1
  N  N70  1  0.55335413  0.87699533  0.84057557  1
  N  N71  1  0.43532722  0.78702123  0.62129310  1
