# generated using pymatgen
data_Gd5Al31N36
_symmetry_space_group_name_H-M   'P 1'
_cell_length_a   9.68343124
_cell_length_b   9.68072149
_cell_length_c   10.60008366
_cell_angle_alpha   90.00220618
_cell_angle_beta   88.70599795
_cell_angle_gamma   59.99699968
_symmetry_Int_Tables_number   1
_chemical_formula_structural   Gd5Al31N36
_chemical_formula_sum   'Gd5 Al31 N36'
_cell_volume   860.23246291
_cell_formula_units_Z   1
loop_
 _symmetry_equiv_pos_site_id
 _symmetry_equiv_pos_as_xyz
  1  'x, y, z'
loop_
 _atom_site_type_symbol
 _atom_site_label
 _atom_site_symmetry_multiplicity
 _atom_site_fract_x
 _atom_site_fract_y
 _atom_site_fract_z
 _atom_site_occupancy
  Al  Al0  1  0.12692133  0.08269401  0.41850870  1
  Al  Al1  1  0.78104458  0.08871523  0.82634278  1
  Al  Al2  1  0.89183971  0.20053240  0.59024052  1
  Al  Al3  1  0.45378085  0.08976970  0.42272616  1
  Al  Al4  1  0.11282407  0.08797072  0.89120893  1
  Al  Al5  1  0.21825107  0.20753733  0.65370228  1
  Al  Al6  1  0.79586163  0.08335093  0.34724243  1
  Al  Al7  1  0.88499711  0.19826444  0.06717647  1
  Al  Al8  1  0.43723361  0.09804662  0.88937989  1
  Al  Al9  1  0.54696223  0.20417610  0.65261034  1
  Al  Al10  1  0.12692968  0.42372489  0.41851030  1
  Al  Al11  1  0.21539517  0.54944564  0.14533124  1
  Al  Al12  1  0.79174312  0.42080380  0.83195761  1
  Al  Al13  1  0.89184022  0.54096309  0.59023682  1
  Al  Al14  1  0.43665527  0.42280393  0.41385233  1
  Al  Al15  1  0.55557866  0.53886967  0.05340079  1
  Al  Al16  1  0.11282897  0.43254695  0.89120490  1
  Al  Al17  1  0.21216841  0.54179071  0.65385379  1
  Al  Al18  1  0.88500664  0.55007808  0.06717389  1
  Al  Al19  1  0.43039953  0.42989119  0.88957440  1
  Al  Al20  1  0.12749901  0.75292281  0.40097227  1
  Al  Al21  1  0.21538851  0.86849200  0.14533430  1
  Al  Al22  1  0.78104754  0.76358489  0.82634331  1
  Al  Al23  1  0.88722976  0.87305389  0.58280284  1
  Al  Al24  1  0.43665444  0.77386442  0.41385064  1
  Al  Al25  1  0.10719701  0.76307439  0.90293940  1
  Al  Al26  1  0.21217236  0.87937072  0.65385114  1
  Al  Al27  1  0.79587040  0.75412819  0.34723596  1
  Al  Al28  1  0.89906253  0.86713848  0.11123856  1
  Al  Al29  1  0.43039744  0.77304497  0.88957322  1
  Al  Al30  1  0.54696989  0.88217160  0.65260961  1
  Gd  Gd31  1  0.19917763  0.21707626  0.15575506  1
  Gd  Gd32  1  0.55094515  0.21799838  0.14942432  1
  Gd  Gd33  1  0.77562274  0.42886666  0.32928578  1
  Gd  Gd34  1  0.54733580  0.54298018  0.63023961  1
  Gd  Gd35  1  0.55094983  0.86434875  0.14942304  1
  N  N36  1  0.23175225  0.20077966  0.37250298  1
  N  N37  1  0.10673287  0.07355011  0.07146228  1
  N  N38  1  0.87995889  0.20415277  0.88565343  1
  N  N39  1  0.78124794  0.09085163  0.64344459  1
  N  N40  1  0.56261204  0.20065480  0.36596243  1
  N  N41  1  0.43577088  0.09877498  0.06527030  1
  N  N42  1  0.21360571  0.20985461  0.83789311  1
  N  N43  1  0.11606659  0.09131910  0.60136529  1
  N  N44  1  0.90196242  0.18400016  0.40939381  1
  N  N45  1  0.81531283  0.07899057  0.16229050  1
  N  N46  1  0.54645146  0.21059206  0.83782185  1
  N  N47  1  0.44364249  0.09484689  0.60291379  1
  N  N48  1  0.22720113  0.53168132  0.33473513  1
  N  N49  1  0.10674416  0.45306710  0.07145706  1
  N  N50  1  0.87996305  0.54921263  0.88565738  1
  N  N51  1  0.81315640  0.41010718  0.65182798  1
  N  N52  1  0.52838544  0.55245265  0.39997639  1
  N  N53  1  0.42196663  0.45486000  0.06750847  1
  N  N54  1  0.21487500  0.54782880  0.83366131  1
  N  N55  1  0.11606867  0.42596652  0.60137026  1
  N  N56  1  0.90197535  0.54735261  0.40938674  1
  N  N57  1  0.77414917  0.42961594  0.10853384  1
  N  N58  1  0.55809982  0.53760402  0.86345279  1
  N  N59  1  0.42146597  0.40988253  0.59242235  1
  N  N60  1  0.22719748  0.87443800  0.33473811  1
  N  N61  1  0.11618023  0.75858627  0.08906481  1
  N  N62  1  0.88075424  0.87628632  0.88750907  1
  N  N63  1  0.78125511  0.76126586  0.64344523  1
  N  N64  1  0.56261615  0.87001906  0.36596128  1
  N  N65  1  0.42194577  0.75652790  0.06750591  1
  N  N66  1  0.21487664  0.87061337  0.83365663  1
  N  N67  1  0.12135485  0.75599982  0.58676608  1
  N  N68  1  0.89587406  0.86872396  0.39652006  1
  N  N69  1  0.81531490  0.73907111  0.16228755  1
  N  N70  1  0.54645513  0.87625529  0.83781956  1
  N  N71  1  0.42147591  0.80198309  0.59242573  1
