# generated using pymatgen
data_Gd5Al31N36
_symmetry_space_group_name_H-M   'P 1'
_cell_length_a   9.70391863
_cell_length_b   9.72863156
_cell_length_c   10.49726303
_cell_angle_alpha   89.99654030
_cell_angle_beta   88.95835013
_cell_angle_gamma   59.91872925
_symmetry_Int_Tables_number   1
_chemical_formula_structural   Gd5Al31N36
_chemical_formula_sum   'Gd5 Al31 N36'
_cell_volume   857.34145884
_cell_formula_units_Z   1
loop_
 _symmetry_equiv_pos_site_id
 _symmetry_equiv_pos_as_xyz
  1  'x, y, z'
loop_
 _atom_site_type_symbol
 _atom_site_label
 _atom_site_symmetry_multiplicity
 _atom_site_fract_x
 _atom_site_fract_y
 _atom_site_fract_z
 _atom_site_occupancy
  Al  Al0  1  0.12580674  0.08206295  0.41900783  1
  Al  Al1  1  0.77749213  0.09063304  0.82931908  1
  Al  Al2  1  0.89228100  0.19929181  0.59153844  1
  Al  Al3  1  0.45129107  0.09103883  0.41679745  1
  Al  Al4  1  0.11426921  0.08719615  0.88990038  1
  Al  Al5  1  0.22144175  0.20594807  0.65361768  1
  Al  Al6  1  0.80000694  0.07844955  0.34042217  1
  Al  Al7  1  0.88398973  0.19745799  0.06581916  1
  Al  Al8  1  0.43800122  0.09768082  0.89320516  1
  Al  Al9  1  0.55376784  0.20041999  0.63676703  1
  Al  Al10  1  0.12579081  0.42547046  0.41900451  1
  Al  Al11  1  0.21132392  0.55315521  0.14525420  1
  Al  Al12  1  0.79200589  0.42065403  0.83191703  1
  Al  Al13  1  0.89227377  0.54174837  0.59154301  1
  Al  Al14  1  0.43575931  0.42522710  0.40975090  1
  Al  Al15  1  0.55547340  0.53893147  0.05918825  1
  Al  Al16  1  0.11426222  0.43186368  0.88990604  1
  Al  Al17  1  0.21482166  0.53957823  0.65332089  1
  Al  Al18  1  0.88397739  0.55185199  0.06582215  1
  Al  Al19  1  0.43338530  0.42762638  0.89294473  1
  Al  Al20  1  0.12598179  0.75367561  0.40115560  1
  Al  Al21  1  0.21133557  0.86883412  0.14525117  1
  Al  Al22  1  0.77748774  0.76520139  0.82932183  1
  Al  Al23  1  0.88935763  0.87197955  0.58218853  1
  Al  Al24  1  0.43576329  0.77237727  0.40974822  1
  Al  Al25  1  0.11546355  0.75892951  0.90097689  1
  Al  Al26  1  0.21482137  0.87892793  0.65332358  1
  Al  Al27  1  0.79999444  0.75487372  0.34042593  1
  Al  Al28  1  0.89214652  0.87057693  0.08341195  1
  Al  Al29  1  0.43338979  0.77233231  0.89294862  1
  Al  Al30  1  0.55375878  0.87917067  0.63676985  1
  Gd  Gd31  1  0.18819453  0.22255756  0.15696287  1
  Gd  Gd32  1  0.54787893  0.21845001  0.14740629  1
  Gd  Gd33  1  0.77675985  0.42827731  0.33288165  1
  Gd  Gd34  1  0.54405175  0.54465355  0.63272802  1
  Gd  Gd35  1  0.54787810  0.86703716  0.14739498  1
  N  N36  1  0.22795500  0.20270086  0.37374619  1
  N  N37  1  0.10501126  0.07232078  0.07094831  1
  N  N38  1  0.88153494  0.20370347  0.88237411  1
  N  N39  1  0.78360224  0.08787590  0.64502998  1
  N  N40  1  0.56486110  0.19996378  0.36793356  1
  N  N41  1  0.42453088  0.10442068  0.07161536  1
  N  N42  1  0.21591752  0.20871404  0.83847328  1
  N  N43  1  0.11661565  0.09135773  0.60321707  1
  N  N44  1  0.90209515  0.18074592  0.40816105  1
  N  N45  1  0.81272238  0.07585885  0.15439144  1
  N  N46  1  0.54938875  0.20843125  0.84746314  1
  N  N47  1  0.44527122  0.09403895  0.59893110  1
  N  N48  1  0.22427784  0.53386106  0.33536892  1
  N  N49  1  0.10499924  0.45598052  0.07095715  1
  N  N50  1  0.88152700  0.54808892  0.88237466  1
  N  N51  1  0.81027048  0.41151308  0.64820113  1
  N  N52  1  0.52722452  0.55307660  0.39590488  1
  N  N53  1  0.42028492  0.45790123  0.07224918  1
  N  N54  1  0.21893705  0.54525150  0.83362150  1
  N  N55  1  0.11660976  0.42535447  0.60321359  1
  N  N56  1  0.90207408  0.55049581  0.40816962  1
  N  N57  1  0.77721737  0.42802595  0.10994605  1
  N  N58  1  0.55953912  0.53691059  0.86627722  1
  N  N59  1  0.42271220  0.40943606  0.58956217  1
  N  N60  1  0.22428393  0.87520713  0.33536463  1
  N  N61  1  0.11347468  0.75992015  0.08616081  1
  N  N62  1  0.88047740  0.87642368  0.89490370  1
  N  N63  1  0.78359108  0.76183047  0.64503212  1
  N  N64  1  0.56485112  0.86856817  0.36792437  1
  N  N65  1  0.42030760  0.75513842  0.07225873  1
  N  N66  1  0.21894178  0.86914654  0.83362464  1
  N  N67  1  0.12346881  0.75492688  0.58891713  1
  N  N68  1  0.89554408  0.86889065  0.39879359  1
  N  N69  1  0.81272375  0.74469661  0.15439465  1
  N  N70  1  0.54938373  0.87555276  0.84747631  1
  N  N71  1  0.42270680  0.80120302  0.58955822  1
