# generated using pymatgen
data_Gd5Al31N36
_symmetry_space_group_name_H-M   'P 1'
_cell_length_a   9.74211978
_cell_length_b   9.76268917
_cell_length_c   10.42781066
_cell_angle_alpha   89.99914598
_cell_angle_beta   89.02861947
_cell_angle_gamma   59.93540128
_symmetry_Int_Tables_number   1
_chemical_formula_structural   Gd5Al31N36
_chemical_formula_sum   'Gd5 Al31 N36'
_cell_volume   858.18390486
_cell_formula_units_Z   1
loop_
 _symmetry_equiv_pos_site_id
 _symmetry_equiv_pos_as_xyz
  1  'x, y, z'
loop_
 _atom_site_type_symbol
 _atom_site_label
 _atom_site_symmetry_multiplicity
 _atom_site_fract_x
 _atom_site_fract_y
 _atom_site_fract_z
 _atom_site_occupancy
  Al  Al0  1  0.12276902  0.08165273  0.42283927  1
  Al  Al1  1  0.77177788  0.09287706  0.83016598  1
  Al  Al2  1  0.89095417  0.19994571  0.59469625  1
  Al  Al3  1  0.44303382  0.09514940  0.39727631  1
  Al  Al4  1  0.11585147  0.08655218  0.88754447  1
  Al  Al5  1  0.22516392  0.20408636  0.64759591  1
  Al  Al6  1  0.80347262  0.07687829  0.33896686  1
  Al  Al7  1  0.88755652  0.19484798  0.06496603  1
  Al  Al8  1  0.44086445  0.09623349  0.88275519  1
  Al  Al9  1  0.56272106  0.19593849  0.58274657  1
  Al  Al10  1  0.12276635  0.42890819  0.42283890  1
  Al  Al11  1  0.21083637  0.55251478  0.14493481  1
  Al  Al12  1  0.79121229  0.42105786  0.83314026  1
  Al  Al13  1  0.89095262  0.54243585  0.59469701  1
  Al  Al14  1  0.43098926  0.43201207  0.40477237  1
  Al  Al15  1  0.55504387  0.53914761  0.06331382  1
  Al  Al16  1  0.11585004  0.43092624  0.88754562  1
  Al  Al17  1  0.21618633  0.53916366  0.65364394  1
  Al  Al18  1  0.88755493  0.55092685  0.06496747  1
  Al  Al19  1  0.43298005  0.42861982  0.89649102  1
  Al  Al20  1  0.12287290  0.75522796  0.40186667  1
  Al  Al21  1  0.21083787  0.86998452  0.14493410  1
  Al  Al22  1  0.77177796  0.76867526  0.83016587  1
  Al  Al23  1  0.88893506  0.87219993  0.58517457  1
  Al  Al24  1  0.43099035  0.77033147  0.40477297  1
  Al  Al25  1  0.11599195  0.75866811  0.90046537  1
  Al  Al26  1  0.21618630  0.87798425  0.65364494  1
  Al  Al27  1  0.80347065  0.75297851  0.33896790  1
  Al  Al28  1  0.89614818  0.86859267  0.08431336  1
  Al  Al29  1  0.43297989  0.77173105  0.89649012  1
  Al  Al30  1  0.56271965  0.87468140  0.58274724  1
  Gd  Gd31  1  0.17261763  0.23035777  0.16692796  1
  Gd  Gd32  1  0.55599588  0.21614658  0.13156844  1
  Gd  Gd33  1  0.77701765  0.42815313  0.33462645  1
  Gd  Gd34  1  0.54222594  0.54555802  0.63392077  1
  Gd  Gd35  1  0.55599585  0.86120270  0.13156783  1
  N  N36  1  0.21851584  0.20741256  0.38351902  1
  N  N37  1  0.10747496  0.07158961  0.06865593  1
  N  N38  1  0.88218817  0.20304362  0.88017548  1
  N  N39  1  0.77717979  0.09142014  0.64409028  1
  N  N40  1  0.56863616  0.20014905  0.37780011  1
  N  N41  1  0.41536312  0.10898305  0.12235352  1
  N  N42  1  0.22115167  0.20609357  0.83657151  1
  N  N43  1  0.11462659  0.09091957  0.60720888  1
  N  N44  1  0.90102805  0.18097393  0.40982597  1
  N  N45  1  0.82023034  0.07207671  0.15640652  1
  N  N46  1  0.55383707  0.20479179  0.88243333  1
  N  N47  1  0.44677181  0.09327754  0.59195140  1
  N  N48  1  0.22022995  0.53597211  0.33636829  1
  N  N49  1  0.10747274  0.45426336  0.06865706  1
  N  N50  1  0.88218642  0.54810691  0.88017423  1
  N  N51  1  0.80767033  0.41282550  0.64749404  1
  N  N52  1  0.52656835  0.55338882  0.39140984  1
  N  N53  1  0.41815444  0.46217806  0.07708282  1
  N  N54  1  0.22143827  0.54439919  0.83401085  1
  N  N55  1  0.11462464  0.42778031  0.60720744  1
  N  N56  1  0.90102395  0.55133688  0.40982827  1
  N  N57  1  0.77947247  0.42692403  0.11005387  1
  N  N58  1  0.55938588  0.53697729  0.86768609  1
  N  N59  1  0.42169155  0.41121736  0.58652672  1
  N  N60  1  0.22023168  0.87713509  0.33636755  1
  N  N61  1  0.11502253  0.75915221  0.08605952  1
  N  N62  1  0.88170897  0.87581414  0.89294836  1
  N  N63  1  0.77717800  0.76472494  0.64409029  1
  N  N64  1  0.56863497  0.86456034  0.37780002  1
  N  N65  1  0.41815926  0.75299204  0.07708296  1
  N  N66  1  0.22143677  0.86750204  0.83401232  1
  N  N67  1  0.12217775  0.75557407  0.59057824  1
  N  N68  1  0.89408927  0.86962391  0.40063220  1
  N  N69  1  0.82023183  0.74101134  0.15640738  1
  N  N70  1  0.55383615  0.87471476  0.88243235  1
  N  N71  1  0.42168889  0.80041940  0.58652639  1
