# generated using pymatgen
data_Gd5Al31N36
_symmetry_space_group_name_H-M   'P 1'
_cell_length_a   9.68245059
_cell_length_b   9.70519967
_cell_length_c   10.57020098
_cell_angle_alpha   90.17109020
_cell_angle_beta   89.52963328
_cell_angle_gamma   59.91317705
_symmetry_Int_Tables_number   1
_chemical_formula_structural   Gd5Al31N36
_chemical_formula_sum   'Gd5 Al31 N36'
_cell_volume   859.39684445
_cell_formula_units_Z   1
loop_
 _symmetry_equiv_pos_site_id
 _symmetry_equiv_pos_as_xyz
  1  'x, y, z'
loop_
 _atom_site_type_symbol
 _atom_site_label
 _atom_site_symmetry_multiplicity
 _atom_site_fract_x
 _atom_site_fract_y
 _atom_site_fract_z
 _atom_site_occupancy
  Al  Al0  1  0.12179522  0.08181832  0.39749556  1
  Al  Al1  1  0.77769327  0.08985912  0.79827376  1
  Al  Al2  1  0.88817987  0.20159625  0.56434621  1
  Al  Al3  1  0.44852128  0.09471341  0.32830698  1
  Al  Al4  1  0.11670409  0.08748853  0.86361121  1
  Al  Al5  1  0.21405708  0.20995585  0.61712065  1
  Al  Al6  1  0.79261887  0.08304831  0.31340273  1
  Al  Al7  1  0.88902128  0.19373551  0.04020040  1
  Al  Al8  1  0.44627840  0.09064811  0.78977775  1
  Al  Al9  1  0.55915846  0.19555180  0.55874489  1
  Al  Al10  1  0.12172148  0.42957396  0.39776053  1
  Al  Al11  1  0.21965148  0.54598361  0.12297842  1
  Al  Al12  1  0.79449947  0.41912142  0.80611220  1
  Al  Al13  1  0.88952509  0.54408108  0.56519982  1
  Al  Al14  1  0.43220126  0.42916898  0.38318279  1
  Al  Al15  1  0.55952420  0.53383181  0.03320299  1
  Al  Al16  1  0.11817376  0.42750581  0.86445735  1
  Al  Al17  1  0.21314768  0.54354372  0.62781581  1
  Al  Al18  1  0.89114544  0.54829458  0.03990206  1
  Al  Al19  1  0.43596476  0.42826634  0.84960720  1
  Al  Al20  1  0.12169111  0.75642460  0.37533022  1
  Al  Al21  1  0.21703726  0.86652914  0.12011961  1
  Al  Al22  1  0.77464700  0.76612286  0.80066687  1
  Al  Al23  1  0.88775551  0.87300733  0.55444872  1
  Al  Al24  1  0.43043411  0.77496679  0.37922110  1
  Al  Al25  1  0.11478123  0.75850619  0.87766042  1
  Al  Al26  1  0.21321098  0.87957529  0.62751825  1
  Al  Al27  1  0.79661855  0.75597483  0.31285287  1
  Al  Al28  1  0.89882604  0.86698336  0.06371938  1
  Al  Al29  1  0.43159143  0.76918042  0.86537023  1
  Al  Al30  1  0.55843527  0.88250031  0.55189448  1
  Gd  Gd31  1  0.17160765  0.22970267  0.14899160  1
  Gd  Gd32  1  0.55962574  0.19820138  0.06030777  1
  Gd  Gd33  1  0.77186157  0.43043808  0.30253563  1
  Gd  Gd34  1  0.54733227  0.54981810  0.60046967  1
  Gd  Gd35  1  0.56014842  0.86919843  0.07331860  1
  N  N36  1  0.22086618  0.20615766  0.36609166  1
  N  N37  1  0.11247429  0.06937438  0.04324337  1
  N  N38  1  0.88151832  0.20195331  0.85762786  1
  N  N39  1  0.77974535  0.08970296  0.61703910  1
  N  N40  1  0.56730345  0.19849539  0.36990524  1
  N  N41  1  0.42580875  0.10469149  0.15257649  1
  N  N42  1  0.21453650  0.20867902  0.80714074  1
  N  N43  1  0.11068765  0.09119155  0.57846772  1
  N  N44  1  0.89727053  0.18473966  0.38177863  1
  N  N45  1  0.81289637  0.07714660  0.13200138  1
  N  N46  1  0.55194828  0.20332544  0.84006778  1
  N  N47  1  0.44780936  0.09314044  0.60878918  1
  N  N48  1  0.22048776  0.53566037  0.31280051  1
  N  N49  1  0.11466644  0.44803655  0.04433815  1
  N  N50  1  0.88264736  0.54873492  0.85766671  1
  N  N51  1  0.81301560  0.41106298  0.62491123  1
  N  N52  1  0.52544102  0.55506971  0.37102616  1
  N  N53  1  0.42922878  0.45131208  0.05814459  1
  N  N54  1  0.21735189  0.54637926  0.80764307  1
  N  N55  1  0.11279639  0.43205630  0.57834385  1
  N  N56  1  0.89738703  0.55117840  0.38251644  1
  N  N57  1  0.78429863  0.42489129  0.08139652  1
  N  N58  1  0.55935792  0.53586398  0.83841618  1
  N  N59  1  0.42309377  0.41465507  0.57009845  1
  N  N60  1  0.21994849  0.87771737  0.30842604  1
  N  N61  1  0.11932077  0.75507240  0.06151467  1
  N  N62  1  0.87892752  0.87706663  0.87167097  1
  N  N63  1  0.77674992  0.76566275  0.61745453  1
  N  N64  1  0.56887201  0.86852835  0.36228087  1
  N  N65  1  0.42400163  0.75059700  0.04782204  1
  N  N66  1  0.21816499  0.86814883  0.80715026  1
  N  N67  1  0.12033039  0.75747218  0.56229519  1
  N  N68  1  0.89192555  0.87130262  0.37228465  1
  N  N69  1  0.81742335  0.74008542  0.13210791  1
  N  N70  1  0.55130388  0.87708948  0.84984180  1
  N  N71  1  0.41682826  0.80701556  0.55950816  1
