# generated using pymatgen
data_Gd5Al31N36
_symmetry_space_group_name_H-M   'P 1'
_cell_length_a   9.70026813
_cell_length_b   9.68129252
_cell_length_c   10.29548688
_cell_angle_alpha   89.99997948
_cell_angle_beta   89.66806594
_cell_angle_gamma   60.06472435
_symmetry_Int_Tables_number   1
_chemical_formula_structural   Gd5Al31N36
_chemical_formula_sum   'Gd5 Al31 N36'
_cell_volume   837.85290179
_cell_formula_units_Z   1
loop_
 _symmetry_equiv_pos_site_id
 _symmetry_equiv_pos_as_xyz
  1  'x, y, z'
loop_
 _atom_site_type_symbol
 _atom_site_label
 _atom_site_symmetry_multiplicity
 _atom_site_fract_x
 _atom_site_fract_y
 _atom_site_fract_z
 _atom_site_occupancy
  Al  Al0  1  0.11193081  0.08505536  0.31212379  1
  Al  Al1  1  0.77879224  0.09062020  0.79651036  1
  Al  Al2  1  0.89799176  0.19665620  0.56039897  1
  Al  Al3  1  0.44278471  0.09527424  0.32365154  1
  Al  Al4  1  0.11172496  0.09069580  0.79439554  1
  Al  Al5  1  0.21690947  0.20821183  0.55589836  1
  Al  Al6  1  0.78797162  0.08471037  0.31288801  1
  Al  Al7  1  0.89505236  0.19264309  0.04722190  1
  Al  Al8  1  0.44411164  0.09461074  0.77963848  1
  Al  Al9  1  0.55509851  0.20421642  0.55235974  1
  Al  Al10  1  0.11193077  0.43634695  0.31212383  1
  Al  Al11  1  0.21365858  0.55070745  0.05770085  1
  Al  Al12  1  0.78743407  0.42294949  0.81512937  1
  Al  Al13  1  0.89799175  0.53868518  0.56039899  1
  Al  Al14  1  0.43479620  0.43651735  0.30412831  1
  Al  Al15  1  0.54282424  0.54525451  0.04307155  1
  Al  Al16  1  0.11172495  0.43091232  0.79439552  1
  Al  Al17  1  0.21691632  0.54027228  0.55333464  1
  Al  Al18  1  0.89505226  0.54563766  0.04722188  1
  Al  Al19  1  0.43430246  0.42527198  0.79989379  1
  Al  Al20  1  0.11102662  0.76115324  0.30573056  1
  Al  Al21  1  0.21365860  0.86896714  0.05770081  1
  Al  Al22  1  0.77879223  0.76392061  0.79651033  1
  Al  Al23  1  0.89133537  0.87099888  0.55503425  1
  Al  Al24  1  0.43479621  0.76201961  0.30412828  1
  Al  Al25  1  0.10965935  0.76183684  0.80598577  1
  Al  Al26  1  0.21691627  0.87614458  0.55333464  1
  Al  Al27  1  0.78797156  0.76065109  0.31288803  1
  Al  Al28  1  0.90052277  0.86640513  0.05946390  1
  Al  Al29  1  0.43430242  0.77375870  0.79989379  1
  Al  Al30  1  0.55509844  0.87401835  0.55235976  1
  Gd  Gd31  1  0.21282132  0.21025602  0.05252974  1
  Gd  Gd32  1  0.56290505  0.20731698  0.05735881  1
  Gd  Gd33  1  0.78635779  0.42348763  0.29514395  1
  Gd  Gd34  1  0.55765406  0.53783967  0.57047222  1
  Gd  Gd35  1  0.56290498  0.86311149  0.05735876  1
  N  N36  1  0.21401970  0.20965674  0.36520379  1
  N  N37  1  0.09748779  0.08038336  0.12594075  1
  N  N38  1  0.89298409  0.19606296  0.86044542  1
  N  N39  1  0.77823901  0.09261730  0.61129649  1
  N  N40  1  0.55920110  0.20971602  0.36174260  1
  N  N41  1  0.44135307  0.09599014  0.14398746  1
  N  N42  1  0.22319857  0.20506728  0.83066561  1
  N  N43  1  0.11262317  0.09000081  0.61077089  1
  N  N44  1  0.90202688  0.17959299  0.37810203  1
  N  N45  1  0.80856626  0.07687455  0.12698724  1
  N  N46  1  0.55465246  0.20149422  0.83788453  1
  N  N47  1  0.44408122  0.09462597  0.59323395  1
  N  N48  1  0.22144830  0.54276606  0.36698333  1
  N  N49  1  0.09748764  0.45546203  0.12594081  1
  N  N50  1  0.89298409  0.54428606  0.86044539  1
  N  N51  1  0.81506951  0.40913174  0.62566126  1
  N  N52  1  0.53529536  0.54901894  0.35524527  1
  N  N53  1  0.42513188  0.45658866  0.11765838  1
  N  N54  1  0.21813365  0.54002876  0.86678746  1
  N  N55  1  0.11262319  0.43070906  0.61077088  1
  N  N56  1  0.90202683  0.55171325  0.37810207  1
  N  N57  1  0.77588457  0.42872415  0.07314968  1
  N  N58  1  0.54878123  0.54227598  0.84867781  1
  N  N59  1  0.42450341  0.41442725  0.61782592  1
  N  N60  1  0.22144832  0.86911879  0.36698331  1
  N  N61  1  0.11044014  0.76144648  0.11673335  1
  N  N62  1  0.88709133  0.87312087  0.86575212  1
  N  N63  1  0.77823898  0.76247671  0.61129648  1
  N  N64  1  0.55920104  0.86441618  0.36174261  1
  N  N65  1  0.42513197  0.75161263  0.11765831  1
  N  N66  1  0.21813362  0.87517072  0.86678746  1
  N  N67  1  0.11104611  0.76114345  0.61677432  1
  N  N68  1  0.89333050  0.87000130  0.36984509  1
  N  N69  1  0.80856619  0.74789213  0.12698725  1
  N  N70  1  0.55465246  0.87718647  0.83788447  1
  N  N71  1  0.42450330  0.79440256  0.61782593  1
