# generated using pymatgen
data_Gd5Al31N36
_symmetry_space_group_name_H-M   'P 1'
_cell_length_a   9.70552911
_cell_length_b   9.68117906
_cell_length_c   10.61500820
_cell_angle_alpha   89.36132237
_cell_angle_beta   88.82537463
_cell_angle_gamma   60.11369609
_symmetry_Int_Tables_number   1
_chemical_formula_structural   Gd5Al31N36
_chemical_formula_sum   'Gd5 Al31 N36'
_cell_volume   864.57631419
_cell_formula_units_Z   1
loop_
 _symmetry_equiv_pos_site_id
 _symmetry_equiv_pos_as_xyz
  1  'x, y, z'
loop_
 _atom_site_type_symbol
 _atom_site_label
 _atom_site_symmetry_multiplicity
 _atom_site_fract_x
 _atom_site_fract_y
 _atom_site_fract_z
 _atom_site_occupancy
  Al  Al0  1  0.12027851  0.08331003  0.39185120  1
  Al  Al1  1  0.77256186  0.09067181  0.79845289  1
  Al  Al2  1  0.89121207  0.20101406  0.56766959  1
  Al  Al3  1  0.45024641  0.09498203  0.32654183  1
  Al  Al4  1  0.10855320  0.08137329  0.86554317  1
  Al  Al5  1  0.22833502  0.20142680  0.56853674  1
  Al  Al6  1  0.78853652  0.08959659  0.31623964  1
  Al  Al7  1  0.88441865  0.19934885  0.04254614  1
  Al  Al8  1  0.44087334  0.09281187  0.78617080  1
  Al  Al9  1  0.55803630  0.20211309  0.55580994  1
  Al  Al10  1  0.11890751  0.43376685  0.37506303  1
  Al  Al11  1  0.20920254  0.54669512  0.14102304  1
  Al  Al12  1  0.77886885  0.42363387  0.81415964  1
  Al  Al13  1  0.89033379  0.54257302  0.56934513  1
  Al  Al14  1  0.44760497  0.43124984  0.30774305  1
  Al  Al15  1  0.54128323  0.54638269  0.04610490  1
  Al  Al16  1  0.10334402  0.42387390  0.80041697  1
  Al  Al17  1  0.21733116  0.54168115  0.62379568  1
  Al  Al18  1  0.89137010  0.54665948  0.04139843  1
  Al  Al19  1  0.44005260  0.42155555  0.80018256  1
  Al  Al20  1  0.10352830  0.76995137  0.31745017  1
  Al  Al21  1  0.21102770  0.87738263  0.13005898  1
  Al  Al22  1  0.77384565  0.76521412  0.79838070  1
  Al  Al23  1  0.88840416  0.87299303  0.55652592  1
  Al  Al24  1  0.44489174  0.76289036  0.30332945  1
  Al  Al25  1  0.09715258  0.76243010  0.80989383  1
  Al  Al26  1  0.21337243  0.88137702  0.63175623  1
  Al  Al27  1  0.78841758  0.76174130  0.31595040  1
  Al  Al28  1  0.90184826  0.86560210  0.06711768  1
  Al  Al29  1  0.44267405  0.76381630  0.80043296  1
  Al  Al30  1  0.55685341  0.87425361  0.55626894  1
  Gd  Gd31  1  0.22222147  0.21118104  0.06248084  1
  Gd  Gd32  1  0.56774670  0.20790781  0.05811052  1
  Gd  Gd33  1  0.80066203  0.42354769  0.28904607  1
  Gd  Gd34  1  0.56050435  0.53792367  0.55916618  1
  Gd  Gd35  1  0.56504440  0.86646892  0.05558095  1
  N  N36  1  0.22697342  0.20836501  0.37975312  1
  N  N37  1  0.10266810  0.07074033  0.04819493  1
  N  N38  1  0.87579684  0.20086206  0.85999071  1
  N  N39  1  0.77743958  0.09144467  0.61734938  1
  N  N40  1  0.56247478  0.20932295  0.37085409  1
  N  N41  1  0.45314127  0.09334794  0.15292196  1
  N  N42  1  0.21798343  0.20189643  0.83703132  1
  N  N43  1  0.11592485  0.08816077  0.57483817  1
  N  N44  1  0.89567008  0.18875503  0.38491306  1
  N  N45  1  0.81083978  0.07988204  0.13545744  1
  N  N46  1  0.54894727  0.20023460  0.84354248  1
  N  N47  1  0.44862065  0.09230399  0.60514967  1
  N  N48  1  0.22361572  0.54293926  0.33480054  1
  N  N49  1  0.08952392  0.45584034  0.10663869  1
  N  N50  1  0.88362527  0.54586131  0.85799998  1
  N  N51  1  0.81039322  0.41059742  0.63272996  1
  N  N52  1  0.54531594  0.54833273  0.35061464  1
  N  N53  1  0.43146053  0.45205715  0.12496216  1
  N  N54  1  0.21348010  0.53823158  0.81428123  1
  N  N55  1  0.11146419  0.42576063  0.60419506  1
  N  N56  1  0.89927324  0.55610707  0.39155007  1
  N  N57  1  0.77372668  0.42890694  0.07367924  1
  N  N58  1  0.54570250  0.54017797  0.85626377  1
  N  N59  1  0.43674220  0.41042576  0.61930074  1
  N  N60  1  0.21866837  0.88358047  0.31822491  1
  N  N61  1  0.10453764  0.76454208  0.12967593  1
  N  N62  1  0.87987810  0.87407069  0.87418306  1
  N  N63  1  0.77703804  0.76465586  0.61793394  1
  N  N64  1  0.56140574  0.86657703  0.37054436  1
  N  N65  1  0.43433022  0.75051541  0.11989648  1
  N  N66  1  0.21507480  0.86962424  0.81505531  1
  N  N67  1  0.10041326  0.76708549  0.61626771  1
  N  N68  1  0.88851675  0.87514973  0.37611377  1
  N  N69  1  0.80578408  0.74610294  0.13345622  1
  N  N70  1  0.55128203  0.87527127  0.84150141  1
  N  N71  1  0.43471425  0.78685791  0.62060713  1
