# generated using pymatgen
data_Gd5Al31N36
_symmetry_space_group_name_H-M   'P 1'
_cell_length_a   9.68182548
_cell_length_b   9.68988795
_cell_length_c   10.57912996
_cell_angle_alpha   90.32176006
_cell_angle_beta   89.43825283
_cell_angle_gamma   60.07425998
_symmetry_Int_Tables_number   1
_chemical_formula_structural   Gd5Al31N36
_chemical_formula_sum   'Gd5 Al31 N36'
_cell_volume   860.05908712
_cell_formula_units_Z   1
loop_
 _symmetry_equiv_pos_site_id
 _symmetry_equiv_pos_as_xyz
  1  'x, y, z'
loop_
 _atom_site_type_symbol
 _atom_site_label
 _atom_site_symmetry_multiplicity
 _atom_site_fract_x
 _atom_site_fract_y
 _atom_site_fract_z
 _atom_site_occupancy
  Al  Al0  1  0.12596551  0.07975646  0.41864282  1
  Al  Al1  1  0.77830816  0.09789203  0.82795360  1
  Al  Al2  1  0.89420416  0.19982598  0.59201301  1
  Al  Al3  1  0.44706866  0.08995600  0.42673183  1
  Al  Al4  1  0.11737563  0.08735699  0.89030083  1
  Al  Al5  1  0.21973015  0.20622358  0.65521546  1
  Al  Al6  1  0.78451699  0.08002466  0.38743889  1
  Al  Al7  1  0.88384682  0.19949746  0.05923117  1
  Al  Al8  1  0.44170231  0.09709590  0.89196885  1
  Al  Al9  1  0.54454709  0.20513740  0.65123905  1
  Al  Al10  1  0.12487987  0.42350048  0.41665709  1
  Al  Al11  1  0.21649968  0.55041661  0.14365581  1
  Al  Al12  1  0.79480401  0.42182077  0.82732041  1
  Al  Al13  1  0.89432095  0.53613111  0.59130612  1
  Al  Al14  1  0.43334209  0.42483285  0.41575169  1
  Al  Al15  1  0.55699677  0.54053402  0.05398509  1
  Al  Al16  1  0.11734321  0.43073390  0.88971239  1
  Al  Al17  1  0.21217885  0.54134930  0.65392523  1
  Al  Al18  1  0.88818272  0.54313986  0.05834012  1
  Al  Al19  1  0.43330751  0.43015954  0.89010751  1
  Al  Al20  1  0.11686744  0.75543286  0.39810879  1
  Al  Al21  1  0.21558749  0.86916109  0.14424158  1
  Al  Al22  1  0.77852636  0.77175789  0.89108125  1
  Al  Al23  1  0.89620372  0.86339686  0.65192389  1
  Al  Al24  1  0.43415823  0.77213716  0.41487020  1
  Al  Al25  1  0.10867757  0.76410020  0.90333044  1
  Al  Al26  1  0.21422060  0.87847526  0.65393327  1
  Al  Al27  1  0.77970442  0.76632410  0.41693726  1
  Al  Al28  1  0.89843787  0.86797244  0.15236361  1
  Al  Al29  1  0.43511291  0.77338546  0.89031677  1
  Al  Al30  1  0.55252671  0.87978804  0.65483611  1
  Gd  Gd31  1  0.20166474  0.21548896  0.15558016  1
  Gd  Gd32  1  0.54964931  0.22025693  0.15646845  1
  Gd  Gd33  1  0.77644142  0.42291644  0.32786798  1
  Gd  Gd34  1  0.54711499  0.54301449  0.63048257  1
  Gd  Gd35  1  0.55929576  0.86172888  0.15524148  1
  N  N36  1  0.22808630  0.20002415  0.37358868  1
  N  N37  1  0.10619182  0.07461436  0.07047065  1
  N  N38  1  0.88659196  0.20560558  0.87676333  1
  N  N39  1  0.77679454  0.09372963  0.63313173  1
  N  N40  1  0.56022864  0.19831041  0.37574110  1
  N  N41  1  0.43819879  0.09563630  0.06809493  1
  N  N42  1  0.21924908  0.20782818  0.83897282  1
  N  N43  1  0.11730896  0.09017127  0.60259394  1
  N  N44  1  0.90215908  0.17849455  0.41089172  1
  N  N45  1  0.80084405  0.08423022  0.12580914  1
  N  N46  1  0.54891996  0.21095920  0.83689089  1
  N  N47  1  0.44186614  0.09395485  0.60617915  1
  N  N48  1  0.22630557  0.53069575  0.33490396  1
  N  N49  1  0.10779212  0.45251853  0.07209484  1
  N  N50  1  0.88936513  0.54178381  0.87495377  1
  N  N51  1  0.81166497  0.41011898  0.64755750  1
  N  N52  1  0.52933315  0.55037029  0.39966805  1
  N  N53  1  0.42323828  0.45671567  0.06784784  1
  N  N54  1  0.21788694  0.54760575  0.83400510  1
  N  N55  1  0.11680299  0.42461867  0.60091541  1
  N  N56  1  0.90169975  0.54398412  0.40429011  1
  N  N57  1  0.77677295  0.43078454  0.10619382  1
  N  N58  1  0.56140559  0.53786598  0.86363685  1
  N  N59  1  0.41925963  0.41171631  0.59353076  1
  N  N60  1  0.22476648  0.87240483  0.33599219  1
  N  N61  1  0.10947002  0.76255358  0.08951985  1
  N  N62  1  0.89584183  0.87008776  0.83441357  1
  N  N63  1  0.77522655  0.76716310  0.60169957  1
  N  N64  1  0.55966995  0.87049526  0.37180039  1
  N  N65  1  0.42408426  0.75916849  0.06908886  1
  N  N66  1  0.21927609  0.86954837  0.83417942  1
  N  N67  1  0.11381551  0.75891736  0.58556754  1
  N  N68  1  0.89478624  0.86096711  0.34456643  1
  N  N69  1  0.79939637  0.76271107  0.07389676  1
  N  N70  1  0.55622117  0.87374989  0.83868698  1
  N  N71  1  0.42239675  0.80104430  0.59442800  1
