# generated using pymatgen
data_Gd5Al31N36
_symmetry_space_group_name_H-M   'P 1'
_cell_length_a   9.68456188
_cell_length_b   9.70649856
_cell_length_c   10.55877453
_cell_angle_alpha   90.00000650
_cell_angle_beta   89.20109199
_cell_angle_gamma   59.92503330
_symmetry_Int_Tables_number   1
_chemical_formula_structural   Gd5Al31N36
_chemical_formula_sum   'Gd5 Al31 N36'
_cell_volume   858.81925348
_cell_formula_units_Z   1
loop_
 _symmetry_equiv_pos_site_id
 _symmetry_equiv_pos_as_xyz
  1  'x, y, z'
loop_
 _atom_site_type_symbol
 _atom_site_label
 _atom_site_symmetry_multiplicity
 _atom_site_fract_x
 _atom_site_fract_y
 _atom_site_fract_z
 _atom_site_occupancy
  Al  Al0  1  0.12373541  0.08027038  0.40715749  1
  Al  Al1  1  0.77405931  0.09253533  0.80843128  1
  Al  Al2  1  0.88791501  0.20103052  0.57331117  1
  Al  Al3  1  0.44896287  0.09218483  0.33620584  1
  Al  Al4  1  0.11699156  0.08845586  0.87098316  1
  Al  Al5  1  0.21542234  0.20895511  0.62490313  1
  Al  Al6  1  0.79765928  0.07998942  0.32101899  1
  Al  Al7  1  0.88978918  0.19438597  0.04785667  1
  Al  Al8  1  0.44643640  0.09344808  0.80007504  1
  Al  Al9  1  0.55911034  0.19382550  0.56185615  1
  Al  Al10  1  0.12373542  0.42932675  0.40715751  1
  Al  Al11  1  0.21631104  0.54843642  0.12853888  1
  Al  Al12  1  0.79248300  0.42042480  0.81352846  1
  Al  Al13  1  0.88791500  0.54438706  0.57331118  1
  Al  Al14  1  0.43252998  0.42814261  0.38758844  1
  Al  Al15  1  0.56008069  0.53662594  0.04356809  1
  Al  Al16  1  0.11699158  0.42788514  0.87098313  1
  Al  Al17  1  0.21403756  0.54083928  0.63610835  1
  Al  Al18  1  0.88978927  0.54915744  0.04785666  1
  Al  Al19  1  0.43184986  0.43149791  0.87407877  1
  Al  Al20  1  0.12384856  0.75474198  0.38331342  1
  Al  Al21  1  0.21631099  0.86858516  0.12853890  1
  Al  Al22  1  0.77405932  0.76673799  0.80843130  1
  Al  Al23  1  0.88846400  0.87243431  0.56334705  1
  Al  Al24  1  0.43252998  0.77265990  0.38758843  1
  Al  Al25  1  0.11420158  0.75956552  0.88412471  1
  Al  Al26  1  0.21403758  0.87845572  0.63610834  1
  Al  Al27  1  0.79765933  0.75568385  0.32101899  1
  Al  Al28  1  0.89906004  0.86713630  0.07049781  1
  Al  Al29  1  0.43184987  0.76998484  0.87407880  1
  Al  Al30  1  0.55911034  0.88039670  0.56185612  1
  Gd  Gd31  1  0.16841661  0.23245800  0.15927105  1
  Gd  Gd32  1  0.55999005  0.20168290  0.07964376  1
  Gd  Gd33  1  0.77397358  0.42967950  0.31384485  1
  Gd  Gd34  1  0.54121373  0.54605941  0.61270733  1
  Gd  Gd35  1  0.55999006  0.87165953  0.07964387  1
  N  N36  1  0.22275531  0.20528861  0.37714126  1
  N  N37  1  0.11307760  0.07153414  0.05126629  1
  N  N38  1  0.88137906  0.20289434  0.86534211  1
  N  N39  1  0.77719942  0.09081211  0.62560629  1
  N  N40  1  0.57008757  0.19595443  0.37143410  1
  N  N41  1  0.42250287  0.10541485  0.16065310  1
  N  N42  1  0.21454910  0.20939172  0.81460667  1
  N  N43  1  0.11080115  0.09047403  0.58817909  1
  N  N44  1  0.89991709  0.18254675  0.39052678  1
  N  N45  1  0.81683804  0.07537362  0.13988567  1
  N  N46  1  0.55072691  0.20447408  0.85725791  1
  N  N47  1  0.44939080  0.09197088  0.61777396  1
  N  N48  1  0.22145540  0.53467493  0.31723590  1
  N  N49  1  0.11307768  0.44872082  0.05126626  1
  N  N50  1  0.88137908  0.54905920  0.86534211  1
  N  N51  1  0.80801292  0.41265985  0.63114349  1
  N  N52  1  0.52567661  0.55382793  0.37638611  1
  N  N53  1  0.42435014  0.45632337  0.05802803  1
  N  N54  1  0.21883654  0.54597616  0.81573440  1
  N  N55  1  0.11080115  0.43205740  0.58817911  1
  N  N56  1  0.89991711  0.55086871  0.39052678  1
  N  N57  1  0.78361758  0.42485754  0.09208436  1
  N  N58  1  0.55912159  0.53710550  0.84869866  1
  N  N59  1  0.41898861  0.41171404  0.56848602  1
  N  N60  1  0.22145539  0.87720220  0.31723590  1
  N  N61  1  0.11907266  0.75712997  0.06831185  1
  N  N62  1  0.87859191  0.87737037  0.87899427  1
  N  N63  1  0.77719940  0.76532110  0.62560629  1
  N  N64  1  0.57008758  0.86729049  0.37143406  1
  N  N65  1  0.42435008  0.75265908  0.05802803  1
  N  N66  1  0.21883655  0.86851989  0.81573439  1
  N  N67  1  0.12162986  0.75585135  0.57091715  1
  N  N68  1  0.89431324  0.86950968  0.38079993  1
  N  N69  1  0.81683811  0.74112095  0.13988567  1
  N  N70  1  0.55072693  0.87813160  0.85725799  1
  N  N71  1  0.41898862  0.80262992  0.56848601  1
