# generated using pymatgen
data_Gd5Al31N36
_symmetry_space_group_name_H-M   'P 1'
_cell_length_a   9.70168216
_cell_length_b   9.70268811
_cell_length_c   10.47964119
_cell_angle_alpha   90.23978993
_cell_angle_beta   89.83488146
_cell_angle_gamma   59.97260112
_symmetry_Int_Tables_number   1
_chemical_formula_structural   Gd5Al31N36
_chemical_formula_sum   'Gd5 Al31 N36'
_cell_volume   854.05376456
_cell_formula_units_Z   1
loop_
 _symmetry_equiv_pos_site_id
 _symmetry_equiv_pos_as_xyz
  1  'x, y, z'
loop_
 _atom_site_type_symbol
 _atom_site_label
 _atom_site_symmetry_multiplicity
 _atom_site_fract_x
 _atom_site_fract_y
 _atom_site_fract_z
 _atom_site_occupancy
  Al  Al0  1  0.12278318  0.08297119  0.41702246  1
  Al  Al1  1  0.77987281  0.08587336  0.88880034  1
  Al  Al2  1  0.89347788  0.20005320  0.59144280  1
  Al  Al3  1  0.44556726  0.09365070  0.42655573  1
  Al  Al4  1  0.11930284  0.08680594  0.88914486  1
  Al  Al5  1  0.22051401  0.20657635  0.65161493  1
  Al  Al6  1  0.77784012  0.08187058  0.41534095  1
  Al  Al7  1  0.89156761  0.20144641  0.05954794  1
  Al  Al8  1  0.44284263  0.09543289  0.89179014  1
  Al  Al9  1  0.55213509  0.20079386  0.65463826  1
  Al  Al10  1  0.11134281  0.43248851  0.41582315  1
  Al  Al11  1  0.21691377  0.54987170  0.14584607  1
  Al  Al12  1  0.79014900  0.41589594  0.83028519  1
  Al  Al13  1  0.89628806  0.54133217  0.65079618  1
  Al  Al14  1  0.42991178  0.42601286  0.41413000  1
  Al  Al15  1  0.55520159  0.54004785  0.05563399  1
  Al  Al16  1  0.11994349  0.42893834  0.88806081  1
  Al  Al17  1  0.21300508  0.54223557  0.65141998  1
  Al  Al18  1  0.89154438  0.54268026  0.07172080  1
  Al  Al19  1  0.43479151  0.42737232  0.88965298  1
  Al  Al20  1  0.11222755  0.76011993  0.39585299  1
  Al  Al21  1  0.21787038  0.86799659  0.14609860  1
  Al  Al22  1  0.77897444  0.76986130  0.88815233  1
  Al  Al23  1  0.89278747  0.87066704  0.65224877  1
  Al  Al24  1  0.43143748  0.77517577  0.41500527  1
  Al  Al25  1  0.11096841  0.76193651  0.90239259  1
  Al  Al26  1  0.21289499  0.87937267  0.65341952  1
  Al  Al27  1  0.78330735  0.76088761  0.41483525  1
  Al  Al28  1  0.89874773  0.86748357  0.14785786  1
  Al  Al29  1  0.43570438  0.77235651  0.88987407  1
  Al  Al30  1  0.55262910  0.87972514  0.65260854  1
  Gd  Gd31  1  0.20536596  0.21673483  0.15917529  1
  Gd  Gd32  1  0.56079723  0.21405393  0.15399088  1
  Gd  Gd33  1  0.77274438  0.42735877  0.32995855  1
  Gd  Gd34  1  0.54589926  0.54331744  0.62725804  1
  Gd  Gd35  1  0.56287178  0.85904821  0.15660575  1
  N  N36  1  0.22476356  0.20437591  0.37808686  1
  N  N37  1  0.11028848  0.07470714  0.07397204  1
  N  N38  1  0.89132941  0.20237464  0.87539376  1
  N  N39  1  0.77395447  0.08886893  0.60275338  1
  N  N40  1  0.55661954  0.20170139  0.37094575  1
  N  N41  1  0.44124201  0.09555716  0.07076053  1
  N  N42  1  0.22112595  0.20697826  0.83826515  1
  N  N43  1  0.11563941  0.09140114  0.60281524  1
  N  N44  1  0.90139537  0.17975920  0.40398026  1
  N  N45  1  0.80115713  0.07324469  0.07396139  1
  N  N46  1  0.55637446  0.20548379  0.84075560  1
  N  N47  1  0.44326113  0.09510047  0.60791161  1
  N  N48  1  0.22233351  0.53440570  0.33593043  1
  N  N49  1  0.10871237  0.45208372  0.06830606  1
  N  N50  1  0.89212689  0.54181038  0.85275595  1
  N  N51  1  0.80866044  0.40907160  0.64771800  1
  N  N52  1  0.52331947  0.55428780  0.39939744  1
  N  N53  1  0.42404383  0.45334896  0.07037326  1
  N  N54  1  0.21954809  0.54624620  0.83338502  1
  N  N55  1  0.10981507  0.43036772  0.60141354  1
  N  N56  1  0.90248455  0.55118586  0.36431401  1
  N  N57  1  0.77839383  0.42887638  0.10239698  1
  N  N58  1  0.56034351  0.53665678  0.86518557  1
  N  N59  1  0.42025885  0.40891182  0.59509772  1
  N  N60  1  0.22290419  0.87499265  0.33595461  1
  N  N61  1  0.11108925  0.76193373  0.08991076  1
  N  N62  1  0.89600424  0.86926723  0.83383857  1
  N  N63  1  0.77898973  0.76226645  0.60293744  1
  N  N64  1  0.55781456  0.87298951  0.37423765  1
  N  N65  1  0.42553467  0.75803842  0.07092359  1
  N  N66  1  0.21966849  0.86896389  0.83526331  1
  N  N67  1  0.11171614  0.76135202  0.58517514  1
  N  N68  1  0.88703758  0.87216370  0.33945303  1
  N  N69  1  0.80077297  0.75977688  0.06913820  1
  N  N70  1  0.55666474  0.87223604  0.83898092  1
  N  N71  1  0.42061187  0.80264101  0.59605102  1
