# generated using pymatgen
data_Gd5Al31N36
_symmetry_space_group_name_H-M   'P 1'
_cell_length_a   9.70702737
_cell_length_b   9.71467414
_cell_length_c   10.44098227
_cell_angle_alpha   90.46049622
_cell_angle_beta   90.12048635
_cell_angle_gamma   59.85728746
_symmetry_Int_Tables_number   1
_chemical_formula_structural   Gd5Al31N36
_chemical_formula_sum   'Gd5 Al31 N36'
_cell_volume   851.42231396
_cell_formula_units_Z   1
loop_
 _symmetry_equiv_pos_site_id
 _symmetry_equiv_pos_as_xyz
  1  'x, y, z'
loop_
 _atom_site_type_symbol
 _atom_site_label
 _atom_site_symmetry_multiplicity
 _atom_site_fract_x
 _atom_site_fract_y
 _atom_site_fract_z
 _atom_site_occupancy
  Al  Al0  1  0.12252821  0.08210991  0.41568280  1
  Al  Al1  1  0.78056671  0.08579637  0.88822985  1
  Al  Al2  1  0.89302163  0.19750249  0.59246954  1
  Al  Al3  1  0.44459344  0.09273157  0.42562098  1
  Al  Al4  1  0.11855541  0.08781087  0.88810446  1
  Al  Al5  1  0.21830472  0.20901632  0.65074634  1
  Al  Al6  1  0.77729717  0.07922681  0.41625265  1
  Al  Al7  1  0.89101959  0.20623683  0.06118114  1
  Al  Al8  1  0.44361442  0.09596461  0.88848988  1
  Al  Al9  1  0.55163657  0.20011015  0.65457274  1
  Al  Al10  1  0.11166850  0.43296726  0.40747505  1
  Al  Al11  1  0.22004194  0.55038862  0.14514025  1
  Al  Al12  1  0.79189496  0.41864407  0.82746369  1
  Al  Al13  1  0.89567330  0.54207282  0.65175927  1
  Al  Al14  1  0.42784903  0.42507167  0.41535239  1
  Al  Al15  1  0.56023351  0.53895927  0.05832921  1
  Al  Al16  1  0.10939550  0.43499649  0.89459135  1
  Al  Al17  1  0.20975463  0.54107226  0.65099524  1
  Al  Al18  1  0.90001665  0.55057485  0.14128649  1
  Al  Al19  1  0.43424179  0.42736199  0.89027092  1
  Al  Al20  1  0.11325217  0.76062595  0.39583426  1
  Al  Al21  1  0.21830016  0.86810820  0.14492203  1
  Al  Al22  1  0.78507284  0.75962094  0.89443906  1
  Al  Al23  1  0.89243025  0.86772970  0.65192984  1
  Al  Al24  1  0.43087054  0.77456031  0.41372217  1
  Al  Al25  1  0.11095199  0.76162635  0.90129199  1
  Al  Al26  1  0.21285762  0.87975508  0.65274576  1
  Al  Al27  1  0.78362838  0.76166003  0.40705656  1
  Al  Al28  1  0.89993072  0.87019756  0.14656713  1
  Al  Al29  1  0.43669975  0.77192857  0.89017870  1
  Al  Al30  1  0.55464675  0.87749400  0.65151827  1
  Gd  Gd31  1  0.20983137  0.21319583  0.15475526  1
  Gd  Gd32  1  0.56312912  0.21493017  0.15348019  1
  Gd  Gd33  1  0.76866226  0.42356476  0.34178217  1
  Gd  Gd34  1  0.53996918  0.54511863  0.63097327  1
  Gd  Gd35  1  0.56103087  0.86239397  0.15266626  1
  N  N36  1  0.22339286  0.20382026  0.37448065  1
  N  N37  1  0.11043994  0.07420145  0.07264097  1
  N  N38  1  0.89005805  0.20567849  0.87432519  1
  N  N39  1  0.77379474  0.08660551  0.60362700  1
  N  N40  1  0.55582537  0.20059139  0.37136946  1
  N  N41  1  0.44443830  0.09752396  0.06739342  1
  N  N42  1  0.21864786  0.21052053  0.83877025  1
  N  N43  1  0.11531304  0.09194993  0.60248050  1
  N  N44  1  0.90177813  0.17461423  0.40412019  1
  N  N45  1  0.80305750  0.07496878  0.07317193  1
  N  N46  1  0.55684287  0.20599621  0.84011200  1
  N  N47  1  0.44248110  0.09414530  0.60784001  1
  N  N48  1  0.22219992  0.53553151  0.33534872  1
  N  N49  1  0.10571230  0.45491685  0.07512827  1
  N  N50  1  0.89347550  0.54347771  0.83664103  1
  N  N51  1  0.80452663  0.41090803  0.63864176  1
  N  N52  1  0.51884607  0.55426465  0.40106150  1
  N  N53  1  0.42630102  0.45427668  0.07076143  1
  N  N54  1  0.21734308  0.54478107  0.83435823  1
  N  N55  1  0.10527189  0.43226320  0.59141930  1
  N  N56  1  0.90536320  0.55452551  0.33025256  1
  N  N57  1  0.77944510  0.42898536  0.11582117  1
  N  N58  1  0.56273643  0.53584850  0.86608924  1
  N  N59  1  0.41765998  0.40785037  0.59589541  1
  N  N60  1  0.22256787  0.87460084  0.33530914  1
  N  N61  1  0.11216984  0.76221466  0.08905333  1
  N  N62  1  0.89465348  0.86731627  0.83468448  1
  N  N63  1  0.78061042  0.75895796  0.59337600  1
  N  N64  1  0.55713397  0.87184199  0.37086063  1
  N  N65  1  0.42594137  0.75748650  0.07098811  1
  N  N66  1  0.21995861  0.86871722  0.83461044  1
  N  N67  1  0.11193562  0.76087466  0.58534454  1
  N  N68  1  0.88818906  0.87179281  0.33853950  1
  N  N69  1  0.80463118  0.75575989  0.07580111  1
  N  N70  1  0.55986986  0.86976926  0.83942652  1
  N  N71  1  0.42043861  0.80317024  0.59473414  1
