# generated using pymatgen
data_Gd5Al31N36
_symmetry_space_group_name_H-M   'P 1'
_cell_length_a   9.61242500
_cell_length_b   9.64537566
_cell_length_c   10.76755913
_cell_angle_alpha   89.99897802
_cell_angle_beta   89.58568250
_cell_angle_gamma   59.88662225
_symmetry_Int_Tables_number   1
_chemical_formula_structural   Gd5Al31N36
_chemical_formula_sum   'Gd5 Al31 N36'
_cell_volume   863.55015889
_cell_formula_units_Z   1
loop_
 _symmetry_equiv_pos_site_id
 _symmetry_equiv_pos_as_xyz
  1  'x, y, z'
loop_
 _atom_site_type_symbol
 _atom_site_label
 _atom_site_symmetry_multiplicity
 _atom_site_fract_x
 _atom_site_fract_y
 _atom_site_fract_z
 _atom_site_occupancy
  Al  Al0  1  0.12216800  0.08114877  0.39952413  1
  Al  Al1  1  0.77789937  0.09116504  0.79670238  1
  Al  Al2  1  0.88945655  0.20027236  0.56664877  1
  Al  Al3  1  0.44755729  0.09288842  0.32991317  1
  Al  Al4  1  0.11876313  0.08799936  0.86750001  1
  Al  Al5  1  0.21411502  0.20960912  0.62071868  1
  Al  Al6  1  0.78697125  0.08797998  0.31385496  1
  Al  Al7  1  0.88770840  0.19645301  0.03847588  1
  Al  Al8  1  0.44916926  0.09208178  0.78453043  1
  Al  Al9  1  0.55523547  0.20242650  0.55575522  1
  Al  Al10  1  0.12216704  0.43001586  0.39952385  1
  Al  Al11  1  0.21353579  0.54368679  0.12476565  1
  Al  Al12  1  0.78591921  0.42370646  0.80811016  1
  Al  Al13  1  0.88945685  0.54360433  0.56664914  1
  Al  Al14  1  0.44133418  0.42847111  0.30178825  1
  Al  Al15  1  0.55024368  0.54154519  0.04394700  1
  Al  Al16  1  0.11876356  0.42656889  0.86750033  1
  Al  Al17  1  0.21255367  0.54041541  0.63465710  1
  Al  Al18  1  0.88770791  0.54917180  0.03847543  1
  Al  Al19  1  0.44810689  0.42161112  0.79894796  1
  Al  Al20  1  0.10330839  0.76501218  0.30870734  1
  Al  Al21  1  0.21353699  0.87611035  0.12476443  1
  Al  Al22  1  0.77789920  0.76426780  0.79670168  1
  Al  Al23  1  0.89174121  0.87079617  0.55344659  1
  Al  Al24  1  0.44133432  0.76352880  0.30178780  1
  Al  Al25  1  0.10265483  0.76533803  0.82146453  1
  Al  Al26  1  0.21255326  0.88036438  0.63465807  1
  Al  Al27  1  0.78697031  0.75838224  0.31385571  1
  Al  Al28  1  0.89862235  0.86735521  0.06375623  1
  Al  Al29  1  0.44810625  0.76361435  0.79894865  1
  Al  Al30  1  0.55523504  0.87567221  0.55575599  1
  Gd  Gd31  1  0.17862003  0.22735524  0.14987021  1
  Gd  Gd32  1  0.55642760  0.20469505  0.05341345  1
  Gd  Gd33  1  0.78603355  0.42365066  0.29463793  1
  Gd  Gd34  1  0.55519597  0.53907027  0.55740124  1
  Gd  Gd35  1  0.55642801  0.87221409  0.05341235  1
  N  N36  1  0.21733582  0.20799934  0.36157889  1
  N  N37  1  0.11410717  0.07177123  0.04342437  1
  N  N38  1  0.88134593  0.20255518  0.85905790  1
  N  N39  1  0.77844223  0.08997535  0.61691949  1
  N  N40  1  0.55891937  0.20891282  0.37071235  1
  N  N41  1  0.43736742  0.09798256  0.15437982  1
  N  N42  1  0.21615311  0.20859021  0.80642979  1
  N  N43  1  0.11634770  0.08766295  0.57626095  1
  N  N44  1  0.89365851  0.18634760  0.38683593  1
  N  N45  1  0.80751311  0.08259129  0.13218403  1
  N  N46  1  0.55436618  0.20157454  0.84225948  1
  N  N47  1  0.44739723  0.09296766  0.60509012  1
  N  N48  1  0.21328148  0.53372685  0.31154817  1
  N  N49  1  0.11410674  0.44745616  0.04342516  1
  N  N50  1  0.88134683  0.54943003  0.85905720  1
  N  N51  1  0.81077310  0.41127899  0.63018139  1
  N  N52  1  0.52969651  0.55181820  0.35292450  1
  N  N53  1  0.44005850  0.44809063  0.12055696  1
  N  N54  1  0.21868393  0.54139373  0.81563932  1
  N  N55  1  0.11634828  0.42932302  0.57626060  1
  N  N56  1  0.89365724  0.55332667  0.38683709  1
  N  N57  1  0.78718258  0.42307409  0.08063860  1
  N  N58  1  0.55279529  0.54026807  0.85770790  1
  N  N59  1  0.43646457  0.41026141  0.62267915  1
  N  N60  1  0.21328147  0.88632606  0.31154729  1
  N  N61  1  0.10740384  0.76296505  0.11728321  1
  N  N62  1  0.88180488  0.87576296  0.87446237  1
  N  N63  1  0.77844212  0.76491403  0.61691916  1
  N  N64  1  0.55891861  0.86550147  0.37071325  1
  N  N65  1  0.44005991  0.74518369  0.12055598  1
  N  N66  1  0.21868253  0.87325543  0.81564041  1
  N  N67  1  0.10565236  0.76384072  0.61126373  1
  N  N68  1  0.88855310  0.87238952  0.37222918  1
  N  N69  1  0.80751295  0.74322568  0.13218430  1
  N  N70  1  0.55436621  0.87739016  0.84225857  1
  N  N71  1  0.43646343  0.78660707  0.62267992  1
