# generated using pymatgen
data_Gd5Al31N36
_symmetry_space_group_name_H-M   'P 1'
_cell_length_a   9.71776772
_cell_length_b   9.69289937
_cell_length_c   10.35376224
_cell_angle_alpha   90.10102150
_cell_angle_beta   89.71401957
_cell_angle_gamma   59.99324122
_symmetry_Int_Tables_number   1
_chemical_formula_structural   Gd5Al31N36
_chemical_formula_sum   'Gd5 Al31 N36'
_cell_volume   844.51777039
_cell_formula_units_Z   1
loop_
 _symmetry_equiv_pos_site_id
 _symmetry_equiv_pos_as_xyz
  1  'x, y, z'
loop_
 _atom_site_type_symbol
 _atom_site_label
 _atom_site_symmetry_multiplicity
 _atom_site_fract_x
 _atom_site_fract_y
 _atom_site_fract_z
 _atom_site_occupancy
  Al  Al0  1  0.10928204  0.09175276  0.32593728  1
  Al  Al1  1  0.77859683  0.09075484  0.80239854  1
  Al  Al2  1  0.89626615  0.19822557  0.56619399  1
  Al  Al3  1  0.44337003  0.09538826  0.32775942  1
  Al  Al4  1  0.10943323  0.09514704  0.79736967  1
  Al  Al5  1  0.21843204  0.20935620  0.56097393  1
  Al  Al6  1  0.78753403  0.08525716  0.31805144  1
  Al  Al7  1  0.89425609  0.19352638  0.05126899  1
  Al  Al8  1  0.44388904  0.09480851  0.78480704  1
  Al  Al9  1  0.55476622  0.20362972  0.55788013  1
  Al  Al10  1  0.11235431  0.43529422  0.31671055  1
  Al  Al11  1  0.21345547  0.55125422  0.06283444  1
  Al  Al12  1  0.78662115  0.42406939  0.82123026  1
  Al  Al13  1  0.89796766  0.53834421  0.56548133  1
  Al  Al14  1  0.43537623  0.43631996  0.30882112  1
  Al  Al15  1  0.54214534  0.54605101  0.04689194  1
  Al  Al16  1  0.11108932  0.43162930  0.79972294  1
  Al  Al17  1  0.21702659  0.53772698  0.55873181  1
  Al  Al18  1  0.89496876  0.54603971  0.05184754  1
  Al  Al19  1  0.43364982  0.42574932  0.80543670  1
  Al  Al20  1  0.10709534  0.75669282  0.31790479  1
  Al  Al21  1  0.21313643  0.87071705  0.13084585  1
  Al  Al22  1  0.77866859  0.76407227  0.80126937  1
  Al  Al23  1  0.88930045  0.87127529  0.56014034  1
  Al  Al24  1  0.44308458  0.75906395  0.31455820  1
  Al  Al25  1  0.10821538  0.76130613  0.81121344  1
  Al  Al26  1  0.21669371  0.87451553  0.59756431  1
  Al  Al27  1  0.78770612  0.76038706  0.31703847  1
  Al  Al28  1  0.90038911  0.86697366  0.06466744  1
  Al  Al29  1  0.43734827  0.77164850  0.80144283  1
  Al  Al30  1  0.55794898  0.87356614  0.55635039  1
  Gd  Gd31  1  0.21264843  0.20949513  0.05643141  1
  Gd  Gd32  1  0.56228388  0.20771793  0.06260202  1
  Gd  Gd33  1  0.78821705  0.42225709  0.29704935  1
  Gd  Gd34  1  0.56063821  0.53225110  0.57397524  1
  Gd  Gd35  1  0.56279522  0.86348252  0.06008965  1
  N  N36  1  0.21570259  0.21075960  0.37232574  1
  N  N37  1  0.09046896  0.09195118  0.13768739  1
  N  N38  1  0.89248873  0.19688291  0.86565010  1
  N  N39  1  0.77808527  0.09280462  0.61773614  1
  N  N40  1  0.55898346  0.20956675  0.36741888  1
  N  N41  1  0.44087145  0.09584212  0.14890437  1
  N  N42  1  0.22268455  0.20624952  0.83548971  1
  N  N43  1  0.11115256  0.09549817  0.61213235  1
  N  N44  1  0.89852096  0.18194749  0.38575432  1
  N  N45  1  0.80830853  0.07777720  0.13238743  1
  N  N46  1  0.55425856  0.20167603  0.84415982  1
  N  N47  1  0.44484664  0.09386911  0.59938742  1
  N  N48  1  0.22280838  0.53945462  0.37362431  1
  N  N49  1  0.09778309  0.45458771  0.13096816  1
  N  N50  1  0.89262840  0.54511065  0.86597481  1
  N  N51  1  0.81556647  0.40956635  0.63291628  1
  N  N52  1  0.53880648  0.54565926  0.36042916  1
  N  N53  1  0.42486050  0.45755502  0.12302624  1
  N  N54  1  0.21748473  0.54017025  0.87292933  1
  N  N55  1  0.11206231  0.43050361  0.61676811  1
  N  N56  1  0.90214651  0.55121552  0.38314872  1
  N  N57  1  0.77488902  0.42976334  0.07626776  1
  N  N58  1  0.54860332  0.54214804  0.85383963  1
  N  N59  1  0.42370057  0.41361465  0.62424746  1
  N  N60  1  0.22138044  0.86869167  0.34591185  1
  N  N61  1  0.10705876  0.75909665  0.12716463  1
  N  N62  1  0.88607104  0.87337721  0.87193671  1
  N  N63  1  0.77883359  0.76212522  0.61684335  1
  N  N64  1  0.56120014  0.86546114  0.36760779  1
  N  N65  1  0.43234218  0.74877241  0.12619545  1
  N  N66  1  0.21719069  0.87491528  0.83202340  1
  N  N67  1  0.10715045  0.75721253  0.61944777  1
  N  N68  1  0.89034202  0.87105181  0.37628381  1
  N  N69  1  0.80769574  0.74844322  0.13194166  1
  N  N70  1  0.55448169  0.87701189  0.84153491  1
  N  N71  1  0.43388347  0.78790833  0.61705414  1
