# generated using pymatgen
data_Gd5Al31N36
_symmetry_space_group_name_H-M   'P 1'
_cell_length_a   9.67913844
_cell_length_b   9.68824727
_cell_length_c   10.58457948
_cell_angle_alpha   90.30842825
_cell_angle_beta   89.41413424
_cell_angle_gamma   60.08803965
_symmetry_Int_Tables_number   1
_chemical_formula_structural   Gd5Al31N36
_chemical_formula_sum   'Gd5 Al31 N36'
_cell_volume   860.23337968
_cell_formula_units_Z   1
loop_
 _symmetry_equiv_pos_site_id
 _symmetry_equiv_pos_as_xyz
  1  'x, y, z'
loop_
 _atom_site_type_symbol
 _atom_site_label
 _atom_site_symmetry_multiplicity
 _atom_site_fract_x
 _atom_site_fract_y
 _atom_site_fract_z
 _atom_site_occupancy
  Al  Al0  1  0.12599982  0.07977023  0.41872614  1
  Al  Al1  1  0.77828914  0.09836073  0.82585590  1
  Al  Al2  1  0.89326268  0.19909807  0.59112517  1
  Al  Al3  1  0.44757834  0.09003111  0.42666768  1
  Al  Al4  1  0.11688518  0.08740858  0.89065614  1
  Al  Al5  1  0.21957406  0.20614910  0.65512577  1
  Al  Al6  1  0.78652445  0.08080857  0.37262871  1
  Al  Al7  1  0.88371223  0.19925160  0.06085723  1
  Al  Al8  1  0.44135931  0.09707160  0.89182744  1
  Al  Al9  1  0.54510571  0.20495518  0.65133497  1
  Al  Al10  1  0.12498424  0.42340129  0.41675582  1
  Al  Al11  1  0.21620735  0.55068910  0.14367851  1
  Al  Al12  1  0.79478378  0.42139505  0.82748934  1
  Al  Al13  1  0.89435366  0.53594869  0.59148799  1
  Al  Al14  1  0.43377156  0.42446526  0.41558059  1
  Al  Al15  1  0.55700772  0.54075557  0.05390625  1
  Al  Al16  1  0.11729172  0.43067417  0.88961902  1
  Al  Al17  1  0.21222990  0.54128606  0.65382522  1
  Al  Al18  1  0.88808800  0.54320210  0.05821479  1
  Al  Al19  1  0.43309066  0.43039276  0.89003865  1
  Al  Al20  1  0.11709946  0.75513387  0.39831292  1
  Al  Al21  1  0.21570196  0.86902800  0.14434218  1
  Al  Al22  1  0.77847709  0.77174321  0.89082833  1
  Al  Al23  1  0.89586330  0.86422515  0.65186757  1
  Al  Al24  1  0.43417984  0.77222323  0.41504178  1
  Al  Al25  1  0.10867288  0.76401021  0.90304344  1
  Al  Al26  1  0.21409820  0.87862403  0.65391657  1
  Al  Al27  1  0.77985035  0.76650479  0.41730691  1
  Al  Al28  1  0.89940295  0.86616192  0.15275820  1
  Al  Al29  1  0.43502150  0.77350464  0.89025573  1
  Al  Al30  1  0.55255213  0.87986069  0.65479088  1
  Gd  Gd31  1  0.20127310  0.21545325  0.15573873  1
  Gd  Gd32  1  0.54772860  0.22119267  0.15540962  1
  Gd  Gd33  1  0.77638055  0.42344381  0.32808409  1
  Gd  Gd34  1  0.54725373  0.54287231  0.63047706  1
  Gd  Gd35  1  0.55929042  0.86158527  0.15552524  1
  N  N36  1  0.22830996  0.19993618  0.37354759  1
  N  N37  1  0.10604417  0.07439685  0.07069077  1
  N  N38  1  0.88559895  0.20549828  0.87882280  1
  N  N39  1  0.77690301  0.09462301  0.63709086  1
  N  N40  1  0.56031665  0.19834322  0.37435614  1
  N  N41  1  0.43781113  0.09520922  0.06796283  1
  N  N42  1  0.21884898  0.20778204  0.83893938  1
  N  N43  1  0.11688909  0.09027979  0.60242517  1
  N  N44  1  0.90206957  0.17833601  0.41056121  1
  N  N45  1  0.80239678  0.08546057  0.13677591  1
  N  N46  1  0.54844383  0.21113604  0.83782764  1
  N  N47  1  0.44199013  0.09407647  0.60614192  1
  N  N48  1  0.22656823  0.53047288  0.33479094  1
  N  N49  1  0.10778465  0.45250206  0.07207785  1
  N  N50  1  0.88925501  0.54164154  0.87504408  1
  N  N51  1  0.81195091  0.40946783  0.64775721  1
  N  N52  1  0.52931646  0.55052801  0.39980317  1
  N  N53  1  0.42281477  0.45740796  0.06771657  1
  N  N54  1  0.21784372  0.54757907  0.83386334  1
  N  N55  1  0.11686707  0.42452883  0.60092890  1
  N  N56  1  0.90174585  0.54399283  0.40460052  1
  N  N57  1  0.77660196  0.43104611  0.10654454  1
  N  N58  1  0.56132728  0.53794318  0.86368004  1
  N  N59  1  0.41944112  0.41147437  0.59335622  1
  N  N60  1  0.22482831  0.87234576  0.33595393  1
  N  N61  1  0.10948400  0.76265128  0.08907168  1
  N  N62  1  0.89581068  0.87015829  0.83500943  1
  N  N63  1  0.77534365  0.76720153  0.60187508  1
  N  N64  1  0.55985020  0.87045532  0.37191094  1
  N  N65  1  0.42408093  0.75930872  0.06902321  1
  N  N66  1  0.21913976  0.86971420  0.83417571  1
  N  N67  1  0.11379475  0.75891304  0.58561458  1
  N  N68  1  0.89602950  0.85890354  0.34388835  1
  N  N69  1  0.79923299  0.76302651  0.07362483  1
  N  N70  1  0.55615001  0.87379184  0.83858806  1
  N  N71  1  0.42239866  0.80105593  0.59450452  1
