# generated using pymatgen
data_Gd5Al31N36
_symmetry_space_group_name_H-M   'P 1'
_cell_length_a   9.70238094
_cell_length_b   9.70708615
_cell_length_c   10.45308862
_cell_angle_alpha   90.31972963
_cell_angle_beta   89.94173187
_cell_angle_gamma   59.93540364
_symmetry_Int_Tables_number   1
_chemical_formula_structural   Gd5Al31N36
_chemical_formula_sum   'Gd5 Al31 N36'
_cell_volume   852.01734610
_cell_formula_units_Z   1
loop_
 _symmetry_equiv_pos_site_id
 _symmetry_equiv_pos_as_xyz
  1  'x, y, z'
loop_
 _atom_site_type_symbol
 _atom_site_label
 _atom_site_symmetry_multiplicity
 _atom_site_fract_x
 _atom_site_fract_y
 _atom_site_fract_z
 _atom_site_occupancy
  Al  Al0  1  0.12311537  0.08235532  0.41655842  1
  Al  Al1  1  0.78010711  0.08552021  0.88832666  1
  Al  Al2  1  0.89351118  0.19841530  0.59249380  1
  Al  Al3  1  0.44536851  0.09344967  0.42615075  1
  Al  Al4  1  0.11877112  0.08746890  0.88840186  1
  Al  Al5  1  0.21905690  0.20848796  0.65083900  1
  Al  Al6  1  0.77784539  0.08017654  0.41608960  1
  Al  Al7  1  0.89102066  0.20429011  0.06016974  1
  Al  Al8  1  0.44301224  0.09568854  0.88968089  1
  Al  Al9  1  0.55200596  0.20051289  0.65484638  1
  Al  Al10  1  0.11084222  0.43327755  0.40905615  1
  Al  Al11  1  0.21899468  0.55012946  0.14539856  1
  Al  Al12  1  0.79175837  0.41810233  0.82944650  1
  Al  Al13  1  0.89647889  0.54179314  0.65384650  1
  Al  Al14  1  0.42858890  0.42583175  0.41506575  1
  Al  Al15  1  0.55812220  0.53939238  0.05666381  1
  Al  Al16  1  0.11104817  0.43389048  0.89301183  1
  Al  Al17  1  0.21095570  0.54163042  0.65090321  1
  Al  Al18  1  0.89815941  0.54913744  0.13197269  1
  Al  Al19  1  0.43399765  0.42737279  0.88975173  1
  Al  Al20  1  0.11312178  0.76074642  0.39594529  1
  Al  Al21  1  0.21792285  0.86796564  0.14527978  1
  Al  Al22  1  0.78376052  0.76130602  0.89300855  1
  Al  Al23  1  0.89264706  0.86854897  0.65184515  1
  Al  Al24  1  0.43114018  0.77518342  0.41455712  1
  Al  Al25  1  0.11068756  0.76164506  0.90162469  1
  Al  Al26  1  0.21308213  0.87944628  0.65318622  1
  Al  Al27  1  0.78397330  0.76059786  0.40848055  1
  Al  Al28  1  0.89917196  0.86945983  0.14719736  1
  Al  Al29  1  0.43618912  0.77219878  0.88979343  1
  Al  Al30  1  0.55435709  0.87820509  0.65178237  1
  Gd  Gd31  1  0.20791145  0.21390699  0.15662385  1
  Gd  Gd32  1  0.56154031  0.21436423  0.15334430  1
  Gd  Gd33  1  0.76880723  0.42324309  0.33622204  1
  Gd  Gd34  1  0.54323050  0.54413057  0.62972258  1
  Gd  Gd35  1  0.56073369  0.86121384  0.15424213  1
  N  N36  1  0.22425989  0.20418053  0.37606750  1
  N  N37  1  0.11004640  0.07418901  0.07312584  1
  N  N38  1  0.89043631  0.20428268  0.87462960  1
  N  N39  1  0.77398688  0.08739395  0.60334946  1
  N  N40  1  0.55662883  0.20158117  0.37110544  1
  N  N41  1  0.44247720  0.09642527  0.06869931  1
  N  N42  1  0.21922644  0.20968010  0.83847457  1
  N  N43  1  0.11578088  0.09157086  0.60272154  1
  N  N44  1  0.90227960  0.17633988  0.40423739  1
  N  N45  1  0.80179446  0.07433482  0.07353157  1
  N  N46  1  0.55650808  0.20574373  0.84054687  1
  N  N47  1  0.44302639  0.09463915  0.60792860  1
  N  N48  1  0.22230454  0.53546082  0.33574575  1
  N  N49  1  0.10651293  0.45383793  0.07322678  1
  N  N50  1  0.89341254  0.54348526  0.83904991  1
  N  N51  1  0.80674994  0.40980957  0.64206890  1
  N  N52  1  0.52053653  0.55477577  0.40035050  1
  N  N53  1  0.42527045  0.45372747  0.07043500  1
  N  N54  1  0.21779961  0.54522836  0.83388228  1
  N  N55  1  0.10616339  0.43242169  0.59328851  1
  N  N56  1  0.90476488  0.55351052  0.33100975  1
  N  N57  1  0.77897118  0.42909283  0.11034414  1
  N  N58  1  0.56163956  0.53620012  0.86552703  1
  N  N59  1  0.41895719  0.40843433  0.59577911  1
  N  N60  1  0.22302452  0.87494766  0.33560829  1
  N  N61  1  0.11145339  0.76207950  0.08949885  1
  N  N62  1  0.89486905  0.86780620  0.83431959  1
  N  N63  1  0.78087576  0.75893523  0.59519965  1
  N  N64  1  0.55758803  0.87258285  0.37228738  1
  N  N65  1  0.42534787  0.75759081  0.07071863  1
  N  N66  1  0.21969147  0.86886118  0.83494636  1
  N  N67  1  0.11199792  0.76124033  0.58521568  1
  N  N68  1  0.88808670  0.87190071  0.33911731  1
  N  N69  1  0.80290249  0.75706923  0.07408718  1
  N  N70  1  0.55902144  0.87053984  0.83920519  1
  N  N71  1  0.42079246  0.80288843  0.59548294  1
