# generated using pymatgen
data_Gd5Al31N36
_symmetry_space_group_name_H-M   'P 1'
_cell_length_a   9.70846227
_cell_length_b   9.73511522
_cell_length_c   10.48719764
_cell_angle_alpha   89.99685158
_cell_angle_beta   88.97167775
_cell_angle_gamma   59.91733622
_symmetry_Int_Tables_number   1
_chemical_formula_structural   Gd5Al31N36
_chemical_formula_sum   'Gd5 Al31 N36'
_cell_volume   857.48419862
_cell_formula_units_Z   1
loop_
 _symmetry_equiv_pos_site_id
 _symmetry_equiv_pos_as_xyz
  1  'x, y, z'
loop_
 _atom_site_type_symbol
 _atom_site_label
 _atom_site_symmetry_multiplicity
 _atom_site_fract_x
 _atom_site_fract_y
 _atom_site_fract_z
 _atom_site_occupancy
  Al  Al0  1  0.12552230  0.08206444  0.41922543  1
  Al  Al1  1  0.77592838  0.09134942  0.82967274  1
  Al  Al2  1  0.89245447  0.19941165  0.59194515  1
  Al  Al3  1  0.44971600  0.09182620  0.41513932  1
  Al  Al4  1  0.11451224  0.08705617  0.88971917  1
  Al  Al5  1  0.22204139  0.20565003  0.65398949  1
  Al  Al6  1  0.80063990  0.07812286  0.34015579  1
  Al  Al7  1  0.88404771  0.19717632  0.06551202  1
  Al  Al8  1  0.43870983  0.09732671  0.89458907  1
  Al  Al9  1  0.55594901  0.19944835  0.62719428  1
  Al  Al10  1  0.12550347  0.42574985  0.41922225  1
  Al  Al11  1  0.21103621  0.55338835  0.14519190  1
  Al  Al12  1  0.79203280  0.42063787  0.83225760  1
  Al  Al13  1  0.89244522  0.54145706  0.59195100  1
  Al  Al14  1  0.43500915  0.42652115  0.40902634  1
  Al  Al15  1  0.55541369  0.53896520  0.05975388  1
  Al  Al16  1  0.11450355  0.43175840  0.88972584  1
  Al  Al17  1  0.21497905  0.53941472  0.65356469  1
  Al  Al18  1  0.88403439  0.55207373  0.06551648  1
  Al  Al19  1  0.43372822  0.42718375  0.89369948  1
  Al  Al20  1  0.12562651  0.75385040  0.40124555  1
  Al  Al21  1  0.21104832  0.86889201  0.14518875  1
  Al  Al22  1  0.77592404  0.76604591  0.82967590  1
  Al  Al23  1  0.88981293  0.87175230  0.58259839  1
  Al  Al24  1  0.43501419  0.77183232  0.40902394  1
  Al  Al25  1  0.11549570  0.75891165  0.90079312  1
  Al  Al26  1  0.21497832  0.87893552  0.65356809  1
  Al  Al27  1  0.80062535  0.75456296  0.34016076  1
  Al  Al28  1  0.89218349  0.87055864  0.08310249  1
  Al  Al29  1  0.43373279  0.77243060  0.89370343  1
  Al  Al30  1  0.55593769  0.87797065  0.62719721  1
  Gd  Gd31  1  0.18648330  0.22341495  0.15720212  1
  Gd  Gd32  1  0.54793902  0.21850449  0.14637287  1
  Gd  Gd33  1  0.77695099  0.42817576  0.33300790  1
  Gd  Gd34  1  0.54371931  0.54482599  0.63357742  1
  Gd  Gd35  1  0.54793796  0.86693773  0.14636138  1
  N  N36  1  0.22707539  0.20314357  0.37387763  1
  N  N37  1  0.10491481  0.07210964  0.07082157  1
  N  N38  1  0.88182938  0.20350138  0.88186766  1
  N  N39  1  0.78316387  0.08814922  0.64471401  1
  N  N40  1  0.56530183  0.19990830  0.36989957  1
  N  N41  1  0.42277191  0.10529983  0.07390095  1
  N  N42  1  0.21660078  0.20837579  0.83868649  1
  N  N43  1  0.11676395  0.09133933  0.60352078  1
  N  N44  1  0.90205931  0.18071930  0.40836735  1
  N  N45  1  0.81296170  0.07564332  0.15456139  1
  N  N46  1  0.55047785  0.20789763  0.85358483  1
  N  N47  1  0.44516904  0.09408756  0.59775025  1
  N  N48  1  0.22373350  0.53418479  0.33551116  1
  N  N49  1  0.10490115  0.45628072  0.07083116  1
  N  N50  1  0.88181878  0.54800468  0.88186686  1
  N  N51  1  0.80986326  0.41171062  0.64805717  1
  N  N52  1  0.52730712  0.55304101  0.39526117  1
  N  N53  1  0.41995067  0.45855363  0.07330531  1
  N  N54  1  0.21944169  0.54502303  0.83374906  1
  N  N55  1  0.11675547  0.42521677  0.60351585  1
  N  N56  1  0.90203404  0.55056532  0.40837790  1
  N  N57  1  0.77754793  0.42785440  0.10991980  1
  N  N58  1  0.55957623  0.53689586  0.86669098  1
  N  N59  1  0.42242956  0.41009368  0.58896672  1
  N  N60  1  0.22374101  0.87542977  0.33550627  1
  N  N61  1  0.11329254  0.76000723  0.08616604  1
  N  N62  1  0.88082817  0.87625179  0.89433433  1
  N  N63  1  0.78315033  0.76198721  0.64471628  1
  N  N64  1  0.56529104  0.86819390  0.36989094  1
  N  N65  1  0.41997824  0.75481331  0.07331516  1
  N  N66  1  0.21944502  0.86887703  0.83375352  1
  N  N67  1  0.12349415  0.75490938  0.58918743  1
  N  N68  1  0.89547540  0.86892782  0.39904906  1
  N  N69  1  0.81296459  0.74465949  0.15456534  1
  N  N70  1  0.55047218  0.87500855  0.85359889  1
  N  N71  1  0.42242059  0.80082427  0.58896159  1
