# generated using pymatgen
data_Gd5Al31N36
_symmetry_space_group_name_H-M   'P 1'
_cell_length_a   9.70490034
_cell_length_b   9.68538752
_cell_length_c   10.28543129
_cell_angle_alpha   89.99998885
_cell_angle_beta   90.13267181
_cell_angle_gamma   60.06651691
_symmetry_Int_Tables_number   1
_chemical_formula_structural   Gd5Al31N36
_chemical_formula_sum   'Gd5 Al31 N36'
_cell_volume   837.81932638
_cell_formula_units_Z   1
loop_
 _symmetry_equiv_pos_site_id
 _symmetry_equiv_pos_as_xyz
  1  'x, y, z'
loop_
 _atom_site_type_symbol
 _atom_site_label
 _atom_site_symmetry_multiplicity
 _atom_site_fract_x
 _atom_site_fract_y
 _atom_site_fract_z
 _atom_site_occupancy
  Al  Al0  1  0.11261103  0.08563121  0.41543509  1
  Al  Al1  1  0.78436095  0.08972143  0.89734794  1
  Al  Al2  1  0.89444184  0.20240721  0.66079519  1
  Al  Al3  1  0.44414397  0.09459454  0.43078278  1
  Al  Al4  1  0.11016295  0.09041473  0.89826561  1
  Al  Al5  1  0.21641165  0.20846070  0.65330910  1
  Al  Al6  1  0.78290055  0.08563891  0.41349998  1
  Al  Al7  1  0.89950298  0.18553296  0.14821949  1
  Al  Al8  1  0.44271321  0.09530992  0.88731380  1
  Al  Al9  1  0.55445085  0.20478838  0.65584190  1
  Al  Al10  1  0.11261100  0.43509073  0.41543509  1
  Al  Al11  1  0.21396783  0.55025540  0.15335775  1
  Al  Al12  1  0.78164959  0.42584170  0.91459310  1
  Al  Al13  1  0.89444181  0.53648401  0.66079519  1
  Al  Al14  1  0.43097507  0.42996045  0.40940802  1
  Al  Al15  1  0.53650731  0.54841289  0.14988909  1
  Al  Al16  1  0.11016293  0.43275537  0.89826562  1
  Al  Al17  1  0.21569014  0.54146348  0.65599733  1
  Al  Al18  1  0.89950291  0.54829706  0.14821951  1
  Al  Al19  1  0.43810718  0.43264134  0.90709146  1
  Al  Al20  1  0.11014845  0.76159226  0.40277537  1
  Al  Al21  1  0.21396788  0.86910980  0.15335774  1
  Al  Al22  1  0.78436094  0.75925064  0.89734794  1
  Al  Al23  1  0.89217026  0.87058140  0.65510491  1
  Al  Al24  1  0.43097507  0.77239753  0.40940804  1
  Al  Al25  1  0.11063725  0.76134788  0.90556649  1
  Al  Al26  1  0.21569016  0.87617941  0.65599735  1
  Al  Al27  1  0.78290050  0.76479352  0.41350000  1
  Al  Al28  1  0.90021269  0.86656015  0.15141803  1
  Al  Al29  1  0.43810723  0.76258451  0.90709145  1
  Al  Al30  1  0.55445083  0.87409389  0.65584192  1
  Gd  Gd31  1  0.21165949  0.21083680  0.15921956  1
  Gd  Gd32  1  0.56364953  0.20731433  0.15529808  1
  Gd  Gd33  1  0.78270495  0.42531394  0.38278931  1
  Gd  Gd34  1  0.55551779  0.53890766  0.65721744  1
  Gd  Gd35  1  0.56364950  0.86236933  0.15529811  1
  N  N36  1  0.22107179  0.20613065  0.38261482  1
  N  N37  1  0.10414323  0.07604181  0.08114987  1
  N  N38  1  0.88806372  0.20767526  0.84744344  1
  N  N39  1  0.78041389  0.09409299  0.60170900  1
  N  N40  1  0.55626221  0.20217269  0.37554572  1
  N  N41  1  0.44201393  0.09565959  0.06834381  1
  N  N42  1  0.21591287  0.20871013  0.84362490  1
  N  N43  1  0.10775259  0.09217055  0.60200146  1
  N  N44  1  0.90727869  0.16732660  0.33487328  1
  N  N45  1  0.80654979  0.07366112  0.08013091  1
  N  N46  1  0.55803716  0.20965172  0.84641455  1
  N  N47  1  0.44356239  0.09488533  0.61602278  1
  N  N48  1  0.21892257  0.53940158  0.34393333  1
  N  N49  1  0.10414316  0.45314799  0.08114989  1
  N  N50  1  0.88806370  0.53759412  0.84744343  1
  N  N51  1  0.80870869  0.41231215  0.60047168  1
  N  N52  1  0.51955523  0.55688897  0.34348148  1
  N  N53  1  0.42249078  0.45375067  0.08936175  1
  N  N54  1  0.22131768  0.54292671  0.84205915  1
  N  N55  1  0.10775257  0.43340986  0.60200145  1
  N  N56  1  0.90727859  0.55872776  0.33487333  1
  N  N57  1  0.78117075  0.42608106  0.11112860  1
  N  N58  1  0.55926526  0.53703393  0.87326624  1
  N  N59  1  0.42515429  0.41720635  0.59277751  1
  N  N60  1  0.21892260  0.87500890  0.34393332  1
  N  N61  1  0.11082932  0.76125184  0.09503057  1
  N  N62  1  0.89320810  0.87006250  0.83971767  1
  N  N63  1  0.78041387  0.75882611  0.60170902  1
  N  N64  1  0.55626218  0.87489827  0.37554574  1
  N  N65  1  0.42249086  0.75709158  0.08936174  1
  N  N66  1  0.22131771  0.86908870  0.84205916  1
  N  N67  1  0.11064762  0.76134268  0.59217763  1
  N  N68  1  0.88712800  0.87310251  0.34553423  1
  N  N69  1  0.80654977  0.75312202  0.08013091  1
  N  N70  1  0.55803716  0.86564427  0.84641456  1
  N  N71  1  0.42515428  0.79097241  0.59277752  1
