# generated using pymatgen
data_Gd5Al31N36
_symmetry_space_group_name_H-M   'P 1'
_cell_length_a   9.65528442
_cell_length_b   9.67811593
_cell_length_c   10.61867550
_cell_angle_alpha   90.09447645
_cell_angle_beta   89.56608231
_cell_angle_gamma   59.96903778
_symmetry_Int_Tables_number   1
_chemical_formula_structural   Gd5Al31N36
_chemical_formula_sum   'Gd5 Al31 N36'
_cell_volume   859.01404380
_cell_formula_units_Z   1
loop_
 _symmetry_equiv_pos_site_id
 _symmetry_equiv_pos_as_xyz
  1  'x, y, z'
loop_
 _atom_site_type_symbol
 _atom_site_label
 _atom_site_symmetry_multiplicity
 _atom_site_fract_x
 _atom_site_fract_y
 _atom_site_fract_z
 _atom_site_occupancy
  Al  Al0  1  0.12153382  0.08246562  0.39760082  1
  Al  Al1  1  0.77770208  0.08865524  0.79847432  1
  Al  Al2  1  0.88840324  0.20169951  0.56498775  1
  Al  Al3  1  0.44857522  0.09632024  0.32806506  1
  Al  Al4  1  0.11695227  0.08656371  0.86398818  1
  Al  Al5  1  0.21440319  0.20989175  0.61864387  1
  Al  Al6  1  0.79063545  0.08509587  0.31307517  1
  Al  Al7  1  0.88857731  0.19340774  0.03978902  1
  Al  Al8  1  0.44738110  0.08852834  0.78918033  1
  Al  Al9  1  0.55527663  0.20326518  0.55621525  1
  Al  Al10  1  0.12244447  0.42959074  0.39818702  1
  Al  Al11  1  0.21233771  0.55047966  0.12727336  1
  Al  Al12  1  0.79174790  0.41896895  0.80752563  1
  Al  Al13  1  0.89078069  0.54365711  0.56588344  1
  Al  Al14  1  0.44070361  0.43307623  0.31239174  1
  Al  Al15  1  0.55484235  0.53044974  0.03698606  1
  Al  Al16  1  0.11881458  0.42732055  0.86544786  1
  Al  Al17  1  0.20981363  0.54658610  0.63033434  1
  Al  Al18  1  0.89140800  0.54682041  0.03953079  1
  Al  Al19  1  0.44344452  0.41597264  0.79666981  1
  Al  Al20  1  0.12036375  0.75721572  0.37719631  1
  Al  Al21  1  0.21743824  0.86571422  0.12023153  1
  Al  Al22  1  0.77503987  0.76483148  0.80051826  1
  Al  Al23  1  0.88619111  0.87465195  0.55467163  1
  Al  Al24  1  0.42949508  0.77729068  0.37879976  1
  Al  Al25  1  0.11508331  0.75738260  0.87787629  1
  Al  Al26  1  0.21374157  0.87932145  0.62811930  1
  Al  Al27  1  0.79621748  0.75664467  0.31293406  1
  Al  Al28  1  0.89736616  0.86736699  0.06247985  1
  Al  Al29  1  0.43233663  0.76394769  0.86508828  1
  Al  Al30  1  0.55841899  0.88342518  0.55215771  1
  Gd  Gd31  1  0.17394647  0.22745295  0.14831921  1
  Gd  Gd32  1  0.55411657  0.20739782  0.05787738  1
  Gd  Gd33  1  0.77444649  0.43105851  0.30070493  1
  Gd  Gd34  1  0.55190072  0.54728348  0.58726386  1
  Gd  Gd35  1  0.56069117  0.86830936  0.07038275  1
  N  N36  1  0.22047920  0.20656446  0.36383535  1
  N  N37  1  0.11248762  0.06851187  0.04327691  1
  N  N38  1  0.88187404  0.20058310  0.85808183  1
  N  N39  1  0.77840594  0.09094145  0.61693769  1
  N  N40  1  0.56090688  0.20901353  0.37013886  1
  N  N41  1  0.42999565  0.10409046  0.15197084  1
  N  N42  1  0.21505126  0.20808370  0.80720479  1
  N  N43  1  0.11119609  0.09125866  0.57770816  1
  N  N44  1  0.89637086  0.18606949  0.38196869  1
  N  N45  1  0.80855465  0.07783232  0.13118210  1
  N  N46  1  0.55270775  0.19972945  0.84386539  1
  N  N47  1  0.44816616  0.09456220  0.60773768  1
  N  N48  1  0.21139651  0.54125341  0.31425447  1
  N  N49  1  0.11706879  0.44663281  0.04472322  1
  N  N50  1  0.88231220  0.54774765  0.85869524  1
  N  N51  1  0.81485342  0.41061416  0.62727936  1
  N  N52  1  0.52571112  0.55529555  0.37171684  1
  N  N53  1  0.44149456  0.45150940  0.12681930  1
  N  N54  1  0.21413588  0.54755739  0.81124007  1
  N  N55  1  0.11552201  0.43112139  0.57701795  1
  N  N56  1  0.89650262  0.55188365  0.38415522  1
  N  N57  1  0.78541624  0.42334190  0.08149845  1
  N  N58  1  0.55695502  0.52872689  0.84470188  1
  N  N59  1  0.43193559  0.41005538  0.61846376  1
  N  N60  1  0.21927252  0.87800816  0.30821146  1
  N  N61  1  0.11927574  0.75493222  0.06065356  1
  N  N62  1  0.87859297  0.87632004  0.87201251  1
  N  N63  1  0.77728480  0.76526741  0.61796550  1
  N  N64  1  0.56866927  0.87016407  0.36300446  1
  N  N65  1  0.42349063  0.74871458  0.04680618  1
  N  N66  1  0.21808769  0.86767766  0.80690682  1
  N  N67  1  0.11989340  0.75795517  0.56236680  1
  N  N68  1  0.88966445  0.87374523  0.37308889  1
  N  N69  1  0.81774023  0.73856522  0.13251882  1
  N  N70  1  0.55119785  0.87420907  0.84848053  1
  N  N71  1  0.41637995  0.80752451  0.55895237  1
