# generated using pymatgen
data_Gd5Al31N36
_symmetry_space_group_name_H-M   'P 1'
_cell_length_a   9.72061310
_cell_length_b   9.73936325
_cell_length_c   10.33627732
_cell_angle_alpha   90.25168457
_cell_angle_beta   90.22047427
_cell_angle_gamma   59.82165295
_symmetry_Int_Tables_number   1
_chemical_formula_structural   Gd5Al31N36
_chemical_formula_sum   'Gd5 Al31 N36'
_cell_volume   845.92281216
_cell_formula_units_Z   1
loop_
 _symmetry_equiv_pos_site_id
 _symmetry_equiv_pos_as_xyz
  1  'x, y, z'
loop_
 _atom_site_type_symbol
 _atom_site_label
 _atom_site_symmetry_multiplicity
 _atom_site_fract_x
 _atom_site_fract_y
 _atom_site_fract_z
 _atom_site_occupancy
  Al  Al0  1  0.11138433  0.08658284  0.41032554  1
  Al  Al1  1  0.78298692  0.08610515  0.88868088  1
  Al  Al2  1  0.89469340  0.19473617  0.65098246  1
  Al  Al3  1  0.44449481  0.09254972  0.42476845  1
  Al  Al4  1  0.11474131  0.08856787  0.88889494  1
  Al  Al5  1  0.21683047  0.20869749  0.64649361  1
  Al  Al6  1  0.78314012  0.08407914  0.41159005  1
  Al  Al7  1  0.89536570  0.19663380  0.11077934  1
  Al  Al8  1  0.44326229  0.09599662  0.88639143  1
  Al  Al9  1  0.55293787  0.19994110  0.65157463  1
  Al  Al10  1  0.11206960  0.43380015  0.40677392  1
  Al  Al11  1  0.22036829  0.54957780  0.14543498  1
  Al  Al12  1  0.78910820  0.42374224  0.83590513  1
  Al  Al13  1  0.89483958  0.54296907  0.65128702  1
  Al  Al14  1  0.42806998  0.42519761  0.41438652  1
  Al  Al15  1  0.55990165  0.53820765  0.06202541  1
  Al  Al16  1  0.11050562  0.43359583  0.89416350  1
  Al  Al17  1  0.20991037  0.54057895  0.65063258  1
  Al  Al18  1  0.90085498  0.54988389  0.14175250  1
  Al  Al19  1  0.43487163  0.42597317  0.89049268  1
  Al  Al20  1  0.11375159  0.76004302  0.39471966  1
  Al  Al21  1  0.21867744  0.86679842  0.14527626  1
  Al  Al22  1  0.78576053  0.76034316  0.89382696  1
  Al  Al23  1  0.89325350  0.86790358  0.64942810  1
  Al  Al24  1  0.42957268  0.77568877  0.41222961  1
  Al  Al25  1  0.11115140  0.76118865  0.90041008  1
  Al  Al26  1  0.21206381  0.87996329  0.65013106  1
  Al  Al27  1  0.78367907  0.76369852  0.40604115  1
  Al  Al28  1  0.90097870  0.86887014  0.14688441  1
  Al  Al29  1  0.43570888  0.77221276  0.89017457  1
  Al  Al30  1  0.55478109  0.87721669  0.65124792  1
  Gd  Gd31  1  0.21056313  0.21189581  0.15461515  1
  Gd  Gd32  1  0.56442622  0.21301210  0.15372107  1
  Gd  Gd33  1  0.77046446  0.42834686  0.35504731  1
  Gd  Gd34  1  0.53780625  0.54653852  0.63178864  1
  Gd  Gd35  1  0.56195647  0.86158974  0.15053260  1
  N  N36  1  0.22174653  0.20451256  0.37626839  1
  N  N37  1  0.10848582  0.07429295  0.07109557  1
  N  N38  1  0.89262915  0.19849366  0.84203644  1
  N  N39  1  0.77910181  0.08961223  0.59967782  1
  N  N40  1  0.55614203  0.20045874  0.37307570  1
  N  N41  1  0.44409643  0.09810167  0.06724876  1
  N  N42  1  0.21713592  0.20958481  0.83744210  1
  N  N43  1  0.10699414  0.09394989  0.59688498  1
  N  N44  1  0.90387946  0.16956064  0.34615433  1
  N  N45  1  0.80483423  0.07452933  0.07098730  1
  N  N46  1  0.55833654  0.20512986  0.83952134  1
  N  N47  1  0.44280560  0.09376761  0.60857140  1
  N  N48  1  0.22216003  0.53578508  0.33556908  1
  N  N49  1  0.10682523  0.45365891  0.07598387  1
  N  N50  1  0.89352155  0.54361577  0.83778458  1
  N  N51  1  0.80187562  0.41523059  0.63278310  1
  N  N52  1  0.51625201  0.55587824  0.39982577  1
  N  N53  1  0.42689578  0.45297126  0.07253533  1
  N  N54  1  0.21766510  0.54421038  0.83510281  1
  N  N55  1  0.10460230  0.43300966  0.59193272  1
  N  N56  1  0.90653908  0.55719581  0.33010030  1
  N  N57  1  0.78131845  0.42834542  0.11450164  1
  N  N58  1  0.56209677  0.53588630  0.86760524  1
  N  N59  1  0.41748150  0.40806733  0.59641659  1
  N  N60  1  0.22227812  0.87459738  0.33555800  1
  N  N61  1  0.11263177  0.76151249  0.08911533  1
  N  N62  1  0.89467708  0.86764292  0.83362304  1
  N  N63  1  0.78019891  0.76046014  0.59366461  1
  N  N64  1  0.55675035  0.87230161  0.36995951  1
  N  N65  1  0.42550124  0.75661980  0.07224108  1
  N  N66  1  0.21931597  0.86918435  0.83391376  1
  N  N67  1  0.11266150  0.75981546  0.58502206  1
  N  N68  1  0.88810705  0.87216711  0.33931044  1
  N  N69  1  0.80617915  0.75538735  0.07599457  1
  N  N70  1  0.56005601  0.86902926  0.84063381  1
  N  N71  1  0.41951188  0.80458019  0.59480074  1
