# generated using pymatgen
data_Gd5Al31N36
_symmetry_space_group_name_H-M   'P 1'
_cell_length_a   9.71122252
_cell_length_b   9.73872813
_cell_length_c   10.32604134
_cell_angle_alpha   90.18543199
_cell_angle_beta   90.22966777
_cell_angle_gamma   59.84355333
_symmetry_Int_Tables_number   1
_chemical_formula_structural   Gd5Al31N36
_chemical_formula_sum   'Gd5 Al31 N36'
_cell_volume   844.40327004
_cell_formula_units_Z   1
loop_
 _symmetry_equiv_pos_site_id
 _symmetry_equiv_pos_as_xyz
  1  'x, y, z'
loop_
 _atom_site_type_symbol
 _atom_site_label
 _atom_site_symmetry_multiplicity
 _atom_site_fract_x
 _atom_site_fract_y
 _atom_site_fract_z
 _atom_site_occupancy
  Al  Al0  1  0.11153213  0.08627024  0.40677164  1
  Al  Al1  1  0.78468154  0.08746086  0.89140552  1
  Al  Al2  1  0.89452515  0.19501438  0.65128206  1
  Al  Al3  1  0.44436405  0.09297773  0.42439586  1
  Al  Al4  1  0.11140874  0.08985625  0.89203487  1
  Al  Al5  1  0.21595676  0.20860350  0.64596871  1
  Al  Al6  1  0.78351415  0.08407556  0.40794687  1
  Al  Al7  1  0.89826312  0.18997941  0.13622041  1
  Al  Al8  1  0.44335510  0.09571167  0.88517647  1
  Al  Al9  1  0.55383701  0.20003989  0.65089944  1
  Al  Al10  1  0.11234663  0.43415094  0.40629662  1
  Al  Al11  1  0.22009070  0.54952671  0.14491513  1
  Al  Al12  1  0.78978857  0.42231952  0.83861818  1
  Al  Al13  1  0.89442487  0.54309116  0.65079796  1
  Al  Al14  1  0.42857457  0.42551690  0.41373957  1
  Al  Al15  1  0.56193395  0.53676488  0.06404001  1
  Al  Al16  1  0.11028045  0.43349165  0.89384601  1
  Al  Al17  1  0.20994599  0.54040847  0.65035501  1
  Al  Al18  1  0.89958812  0.54840586  0.14214413  1
  Al  Al19  1  0.43518198  0.42588599  0.89079169  1
  Al  Al20  1  0.11436128  0.75915596  0.39466679  1
  Al  Al21  1  0.21933323  0.86590156  0.14483429  1
  Al  Al22  1  0.78558804  0.76055236  0.89335994  1
  Al  Al23  1  0.89314134  0.86907224  0.64893953  1
  Al  Al24  1  0.42933207  0.77617951  0.41248629  1
  Al  Al25  1  0.11097853  0.76143180  0.90000410  1
  Al  Al26  1  0.21091524  0.88137989  0.64975658  1
  Al  Al27  1  0.78368598  0.76468810  0.40626395  1
  Al  Al28  1  0.90101448  0.86775164  0.14613330  1
  Al  Al29  1  0.43541210  0.77249414  0.89058577  1
  Al  Al30  1  0.55464373  0.87747613  0.65110102  1
  Gd  Gd31  1  0.21123705  0.21194412  0.15289488  1
  Gd  Gd32  1  0.56354961  0.21291682  0.15226056  1
  Gd  Gd33  1  0.77185282  0.43021522  0.36357083  1
  Gd  Gd34  1  0.53637891  0.54759987  0.63375779  1
  Gd  Gd35  1  0.56225067  0.86101869  0.15040203  1
  N  N36  1  0.22129161  0.20506057  0.37490635  1
  N  N37  1  0.10655806  0.07469368  0.07404080  1
  N  N38  1  0.89282884  0.19790667  0.83777624  1
  N  N39  1  0.78008086  0.09056721  0.59567414  1
  N  N40  1  0.55619582  0.20089158  0.37193491  1
  N  N41  1  0.44463619  0.09688496  0.06587801  1
  N  N42  1  0.21605434  0.20922388  0.83741942  1
  N  N43  1  0.10509352  0.09476604  0.59272745  1
  N  N44  1  0.90464116  0.16843220  0.33135512  1
  N  N45  1  0.80584354  0.07480677  0.07349539  1
  N  N46  1  0.55943404  0.20500704  0.83934509  1
  N  N47  1  0.44258778  0.09430426  0.60847547  1
  N  N48  1  0.22240526  0.53585184  0.33530666  1
  N  N49  1  0.10599954  0.45421993  0.07567195  1
  N  N50  1  0.89299756  0.54317129  0.83707278  1
  N  N51  1  0.80111277  0.41568800  0.62743742  1
  N  N52  1  0.51647683  0.55662542  0.39980171  1
  N  N53  1  0.42668766  0.45336485  0.07249245  1
  N  N54  1  0.21775164  0.54421786  0.83480477  1
  N  N55  1  0.10458760  0.43285593  0.59165540  1
  N  N56  1  0.90616519  0.55866081  0.33064778  1
  N  N57  1  0.78180969  0.42714764  0.11902442  1
  N  N58  1  0.56294822  0.53544460  0.86809220  1
  N  N59  1  0.41767660  0.40815605  0.59575598  1
  N  N60  1  0.22217502  0.87406139  0.33544325  1
  N  N61  1  0.11276258  0.76110240  0.08866656  1
  N  N62  1  0.89402122  0.86907502  0.83354969  1
  N  N63  1  0.78015316  0.76111662  0.59385300  1
  N  N64  1  0.55658265  0.87289749  0.37016440  1
  N  N65  1  0.42609715  0.75566580  0.07237692  1
  N  N66  1  0.21840372  0.87063930  0.83407161  1
  N  N67  1  0.11283680  0.75969552  0.58499057  1
  N  N68  1  0.88893602  0.87194653  0.33904755  1
  N  N69  1  0.80631209  0.75426655  0.07558584  1
  N  N70  1  0.56001341  0.86883447  0.84021127  1
  N  N71  1  0.41879562  0.80529327  0.59493584  1
