# generated using pymatgen
data_Gd5Al31N36
_symmetry_space_group_name_H-M   'P 1'
_cell_length_a   9.68456202
_cell_length_b   9.70650029
_cell_length_c   10.55877402
_cell_angle_alpha   90.00000330
_cell_angle_beta   89.20106305
_cell_angle_gamma   59.92503363
_symmetry_Int_Tables_number   1
_chemical_formula_structural   Gd5Al31N36
_chemical_formula_sum   'Gd5 Al31 N36'
_cell_volume   858.81937189
_cell_formula_units_Z   1
loop_
 _symmetry_equiv_pos_site_id
 _symmetry_equiv_pos_as_xyz
  1  'x, y, z'
loop_
 _atom_site_type_symbol
 _atom_site_label
 _atom_site_symmetry_multiplicity
 _atom_site_fract_x
 _atom_site_fract_y
 _atom_site_fract_z
 _atom_site_occupancy
  Al  Al0  1  0.12368096  0.08029776  0.41415254  1
  Al  Al1  1  0.77400465  0.09256280  0.81542624  1
  Al  Al2  1  0.88786150  0.20105757  0.58030810  1
  Al  Al3  1  0.44890891  0.09221177  0.34320098  1
  Al  Al4  1  0.11693753  0.08848253  0.87797569  1
  Al  Al5  1  0.21536952  0.20898147  0.63189775  1
  Al  Al6  1  0.79760597  0.08001587  0.32801531  1
  Al  Al7  1  0.88973702  0.19441161  0.05485260  1
  Al  Al8  1  0.44638274  0.09347486  0.80707006  1
  Al  Al9  1  0.55905705  0.19385214  0.56884914  1
  Al  Al10  1  0.12368095  0.42935373  0.41415256  1
  Al  Al11  1  0.21625698  0.54846336  0.13553320  1
  Al  Al12  1  0.79242802  0.42045224  0.82052634  1
  Al  Al13  1  0.88786148  0.54441342  0.58030811  1
  Al  Al14  1  0.43247629  0.42816980  0.39458186  1
  Al  Al15  1  0.56002707  0.53665270  0.05056596  1
  Al  Al16  1  0.11693755  0.42791240  0.87797567  1
  Al  Al17  1  0.21398522  0.54086548  0.64310130  1
  Al  Al18  1  0.88973709  0.54918386  0.05485259  1
  Al  Al19  1  0.43179582  0.43152510  0.88107577  1
  Al  Al20  1  0.12379414  0.75476914  0.39030803  1
  Al  Al21  1  0.21625695  0.86861216  0.13553320  1
  Al  Al22  1  0.77400466  0.76676506  0.81542625  1
  Al  Al23  1  0.88841070  0.87246091  0.57034376  1
  Al  Al24  1  0.43247629  0.77268632  0.39458185  1
  Al  Al25  1  0.11414817  0.75959216  0.89111737  1
  Al  Al26  1  0.21398524  0.87848177  0.64310129  1
  Al  Al27  1  0.79760600  0.75571062  0.32801531  1
  Al  Al28  1  0.89900738  0.86716257  0.07749136  1
  Al  Al29  1  0.43179583  0.77001158  0.88107579  1
  Al  Al30  1  0.55905704  0.88042327  0.56884911  1
  Gd  Gd31  1  0.16836505  0.23248372  0.16626407  1
  Gd  Gd32  1  0.55993822  0.20170882  0.08663916  1
  Gd  Gd33  1  0.77392109  0.42970569  0.32083991  1
  Gd  Gd34  1  0.54116026  0.54608610  0.61970273  1
  Gd  Gd35  1  0.55993824  0.87168537  0.08663924  1
  N  N36  1  0.22270093  0.20531576  0.38413514  1
  N  N37  1  0.11302530  0.07156030  0.05825945  1
  N  N38  1  0.88132485  0.20292096  0.87233779  1
  N  N39  1  0.77714550  0.09083914  0.63260158  1
  N  N40  1  0.57003384  0.19598124  0.37842789  1
  N  N41  1  0.42245098  0.10544075  0.16764791  1
  N  N42  1  0.21449535  0.20941855  0.82160048  1
  N  N43  1  0.11074798  0.09050072  0.59517419  1
  N  N44  1  0.89986265  0.18257398  0.39752340  1
  N  N45  1  0.81678635  0.07539903  0.14688156  1
  N  N46  1  0.55067265  0.20450122  0.86425344  1
  N  N47  1  0.44933786  0.09199730  0.62476821  1
  N  N48  1  0.22140079  0.53470218  0.32423038  1
  N  N49  1  0.11302537  0.44874684  0.05825943  1
  N  N50  1  0.88132486  0.54908670  0.87233778  1
  N  N51  1  0.80795919  0.41268665  0.63814085  1
  N  N52  1  0.52562347  0.55385446  0.38337944  1
  N  N53  1  0.42429707  0.45634956  0.06502480  1
  N  N54  1  0.21878379  0.54600257  0.82272774  1
  N  N55  1  0.11074798  0.43208376  0.59517420  1
  N  N56  1  0.89986266  0.55089583  0.39752340  1
  N  N57  1  0.78356509  0.42488372  0.09907957  1
  N  N58  1  0.55906731  0.53713260  0.85569545  1
  N  N59  1  0.41893580  0.41174065  0.57547917  1
  N  N60  1  0.22140078  0.87722948  0.32423038  1
  N  N61  1  0.11901992  0.75715629  0.07530463  1
  N  N62  1  0.87853800  0.87739727  0.88598815  1
  N  N63  1  0.77714549  0.76534786  0.63260158  1
  N  N64  1  0.57003384  0.86731736  0.37842786  1
  N  N65  1  0.42429703  0.75268586  0.06502481  1
  N  N66  1  0.21878380  0.86854613  0.82272774  1
  N  N67  1  0.12157681  0.75587782  0.57791152  1
  N  N68  1  0.89425906  0.86953671  0.38779653  1
  N  N69  1  0.81678640  0.74114710  0.14688156  1
  N  N70  1  0.55067267  0.87815863  0.86425350  1
  N  N71  1  0.41893580  0.80265602  0.57547915  1
