# generated using pymatgen
data_Gd5Al31N36
_symmetry_space_group_name_H-M   'P 1'
_cell_length_a   9.60659034
_cell_length_b   9.63521543
_cell_length_c   10.72332124
_cell_angle_alpha   89.71880558
_cell_angle_beta   89.46602920
_cell_angle_gamma   59.99010673
_symmetry_Int_Tables_number   1
_chemical_formula_structural   Gd5Al31N36
_chemical_formula_sum   'Gd5 Al31 N36'
_cell_volume   859.46553609
_cell_formula_units_Z   1
loop_
 _symmetry_equiv_pos_site_id
 _symmetry_equiv_pos_as_xyz
  1  'x, y, z'
loop_
 _atom_site_type_symbol
 _atom_site_label
 _atom_site_symmetry_multiplicity
 _atom_site_fract_x
 _atom_site_fract_y
 _atom_site_fract_z
 _atom_site_occupancy
  Al  Al0  1  0.12039434  0.08442912  0.39693386  1
  Al  Al1  1  0.77690394  0.08878843  0.79949952  1
  Al  Al2  1  0.89135156  0.19959467  0.56694914  1
  Al  Al3  1  0.44831674  0.09521190  0.33012944  1
  Al  Al4  1  0.11697953  0.08524965  0.86628922  1
  Al  Al5  1  0.21377653  0.20980837  0.62080208  1
  Al  Al6  1  0.78888566  0.08755625  0.31417950  1
  Al  Al7  1  0.88890449  0.19454500  0.03980394  1
  Al  Al8  1  0.44728538  0.09150397  0.78652219  1
  Al  Al9  1  0.55406723  0.20323452  0.55570343  1
  Al  Al10  1  0.12083825  0.43149729  0.39741532  1
  Al  Al11  1  0.20915158  0.55223880  0.12718911  1
  Al  Al12  1  0.78765473  0.42092656  0.80955076  1
  Al  Al13  1  0.89161135  0.54249325  0.56745949  1
  Al  Al14  1  0.43872657  0.43422937  0.30404449  1
  Al  Al15  1  0.54871493  0.54176880  0.04083657  1
  Al  Al16  1  0.11772758  0.42770540  0.86661824  1
  Al  Al17  1  0.21026503  0.54603167  0.63195683  1
  Al  Al18  1  0.89000929  0.54679117  0.04006852  1
  Al  Al19  1  0.44398360  0.42023420  0.79813522  1
  Al  Al20  1  0.11804301  0.75937720  0.37835607  1
  Al  Al21  1  0.21212658  0.87006971  0.12352944  1
  Al  Al22  1  0.77836028  0.76379291  0.79887646  1
  Al  Al23  1  0.88475183  0.87504296  0.55461565  1
  Al  Al24  1  0.43865770  0.76933442  0.31029478  1
  Al  Al25  1  0.11431609  0.75793917  0.88005829  1
  Al  Al26  1  0.21119460  0.87637695  0.63179679  1
  Al  Al27  1  0.78989614  0.75942659  0.31535694  1
  Al  Al28  1  0.89579774  0.86780633  0.06465646  1
  Al  Al29  1  0.44380524  0.76350157  0.79998484  1
  Al  Al30  1  0.55546384  0.87598061  0.55915674  1
  Gd  Gd31  1  0.18214161  0.22363387  0.14599880  1
  Gd  Gd32  1  0.55705292  0.20736382  0.05689384  1
  Gd  Gd33  1  0.78006523  0.42954912  0.29518154  1
  Gd  Gd34  1  0.55871104  0.53610382  0.56440601  1
  Gd  Gd35  1  0.56091586  0.87032241  0.05335174  1
  N  N36  1  0.21728213  0.20996700  0.35894031  1
  N  N37  1  0.11409716  0.06925283  0.04332770  1
  N  N38  1  0.88019750  0.20081106  0.86016004  1
  N  N39  1  0.77858462  0.09047676  0.61874294  1
  N  N40  1  0.55820003  0.21250217  0.37055454  1
  N  N41  1  0.44056487  0.09574697  0.15421259  1
  N  N42  1  0.21410340  0.20838604  0.80695238  1
  N  N43  1  0.11795065  0.08588110  0.57447118  1
  N  N44  1  0.89261622  0.18980940  0.38576089  1
  N  N45  1  0.81075006  0.07821385  0.13382381  1
  N  N46  1  0.55133188  0.20135306  0.84495855  1
  N  N47  1  0.44718790  0.09319280  0.60623580  1
  N  N48  1  0.20830574  0.54474200  0.31227073  1
  N  N49  1  0.11625764  0.44732956  0.04436808  1
  N  N50  1  0.88084930  0.54834078  0.86059487  1
  N  N51  1  0.81634664  0.40811489  0.63175850  1
  N  N52  1  0.52478889  0.55798105  0.35956467  1
  N  N53  1  0.43833903  0.45124891  0.12399977  1
  N  N54  1  0.21227990  0.54876608  0.81111666  1
  N  N55  1  0.11785857  0.42955359  0.57513653  1
  N  N56  1  0.89295563  0.55395919  0.38751292  1
  N  N57  1  0.78613881  0.42206636  0.08054049  1
  N  N58  1  0.55199832  0.53677762  0.85383843  1
  N  N59  1  0.43419151  0.40956915  0.62231689  1
  N  N60  1  0.20990766  0.88423346  0.31056279  1
  N  N61  1  0.11980351  0.75619610  0.06011241  1
  N  N62  1  0.87617325  0.87672168  0.87535565  1
  N  N63  1  0.78051435  0.76349272  0.61914735  1
  N  N64  1  0.55925188  0.86862867  0.37348174  1
  N  N65  1  0.43771028  0.74724973  0.11235245  1
  N  N66  1  0.21187909  0.87015070  0.81075056  1
  N  N67  1  0.12023565  0.75702724  0.56129790  1
  N  N68  1  0.88511137  0.87596984  0.37483841  1
  N  N69  1  0.81319942  0.73952806  0.13518724  1
  N  N70  1  0.55232278  0.87545319  0.84143130  1
  N  N71  1  0.43548739  0.78602021  0.62210822  1
