# generated using pymatgen
data_Gd5Al31N36
_symmetry_space_group_name_H-M   'P 1'
_cell_length_a   9.62633827
_cell_length_b   9.65601393
_cell_length_c   10.68529524
_cell_angle_alpha   89.70930521
_cell_angle_beta   89.43999193
_cell_angle_gamma   59.99920737
_symmetry_Int_Tables_number   1
_chemical_formula_structural   Gd5Al31N36
_chemical_formula_sum   'Gd5 Al31 N36'
_cell_volume   860.10592088
_cell_formula_units_Z   1
loop_
 _symmetry_equiv_pos_site_id
 _symmetry_equiv_pos_as_xyz
  1  'x, y, z'
loop_
 _atom_site_type_symbol
 _atom_site_label
 _atom_site_symmetry_multiplicity
 _atom_site_fract_x
 _atom_site_fract_y
 _atom_site_fract_z
 _atom_site_occupancy
  Al  Al0  1  0.11950521  0.08564349  0.39655462  1
  Al  Al1  1  0.77656776  0.08856566  0.79970198  1
  Al  Al2  1  0.89162605  0.19943737  0.56687555  1
  Al  Al3  1  0.44856931  0.09644397  0.32948995  1
  Al  Al4  1  0.11653006  0.08567457  0.86578805  1
  Al  Al5  1  0.21342185  0.21006870  0.62023395  1
  Al  Al6  1  0.78868130  0.08790636  0.31405260  1
  Al  Al7  1  0.88897850  0.19353269  0.04024587  1
  Al  Al8  1  0.44667564  0.09091040  0.78690817  1
  Al  Al9  1  0.55358801  0.20344065  0.55523881  1
  Al  Al10  1  0.12110139  0.43158829  0.39737017  1
  Al  Al11  1  0.20912952  0.55266512  0.12732202  1
  Al  Al12  1  0.79018729  0.41881360  0.80869783  1
  Al  Al13  1  0.89219608  0.54260994  0.56718935  1
  Al  Al14  1  0.43900432  0.43613955  0.30557623  1
  Al  Al15  1  0.55260787  0.53477051  0.03668377  1
  Al  Al16  1  0.11770384  0.42764854  0.86654319  1
  Al  Al17  1  0.20954674  0.54655370  0.63153359  1
  Al  Al18  1  0.89032999  0.54662412  0.04029885  1
  Al  Al19  1  0.44340872  0.41718712  0.79741875  1
  Al  Al20  1  0.11818911  0.75906287  0.37761812  1
  Al  Al21  1  0.21941781  0.86596259  0.11994473  1
  Al  Al22  1  0.77802647  0.76317198  0.79874156  1
  Al  Al23  1  0.88566586  0.87529615  0.55460819  1
  Al  Al24  1  0.43051400  0.77844478  0.37487669  1
  Al  Al25  1  0.11359626  0.75786101  0.88011237  1
  Al  Al26  1  0.21443962  0.87567026  0.62978108  1
  Al  Al27  1  0.79083237  0.75981786  0.31535883  1
  Al  Al28  1  0.89585573  0.86774746  0.06542296  1
  Al  Al29  1  0.43617714  0.76123866  0.84671195  1
  Al  Al30  1  0.55893627  0.87929951  0.56038418  1
  Gd  Gd31  1  0.18086299  0.22374476  0.14591052  1
  Gd  Gd32  1  0.55558121  0.20861359  0.05842239  1
  Gd  Gd33  1  0.77827431  0.43175869  0.29640177  1
  Gd  Gd34  1  0.56082485  0.53228485  0.57340569  1
  Gd  Gd35  1  0.56273767  0.87090747  0.05560636  1
  N  N36  1  0.21773626  0.20987613  0.35960228  1
  N  N37  1  0.11296756  0.06912831  0.04366885  1
  N  N38  1  0.88099126  0.19961076  0.85979646  1
  N  N39  1  0.77785763  0.09119053  0.61836552  1
  N  N40  1  0.55832919  0.21328373  0.36991502  1
  N  N41  1  0.43808216  0.09756165  0.15363067  1
  N  N42  1  0.21391607  0.20841202  0.80737103  1
  N  N43  1  0.11612786  0.08725906  0.57515694  1
  N  N44  1  0.89318024  0.18950796  0.38460672  1
  N  N45  1  0.80927801  0.07830586  0.13335775  1
  N  N46  1  0.55143562  0.19965927  0.84586099  1
  N  N47  1  0.44683237  0.09458106  0.60717491  1
  N  N48  1  0.20893178  0.54459980  0.31264771  1
  N  N49  1  0.11639436  0.44729521  0.04472357  1
  N  N50  1  0.88091910  0.54797072  0.86050234  1
  N  N51  1  0.81963327  0.40705553  0.63119650  1
  N  N52  1  0.52593991  0.55823418  0.36263846  1
  N  N53  1  0.43886552  0.45340944  0.12528832  1
  N  N54  1  0.21242675  0.54875920  0.81162443  1
  N  N55  1  0.11756795  0.42988977  0.57548154  1
  N  N56  1  0.89363218  0.55433888  0.38708436  1
  N  N57  1  0.78539454  0.42210303  0.08040925  1
  N  N58  1  0.55657150  0.52790675  0.84691654  1
  N  N59  1  0.43178460  0.40830923  0.62166428  1
  N  N60  1  0.21771811  0.88080744  0.30989373  1
  N  N61  1  0.11825204  0.75695441  0.06139929  1
  N  N62  1  0.87608407  0.87636046  0.87509934  1
  N  N63  1  0.78146862  0.76348792  0.61917490  1
  N  N64  1  0.56474113  0.87284378  0.37319108  1
  N  N65  1  0.42623571  0.75179901  0.04971334  1
  N  N66  1  0.21398594  0.86905151  0.80778584  1
  N  N67  1  0.11962002  0.75751480  0.56147106  1
  N  N68  1  0.88651013  0.87619984  0.37409974  1
  N  N69  1  0.81434709  0.73807514  0.13531072  1
  N  N70  1  0.55174025  0.87367531  0.83839202  1
  N  N71  1  0.42683112  0.79204908  0.57914041  1
