# generated using pymatgen
data_Gd5Al31N36
_symmetry_space_group_name_H-M   'P 1'
_cell_length_a   9.61265834
_cell_length_b   9.64013870
_cell_length_c   10.71445153
_cell_angle_alpha   89.70024469
_cell_angle_beta   89.45993805
_cell_angle_gamma   59.99719115
_symmetry_Int_Tables_number   1
_chemical_formula_structural   Gd5Al31N36
_chemical_formula_sum   'Gd5 Al31 N36'
_cell_volume   859.79655600
_cell_formula_units_Z   1
loop_
 _symmetry_equiv_pos_site_id
 _symmetry_equiv_pos_as_xyz
  1  'x, y, z'
loop_
 _atom_site_type_symbol
 _atom_site_label
 _atom_site_symmetry_multiplicity
 _atom_site_fract_x
 _atom_site_fract_y
 _atom_site_fract_z
 _atom_site_occupancy
  Al  Al0  1  0.11988996  0.08514365  0.39681627  1
  Al  Al1  1  0.77687687  0.08867830  0.79964654  1
  Al  Al2  1  0.89153181  0.19944570  0.56691980  1
  Al  Al3  1  0.44805608  0.09603762  0.33014407  1
  Al  Al4  1  0.11695133  0.08510969  0.86646448  1
  Al  Al5  1  0.21369065  0.20989747  0.62076916  1
  Al  Al6  1  0.78880983  0.08771309  0.31401616  1
  Al  Al7  1  0.88881216  0.19436287  0.03991939  1
  Al  Al8  1  0.44717230  0.09150785  0.78665050  1
  Al  Al9  1  0.55397039  0.20322907  0.55561737  1
  Al  Al10  1  0.12083925  0.43156358  0.39739335  1
  Al  Al11  1  0.20930776  0.55230151  0.12712712  1
  Al  Al12  1  0.78837906  0.42025329  0.80938496  1
  Al  Al13  1  0.89182143  0.54246560  0.56743522  1
  Al  Al14  1  0.43857510  0.43478460  0.30426233  1
  Al  Al15  1  0.54916678  0.54071381  0.03885528  1
  Al  Al16  1  0.11769819  0.42770611  0.86665392  1
  Al  Al17  1  0.21008113  0.54613962  0.63191986  1
  Al  Al18  1  0.89003025  0.54669626  0.04017527  1
  Al  Al19  1  0.44387316  0.41945206  0.79791481  1
  Al  Al20  1  0.11791568  0.75924914  0.37826362  1
  Al  Al21  1  0.21393562  0.86900528  0.12218834  1
  Al  Al22  1  0.77854038  0.76366537  0.79892613  1
  Al  Al23  1  0.88490759  0.87515422  0.55466006  1
  Al  Al24  1  0.43734253  0.77176469  0.32096120  1
  Al  Al25  1  0.11422472  0.75792646  0.88030030  1
  Al  Al26  1  0.21122364  0.87640002  0.63171582  1
  Al  Al27  1  0.79045020  0.75926975  0.31521945  1
  Al  Al28  1  0.89555812  0.86775614  0.06486089  1
  Al  Al29  1  0.44327736  0.76322974  0.80185099  1
  Al  Al30  1  0.55613300  0.87632243  0.56062877  1
  Gd  Gd31  1  0.18192346  0.22358048  0.14589455  1
  Gd  Gd32  1  0.55669027  0.20741174  0.05735143  1
  Gd  Gd33  1  0.77932516  0.43032786  0.29509522  1
  Gd  Gd34  1  0.55946336  0.53490391  0.56655090  1
  Gd  Gd35  1  0.56106097  0.87055024  0.05303544  1
  N  N36  1  0.21724086  0.21010745  0.35914496  1
  N  N37  1  0.11351512  0.06945106  0.04360465  1
  N  N38  1  0.88042111  0.20043711  0.86003316  1
  N  N39  1  0.77844460  0.09064772  0.61862208  1
  N  N40  1  0.55827102  0.21284091  0.37048108  1
  N  N41  1  0.43999739  0.09601379  0.15448077  1
  N  N42  1  0.21407505  0.20832430  0.80706489  1
  N  N43  1  0.11787616  0.08591381  0.57438533  1
  N  N44  1  0.89258819  0.19000174  0.38537161  1
  N  N45  1  0.81031961  0.07820865  0.13375442  1
  N  N46  1  0.55137905  0.20097533  0.84515049  1
  N  N47  1  0.44702508  0.09353462  0.60634892  1
  N  N48  1  0.20841627  0.54480575  0.31245047  1
  N  N49  1  0.11628541  0.44735258  0.04446580  1
  N  N50  1  0.88091447  0.54821050  0.86053974  1
  N  N51  1  0.81741424  0.40759571  0.63158238  1
  N  N52  1  0.52443680  0.55865320  0.36082660  1
  N  N53  1  0.43866334  0.45139623  0.12436333  1
  N  N54  1  0.21234408  0.54873674  0.81123805  1
  N  N55  1  0.11778139  0.42965728  0.57518852  1
  N  N56  1  0.89300439  0.55395846  0.38737477  1
  N  N57  1  0.78610923  0.42185076  0.08035367  1
  N  N58  1  0.55303211  0.53482390  0.85162927  1
  N  N59  1  0.43358039  0.40919461  0.62206716  1
  N  N60  1  0.21106428  0.88389953  0.31076413  1
  N  N61  1  0.11905686  0.75643028  0.06056629  1
  N  N62  1  0.87622097  0.87658664  0.87529406  1
  N  N63  1  0.78096783  0.76338711  0.61913882  1
  N  N64  1  0.55986410  0.86972715  0.37468015  1
  N  N65  1  0.43558711  0.74801541  0.10070439  1
  N  N66  1  0.21168609  0.87012720  0.81050863  1
  N  N67  1  0.12011535  0.75714764  0.56125494  1
  N  N68  1  0.88528427  0.87609508  0.37468541  1
  N  N69  1  0.81338598  0.73903408  0.13541522  1
  N  N70  1  0.55258304  0.87524311  0.84047799  1
  N  N71  1  0.43516429  0.78606897  0.62078546  1
