# generated using pymatgen
data_Gd5Al31N36
_symmetry_space_group_name_H-M   'P 1'
_cell_length_a   9.68807300
_cell_length_b   9.69130585
_cell_length_c   10.55185635
_cell_angle_alpha   90.28056406
_cell_angle_beta   89.48479881
_cell_angle_gamma   60.02442970
_symmetry_Int_Tables_number   1
_chemical_formula_structural   Gd5Al31N36
_chemical_formula_sum   'Gd5 Al31 N36'
_cell_volume   858.11004932
_cell_formula_units_Z   1
loop_
 _symmetry_equiv_pos_site_id
 _symmetry_equiv_pos_as_xyz
  1  'x, y, z'
loop_
 _atom_site_type_symbol
 _atom_site_label
 _atom_site_symmetry_multiplicity
 _atom_site_fract_x
 _atom_site_fract_y
 _atom_site_fract_z
 _atom_site_occupancy
  Al  Al0  1  0.12500979  0.08064024  0.41796486  1
  Al  Al1  1  0.77738028  0.09212121  0.87148750  1
  Al  Al2  1  0.89491232  0.20019159  0.59320897  1
  Al  Al3  1  0.44683726  0.09084026  0.42665826  1
  Al  Al4  1  0.11817077  0.08721934  0.88933534  1
  Al  Al5  1  0.22042751  0.20619403  0.65482964  1
  Al  Al6  1  0.78037459  0.08019463  0.41724479  1
  Al  Al7  1  0.88652217  0.20272692  0.05745625  1
  Al  Al8  1  0.44191766  0.09699755  0.89197833  1
  Al  Al9  1  0.54872158  0.20250352  0.65235406  1
  Al  Al10  1  0.12480321  0.42408561  0.41673726  1
  Al  Al11  1  0.21665927  0.55002871  0.14448172  1
  Al  Al12  1  0.79494468  0.42168766  0.82599111  1
  Al  Al13  1  0.89414013  0.53723817  0.59102914  1
  Al  Al14  1  0.43293094  0.42461476  0.41583198  1
  Al  Al15  1  0.55670965  0.53995169  0.05444391  1
  Al  Al16  1  0.11743849  0.43058299  0.88967313  1
  Al  Al17  1  0.21223545  0.54146461  0.65362906  1
  Al  Al18  1  0.88850366  0.54265285  0.05883901  1
  Al  Al19  1  0.43388349  0.42934546  0.88982917  1
  Al  Al20  1  0.11488124  0.75748537  0.39730030  1
  Al  Al21  1  0.21623721  0.86862402  0.14487170  1
  Al  Al22  1  0.77855783  0.77023922  0.89049447  1
  Al  Al23  1  0.89379281  0.86721797  0.65293164  1
  Al  Al24  1  0.43372383  0.77244553  0.41481075  1
  Al  Al25  1  0.10935050  0.76350500  0.90337561  1
  Al  Al26  1  0.21385773  0.87838825  0.65365614  1
  Al  Al27  1  0.77965269  0.76785778  0.41587219  1
  Al  Al28  1  0.89663449  0.87042764  0.14941761  1
  Al  Al29  1  0.43532363  0.77284234  0.89016213  1
  Al  Al30  1  0.55258249  0.87977250  0.65450846  1
  Gd  Gd31  1  0.20270875  0.21574885  0.15627562  1
  Gd  Gd32  1  0.55582716  0.21727928  0.15672649  1
  Gd  Gd33  1  0.77623788  0.42425794  0.32962772  1
  Gd  Gd34  1  0.54648451  0.54314351  0.63004412  1
  Gd  Gd35  1  0.55897910  0.86203237  0.15510358  1
  N  N36  1  0.22781803  0.20059752  0.37405045  1
  N  N37  1  0.10662174  0.07463050  0.07145941  1
  N  N38  1  0.88926289  0.20635941  0.87347019  1
  N  N39  1  0.77539893  0.08965228  0.60981373  1
  N  N40  1  0.55973773  0.19897361  0.37472033  1
  N  N41  1  0.43921300  0.09765471  0.06906365  1
  N  N42  1  0.22014338  0.20763285  0.83932079  1
  N  N43  1  0.11740723  0.09032783  0.60273935  1
  N  N44  1  0.90241802  0.17932345  0.40774963  1
  N  N45  1  0.79671846  0.07785817  0.08195555  1
  N  N46  1  0.55231061  0.20878185  0.83697437  1
  N  N47  1  0.44222726  0.09416676  0.60677045  1
  N  N48  1  0.22532669  0.53185964  0.33521220  1
  N  N49  1  0.10769329  0.45262886  0.07234513  1
  N  N50  1  0.88943775  0.54116504  0.87491319  1
  N  N51  1  0.81089669  0.41123263  0.64616171  1
  N  N52  1  0.52834335  0.55070101  0.39973858  1
  N  N53  1  0.42404173  0.45449582  0.06875015  1
  N  N54  1  0.21818468  0.54726978  0.83436515  1
  N  N55  1  0.11655436  0.42487820  0.60130555  1
  N  N56  1  0.90208877  0.54564718  0.40368232  1
  N  N57  1  0.77699882  0.42945740  0.10695784  1
  N  N58  1  0.56163277  0.53731984  0.86403936  1
  N  N59  1  0.41990172  0.41062961  0.59462414  1
  N  N60  1  0.22476421  0.87274093  0.33586901  1
  N  N61  1  0.10952018  0.76265437  0.09017587  1
  N  N62  1  0.89539743  0.86989310  0.83391550  1
  N  N63  1  0.77519900  0.76752963  0.60185706  1
  N  N64  1  0.55915871  0.87080572  0.37168493  1
  N  N65  1  0.42427874  0.75854719  0.06942037  1
  N  N66  1  0.21946768  0.86918540  0.83444731  1
  N  N67  1  0.11287689  0.75956970  0.58559640  1
  N  N68  1  0.89055887  0.86848022  0.34231987  1
  N  N69  1  0.79912082  0.76179793  0.07402642  1
  N  N70  1  0.55610511  0.87352311  0.83925710  1
  N  N71  1  0.42204805  0.80134955  0.59471141  1
