# generated using pymatgen
data_Gd5Al31N36
_symmetry_space_group_name_H-M   'P 1'
_cell_length_a   9.70033727
_cell_length_b   9.69943929
_cell_length_c   10.50037854
_cell_angle_alpha   90.17715368
_cell_angle_beta   89.77035509
_cell_angle_gamma   59.99945424
_symmetry_Int_Tables_number   1
_chemical_formula_structural   Gd5Al31N36
_chemical_formula_sum   'Gd5 Al31 N36'
_cell_volume   855.57021127
_cell_formula_units_Z   1
loop_
 _symmetry_equiv_pos_site_id
 _symmetry_equiv_pos_as_xyz
  1  'x, y, z'
loop_
 _atom_site_type_symbol
 _atom_site_label
 _atom_site_symmetry_multiplicity
 _atom_site_fract_x
 _atom_site_fract_y
 _atom_site_fract_z
 _atom_site_occupancy
  Al  Al0  1  0.12273077  0.08294703  0.41685114  1
  Al  Al1  1  0.77985857  0.08643469  0.88905765  1
  Al  Al2  1  0.89334131  0.19994976  0.59127447  1
  Al  Al3  1  0.44553615  0.09356846  0.42655151  1
  Al  Al4  1  0.11893830  0.08670534  0.88955718  1
  Al  Al5  1  0.22110861  0.20563536  0.65332058  1
  Al  Al6  1  0.77769682  0.08233098  0.41530505  1
  Al  Al7  1  0.89089326  0.20254409  0.05943208  1
  Al  Al8  1  0.44301286  0.09536550  0.89227871  1
  Al  Al9  1  0.55204212  0.20084390  0.65466649  1
  Al  Al10  1  0.11817608  0.42881133  0.41801552  1
  Al  Al11  1  0.21666345  0.54938632  0.14503720  1
  Al  Al12  1  0.79293888  0.41759581  0.82759707  1
  Al  Al13  1  0.89398267  0.53970579  0.61192813  1
  Al  Al14  1  0.43057840  0.42593827  0.41425831  1
  Al  Al15  1  0.55614333  0.53943476  0.05558815  1
  Al  Al16  1  0.11963681  0.42872987  0.88692881  1
  Al  Al17  1  0.21336702  0.54208355  0.65268936  1
  Al  Al18  1  0.89023177  0.54121041  0.05661217  1
  Al  Al19  1  0.43529484  0.42725323  0.89002882  1
  Al  Al20  1  0.11201864  0.75998629  0.39616840  1
  Al  Al21  1  0.21777152  0.86786683  0.14592070  1
  Al  Al22  1  0.77898703  0.76922580  0.88678268  1
  Al  Al23  1  0.89257482  0.87126315  0.65337060  1
  Al  Al24  1  0.43141993  0.77499156  0.41500816  1
  Al  Al25  1  0.11095730  0.76192021  0.90268378  1
  Al  Al26  1  0.21270302  0.87940219  0.65347603  1
  Al  Al27  1  0.77986620  0.76724296  0.41702043  1
  Al  Al28  1  0.89831642  0.86722738  0.14689144  1
  Al  Al29  1  0.43563891  0.77201948  0.89014397  1
  Al  Al30  1  0.55156475  0.88058432  0.65398075  1
  Gd  Gd31  1  0.20557560  0.21628259  0.15811512  1
  Gd  Gd32  1  0.56092185  0.21402976  0.15409777  1
  Gd  Gd33  1  0.77368447  0.42879758  0.33073021  1
  Gd  Gd34  1  0.54521458  0.54363999  0.62850899  1
  Gd  Gd35  1  0.56275526  0.85890804  0.15569735  1
  N  N36  1  0.22505692  0.20399435  0.37703890  1
  N  N37  1  0.10976961  0.07455313  0.07377889  1
  N  N38  1  0.89088745  0.20359800  0.87509072  1
  N  N39  1  0.77398957  0.08923610  0.60242535  1
  N  N40  1  0.55663423  0.20167044  0.37099191  1
  N  N41  1  0.44163379  0.09563159  0.07066671  1
  N  N42  1  0.22170819  0.20595960  0.83886763  1
  N  N43  1  0.11552867  0.09145057  0.60230111  1
  N  N44  1  0.90079907  0.18082887  0.40355913  1
  N  N45  1  0.80101724  0.07359250  0.07381367  1
  N  N46  1  0.55637573  0.20544558  0.84043404  1
  N  N47  1  0.44299235  0.09521940  0.60757038  1
  N  N48  1  0.22190461  0.53430349  0.33582893  1
  N  N49  1  0.10856698  0.45185065  0.06945921  1
  N  N50  1  0.89076567  0.53984812  0.86599559  1
  N  N51  1  0.80876572  0.40970363  0.64643643  1
  N  N52  1  0.52448299  0.55365576  0.39921594  1
  N  N53  1  0.42437141  0.45313073  0.07036573  1
  N  N54  1  0.22000271  0.54629400  0.83389545  1
  N  N55  1  0.11488907  0.42684431  0.60362594  1
  N  N56  1  0.90034461  0.54945641  0.39678146  1
  N  N57  1  0.77827739  0.42896151  0.10529708  1
  N  N58  1  0.56111058  0.53633148  0.86488387  1
  N  N59  1  0.42058273  0.40910745  0.59476457  1
  N  N60  1  0.22278447  0.87479026  0.33607956  1
  N  N61  1  0.11107478  0.76184967  0.09001417  1
  N  N62  1  0.89613623  0.86961394  0.83428306  1
  N  N63  1  0.77563572  0.76772002  0.60459973  1
  N  N64  1  0.55754694  0.87304479  0.37336090  1
  N  N65  1  0.42540650  0.75761319  0.07071548  1
  N  N66  1  0.21963329  0.86895668  0.83504653  1
  N  N67  1  0.11141331  0.76113977  0.58528938  1
  N  N68  1  0.88694147  0.87171446  0.33920268  1
  N  N69  1  0.80064015  0.75956495  0.07012201  1
  N  N70  1  0.55590793  0.87261009  0.83935181  1
  N  N71  1  0.42050216  0.80272495  0.59561295  1
