# generated using pymatgen
data_Gd5Al31N36
_symmetry_space_group_name_H-M   'P 1'
_cell_length_a   9.69638118
_cell_length_b   9.71833440
_cell_length_c   10.51806166
_cell_angle_alpha   89.99651574
_cell_angle_beta   88.93594710
_cell_angle_gamma   59.92134962
_symmetry_Int_Tables_number   1
_chemical_formula_structural   Gd5Al31N36
_chemical_formula_sum   'Gd5 Al31 N36'
_cell_volume   857.47886693
_cell_formula_units_Z   1
loop_
 _symmetry_equiv_pos_site_id
 _symmetry_equiv_pos_as_xyz
  1  'x, y, z'
loop_
 _atom_site_type_symbol
 _atom_site_label
 _atom_site_symmetry_multiplicity
 _atom_site_fract_x
 _atom_site_fract_y
 _atom_site_fract_z
 _atom_site_occupancy
  Al  Al0  1  0.12615836  0.08209121  0.41873408  1
  Al  Al1  1  0.77928617  0.08981918  0.82893393  1
  Al  Al2  1  0.89199776  0.19913449  0.59098180  1
  Al  Al3  1  0.45307695  0.09014372  0.41898560  1
  Al  Al4  1  0.11388771  0.08745503  0.89020141  1
  Al  Al5  1  0.22063824  0.20634776  0.65312547  1
  Al  Al6  1  0.79937622  0.07878177  0.34063189  1
  Al  Al7  1  0.88392244  0.19789586  0.06624503  1
  Al  Al8  1  0.43708644  0.09813569  0.89155466  1
  Al  Al9  1  0.55136961  0.20148939  0.64579749  1
  Al  Al10  1  0.12614797  0.42509556  0.41873079  1
  Al  Al11  1  0.21177460  0.55279697  0.14526723  1
  Al  Al12  1  0.79197590  0.42067333  0.83139958  1
  Al  Al13  1  0.89199312  0.54218910  0.59098430  1
  Al  Al14  1  0.43657745  0.42372539  0.41081013  1
  Al  Al15  1  0.55553959  0.53889277  0.05819773  1
  Al  Al16  1  0.11388396  0.43198898  0.89020533  1
  Al  Al17  1  0.21455568  0.53980705  0.65301739  1
  Al  Al18  1  0.88391348  0.55148642  0.06624589  1
  Al  Al19  1  0.43287685  0.42824105  0.89195548  1
  Al  Al20  1  0.12647188  0.75343465  0.40106594  1
  Al  Al21  1  0.21178466  0.86873958  0.14526420  1
  Al  Al22  1  0.77928295  0.76422522  0.82893586  1
  Al  Al23  1  0.88863926  0.87233965  0.58171674  1
  Al  Al24  1  0.43657935  0.77305974  0.41080784  1
  Al  Al25  1  0.11533907  0.75899470  0.90126322  1
  Al  Al26  1  0.21455642  0.87896428  0.65301908  1
  Al  Al27  1  0.79936735  0.75517871  0.34063373  1
  Al  Al28  1  0.89210443  0.87059934  0.08385409  1
  Al  Al29  1  0.43288006  0.77222628  0.89195826  1
  Al  Al30  1  0.55136423  0.88048548  0.64580167  1
  Gd  Gd31  1  0.19072733  0.22128939  0.15671435  1
  Gd  Gd32  1  0.54783311  0.21844850  0.14824440  1
  Gd  Gd33  1  0.77646870  0.42843208  0.33259993  1
  Gd  Gd34  1  0.54459255  0.54437346  0.63160893  1
  Gd  Gd35  1  0.54783375  0.86705840  0.14823341  1
  N  N36  1  0.22919303  0.20207731  0.37361585  1
  N  N37  1  0.10522846  0.07267856  0.07110464  1
  N  N38  1  0.88111598  0.20402666  0.88315856  1
  N  N39  1  0.78386343  0.08770215  0.64556545  1
  N  N40  1  0.56444717  0.19987926  0.36614083  1
  N  N41  1  0.42689753  0.10323416  0.06883963  1
  N  N42  1  0.21496079  0.20918712  0.83806693  1
  N  N43  1  0.11639034  0.09137693  0.60266362  1
  N  N44  1  0.90205805  0.18084383  0.40794142  1
  N  N45  1  0.81255150  0.07612829  0.15437431  1
  N  N46  1  0.54822190  0.20907739  0.84217942  1
  N  N47  1  0.44539209  0.09398059  0.60061444  1
  N  N48  1  0.22506893  0.53335286  0.33514763  1
  N  N49  1  0.10522039  0.45541686  0.07111180  1
  N  N50  1  0.88111197  0.54817459  0.88316105  1
  N  N51  1  0.81090060  0.41120815  0.64843270  1
  N  N52  1  0.52714744  0.55310583  0.39693797  1
  N  N53  1  0.42062308  0.45717151  0.07079543  1
  N  N54  1  0.21814061  0.54559982  0.83336266  1
  N  N55  1  0.11638817  0.42557245  0.60266246  1
  N  N56  1  0.90204475  0.55042555  0.40794668  1
  N  N57  1  0.77662568  0.42833354  0.11005437  1
  N  N58  1  0.55942767  0.53695938  0.86557881  1
  N  N59  1  0.42304050  0.40859020  0.59041046  1
  N  N60  1  0.22507262  0.87492134  0.33514439  1
  N  N61  1  0.11374733  0.75979005  0.08613441  1
  N  N62  1  0.88001974  0.87664840  0.89575425  1
  N  N63  1  0.78385660  0.76175796  0.64556747  1
  N  N64  1  0.56443884  0.86904610  0.36613102  1
  N  N65  1  0.42063622  0.75553892  0.07080301  1
  N  N66  1  0.21814651  0.86958565  0.83336363  1
  N  N67  1  0.12339322  0.75497216  0.58845129  1
  N  N68  1  0.89557454  0.86887215  0.39856379  1
  N  N69  1  0.81255142  0.74462036  0.15437630  1
  N  N70  1  0.54821831  0.87605432  0.84218907  1
  N  N71  1  0.42304037  0.80172261  0.59040905  1
