# generated using pymatgen
data_Gd5Al31N36
_symmetry_space_group_name_H-M   'P 1'
_cell_length_a   9.68962399
_cell_length_b   9.66926748
_cell_length_c   10.53661234
_cell_angle_alpha   89.22345120
_cell_angle_beta   89.11383223
_cell_angle_gamma   60.11869219
_symmetry_Int_Tables_number   1
_chemical_formula_structural   Gd5Al31N36
_chemical_formula_sum   'Gd5 Al31 N36'
_cell_volume   855.83193783
_cell_formula_units_Z   1
loop_
 _symmetry_equiv_pos_site_id
 _symmetry_equiv_pos_as_xyz
  1  'x, y, z'
loop_
 _atom_site_type_symbol
 _atom_site_label
 _atom_site_symmetry_multiplicity
 _atom_site_fract_x
 _atom_site_fract_y
 _atom_site_fract_z
 _atom_site_occupancy
  Al  Al0  1  0.11927759  0.08476708  0.39020751  1
  Al  Al1  1  0.77435557  0.08918971  0.79935658  1
  Al  Al2  1  0.89298698  0.20022245  0.56860361  1
  Al  Al3  1  0.44589688  0.09723434  0.32546119  1
  Al  Al4  1  0.11118914  0.08009908  0.86425725  1
  Al  Al5  1  0.22462682  0.20955517  0.56399424  1
  Al  Al6  1  0.78819111  0.08830337  0.31697157  1
  Al  Al7  1  0.88781622  0.19852551  0.04413374  1
  Al  Al8  1  0.44182768  0.09168920  0.78445550  1
  Al  Al9  1  0.55722752  0.20253017  0.55632716  1
  Al  Al10  1  0.10966590  0.43649106  0.32623785  1
  Al  Al11  1  0.21076418  0.55152128  0.10173019  1
  Al  Al12  1  0.78372929  0.42196936  0.81624939  1
  Al  Al13  1  0.89652993  0.53913898  0.56596708  1
  Al  Al14  1  0.44038827  0.43450388  0.31247769  1
  Al  Al15  1  0.54147675  0.54649728  0.04585692  1
  Al  Al16  1  0.10971044  0.42582292  0.79617824  1
  Al  Al17  1  0.21739745  0.54038299  0.56384398  1
  Al  Al18  1  0.89160809  0.54737226  0.05030239  1
  Al  Al19  1  0.43258759  0.42313575  0.80066884  1
  Al  Al20  1  0.10468786  0.76626583  0.31867387  1
  Al  Al21  1  0.21190804  0.87857078  0.13173906  1
  Al  Al22  1  0.77823524  0.76136009  0.80015310  1
  Al  Al23  1  0.88903439  0.87158555  0.55847288  1
  Al  Al24  1  0.44333226  0.76332877  0.30628467  1
  Al  Al25  1  0.10465048  0.75179099  0.80931174  1
  Al  Al26  1  0.21374345  0.88088801  0.63131750  1
  Al  Al27  1  0.78641227  0.76272264  0.31640178  1
  Al  Al28  1  0.90097420  0.86766384  0.06467370  1
  Al  Al29  1  0.44380280  0.76325928  0.80071800  1
  Al  Al30  1  0.55713646  0.87435534  0.55616178  1
  Gd  Gd31  1  0.21906744  0.22113470  0.05662697  1
  Gd  Gd32  1  0.56776535  0.20950424  0.05879740  1
  Gd  Gd33  1  0.79112773  0.42438961  0.29387754  1
  Gd  Gd34  1  0.56090576  0.53678595  0.56624764  1
  Gd  Gd35  1  0.56198876  0.86801095  0.05529149  1
  N  N36  1  0.22189776  0.21331578  0.37484086  1
  N  N37  1  0.10776080  0.07329162  0.05023932  1
  N  N38  1  0.87835952  0.19923562  0.86134857  1
  N  N39  1  0.77821370  0.09107192  0.61755735  1
  N  N40  1  0.56118133  0.20943677  0.36930783  1
  N  N41  1  0.44706070  0.09717177  0.14928039  1
  N  N42  1  0.22037284  0.20038732  0.83572779  1
  N  N43  1  0.11758211  0.08871861  0.57418189  1
  N  N44  1  0.89485203  0.18724078  0.38523047  1
  N  N45  1  0.81253764  0.07914881  0.13479708  1
  N  N46  1  0.55057199  0.19873983  0.84346927  1
  N  N47  1  0.44747759  0.09301193  0.60237780  1
  N  N48  1  0.22237592  0.54436268  0.36962586  1
  N  N49  1  0.08615480  0.45768113  0.14345789  1
  N  N50  1  0.89135027  0.54131351  0.86589981  1
  N  N51  1  0.81404183  0.40948646  0.63342343  1
  N  N52  1  0.53911918  0.55044032  0.35663473  1
  N  N53  1  0.42800113  0.45423441  0.12917013  1
  N  N54  1  0.21649556  0.53298928  0.85752592  1
  N  N55  1  0.11182628  0.42874141  0.61499480  1
  N  N56  1  0.89826346  0.55461345  0.38768696  1
  N  N57  1  0.77467493  0.42798709  0.07689686  1
  N  N58  1  0.54796950  0.53819900  0.85564214  1
  N  N59  1  0.42886892  0.41306065  0.61997846  1
  N  N60  1  0.21735118  0.88351491  0.31888305  1
  N  N61  1  0.10458167  0.76436974  0.13102398  1
  N  N62  1  0.88395261  0.87172270  0.87314361  1
  N  N63  1  0.77859487  0.76180672  0.61795222  1
  N  N64  1  0.55970667  0.86824502  0.36883555  1
  N  N65  1  0.43480910  0.74866504  0.12095838  1
  N  N66  1  0.21647846  0.86747105  0.81587428  1
  N  N67  1  0.10476965  0.75975093  0.61771921  1
  N  N68  1  0.88863258  0.87406460  0.37669427  1
  N  N69  1  0.80483325  0.74960010  0.13207106  1
  N  N70  1  0.55442988  0.87294899  0.84083574  1
  N  N71  1  0.43480389  0.78738501  0.62002487  1
