# generated using pymatgen
data_Gd5Al31N36
_symmetry_space_group_name_H-M   'P 1'
_cell_length_a   9.71844881
_cell_length_b   9.69324872
_cell_length_c   10.36533220
_cell_angle_alpha   90.08746246
_cell_angle_beta   89.69364762
_cell_angle_gamma   59.99394154
_symmetry_Int_Tables_number   1
_chemical_formula_structural   Gd5Al31N36
_chemical_formula_sum   'Gd5 Al31 N36'
_cell_volume   845.55591437
_cell_formula_units_Z   1
loop_
 _symmetry_equiv_pos_site_id
 _symmetry_equiv_pos_as_xyz
  1  'x, y, z'
loop_
 _atom_site_type_symbol
 _atom_site_label
 _atom_site_symmetry_multiplicity
 _atom_site_fract_x
 _atom_site_fract_y
 _atom_site_fract_z
 _atom_site_occupancy
  Al  Al0  1  0.10934600  0.09190195  0.32603400  1
  Al  Al1  1  0.77837969  0.09080291  0.80225960  1
  Al  Al2  1  0.89634773  0.19812767  0.56604902  1
  Al  Al3  1  0.44348993  0.09540094  0.32770433  1
  Al  Al4  1  0.10821878  0.09725462  0.79743281  1
  Al  Al5  1  0.21847991  0.20923012  0.56077593  1
  Al  Al6  1  0.78762273  0.08523220  0.31802374  1
  Al  Al7  1  0.89427442  0.19369221  0.05122824  1
  Al  Al8  1  0.44382988  0.09483931  0.78472013  1
  Al  Al9  1  0.55473337  0.20362991  0.55785547  1
  Al  Al10  1  0.11237616  0.43527307  0.31672492  1
  Al  Al11  1  0.21342035  0.55134601  0.06291775  1
  Al  Al12  1  0.78634850  0.42423875  0.82111858  1
  Al  Al13  1  0.89791953  0.53829612  0.56548084  1
  Al  Al14  1  0.43543032  0.43630632  0.30865443  1
  Al  Al15  1  0.54220776  0.54610156  0.04688799  1
  Al  Al16  1  0.11097317  0.43164584  0.79960917  1
  Al  Al17  1  0.21694251  0.53770736  0.55864740  1
  Al  Al18  1  0.89493855  0.54603553  0.05183191  1
  Al  Al19  1  0.43363861  0.42572099  0.80528480  1
  Al  Al20  1  0.10699812  0.75647514  0.31778116  1
  Al  Al21  1  0.21322637  0.87086545  0.13571856  1
  Al  Al22  1  0.77853747  0.76409562  0.80112679  1
  Al  Al23  1  0.88934068  0.87118732  0.55998028  1
  Al  Al24  1  0.44356946  0.75891603  0.31408394  1
  Al  Al25  1  0.10714351  0.76037858  0.81136917  1
  Al  Al26  1  0.21654825  0.87438087  0.60929482  1
  Al  Al27  1  0.78777815  0.76028590  0.31700473  1
  Al  Al28  1  0.90043006  0.86700716  0.06482899  1
  Al  Al29  1  0.43911463  0.77055962  0.80150015  1
  Al  Al30  1  0.55795639  0.87351158  0.55611826  1
  Gd  Gd31  1  0.21295524  0.20971226  0.05654887  1
  Gd  Gd32  1  0.56241134  0.20777623  0.06252419  1
  Gd  Gd33  1  0.78858594  0.42201746  0.29666581  1
  Gd  Gd34  1  0.56064581  0.53213411  0.57325380  1
  Gd  Gd35  1  0.56306979  0.86373377  0.06009563  1
  N  N36  1  0.21584912  0.21073821  0.37240361  1
  N  N37  1  0.09020431  0.09281982  0.13702133  1
  N  N38  1  0.89217221  0.19697807  0.86569434  1
  N  N39  1  0.77809949  0.09274191  0.61776655  1
  N  N40  1  0.55905089  0.20958933  0.36756861  1
  N  N41  1  0.44108115  0.09597910  0.14910854  1
  N  N42  1  0.22261000  0.20635358  0.83570815  1
  N  N43  1  0.11094827  0.09603817  0.61214474  1
  N  N44  1  0.89860030  0.18190098  0.38580503  1
  N  N45  1  0.80831574  0.07787564  0.13248606  1
  N  N46  1  0.55411251  0.20169940  0.84416866  1
  N  N47  1  0.44484125  0.09381412  0.59950193  1
  N  N48  1  0.22288238  0.53938442  0.37365101  1
  N  N49  1  0.09765744  0.45469025  0.13113020  1
  N  N50  1  0.89253169  0.54518317  0.86597400  1
  N  N51  1  0.81537612  0.40960137  0.63304194  1
  N  N52  1  0.53906989  0.54558024  0.35993328  1
  N  N53  1  0.42485706  0.45752987  0.12304262  1
  N  N54  1  0.21748150  0.53996082  0.87304610  1
  N  N55  1  0.11206636  0.43034967  0.61680302  1
  N  N56  1  0.90214098  0.55112109  0.38325843  1
  N  N57  1  0.77482402  0.42981014  0.07608964  1
  N  N58  1  0.54853258  0.54203049  0.85393649  1
  N  N59  1  0.42363209  0.41368990  0.62428826  1
  N  N60  1  0.22145892  0.86864369  0.33983299  1
  N  N61  1  0.10703920  0.75914209  0.12646829  1
  N  N62  1  0.88571130  0.87350486  0.87209839  1
  N  N63  1  0.77873339  0.76216402  0.61685930  1
  N  N64  1  0.56127222  0.86548270  0.36757845  1
  N  N65  1  0.43277427  0.74881064  0.12505443  1
  N  N66  1  0.21684072  0.87468289  0.82523541  1
  N  N67  1  0.10651264  0.75659248  0.61964017  1
  N  N68  1  0.89036075  0.87099853  0.37627102  1
  N  N69  1  0.80781728  0.74830985  0.13209337  1
  N  N70  1  0.55442178  0.87712088  0.84170892  1
  N  N71  1  0.43488343  0.78725515  0.61706177  1
