# generated using pymatgen
data_Gd5Al31N36
_symmetry_space_group_name_H-M   'P 1'
_cell_length_a   9.62031805
_cell_length_b   9.64752764
_cell_length_c   10.70188774
_cell_angle_alpha   89.68976355
_cell_angle_beta   89.45359313
_cell_angle_gamma   60.00256152
_symmetry_Int_Tables_number   1
_chemical_formula_structural   Gd5Al31N36
_chemical_formula_sum   'Gd5 Al31 N36'
_cell_volume   860.17699443
_cell_formula_units_Z   1
loop_
 _symmetry_equiv_pos_site_id
 _symmetry_equiv_pos_as_xyz
  1  'x, y, z'
loop_
 _atom_site_type_symbol
 _atom_site_label
 _atom_site_symmetry_multiplicity
 _atom_site_fract_x
 _atom_site_fract_y
 _atom_site_fract_z
 _atom_site_occupancy
  Al  Al0  1  0.11924954  0.08600830  0.39666433  1
  Al  Al1  1  0.77680973  0.08857965  0.79979693  1
  Al  Al2  1  0.89169047  0.19933116  0.56691674  1
  Al  Al3  1  0.44788997  0.09683902  0.32991896  1
  Al  Al4  1  0.11687157  0.08509699  0.86657512  1
  Al  Al5  1  0.21359378  0.21000120  0.62064163  1
  Al  Al6  1  0.78870563  0.08786571  0.31385405  1
  Al  Al7  1  0.88879385  0.19407781  0.04010402  1
  Al  Al8  1  0.44701303  0.09147863  0.78674554  1
  Al  Al9  1  0.55380513  0.20329863  0.55547974  1
  Al  Al10  1  0.12090377  0.43159937  0.39739200  1
  Al  Al11  1  0.20938990  0.55246663  0.12706877  1
  Al  Al12  1  0.78932979  0.41941357  0.80912982  1
  Al  Al13  1  0.89207044  0.54247942  0.56740259  1
  Al  Al14  1  0.43848478  0.43537506  0.30460503  1
  Al  Al15  1  0.55010388  0.53885261  0.03670401  1
  Al  Al16  1  0.11766338  0.42772265  0.86666099  1
  Al  Al17  1  0.20983571  0.54630917  0.63183342  1
  Al  Al18  1  0.89005900  0.54666127  0.04029972  1
  Al  Al19  1  0.44370637  0.41837432  0.79764818  1
  Al  Al20  1  0.11775021  0.75901675  0.37808022  1
  Al  Al21  1  0.21692882  0.86733836  0.12046026  1
  Al  Al22  1  0.77865765  0.76351696  0.79890907  1
  Al  Al23  1  0.88517897  0.87527785  0.55469858  1
  Al  Al24  1  0.43447147  0.77518174  0.34314405  1
  Al  Al25  1  0.11409841  0.75793111  0.88057580  1
  Al  Al26  1  0.21155032  0.87643731  0.63138059  1
  Al  Al27  1  0.79103203  0.75916357  0.31503553  1
  Al  Al28  1  0.89536342  0.86773120  0.06514389  1
  Al  Al29  1  0.44177832  0.76247811  0.80982432  1
  Al  Al30  1  0.55738664  0.87723160  0.56209212  1
  Gd  Gd31  1  0.18160621  0.22356774  0.14575392  1
  Gd  Gd32  1  0.55623668  0.20761834  0.05790914  1
  Gd  Gd33  1  0.77865559  0.43117553  0.29521829  1
  Gd  Gd34  1  0.56062077  0.53295372  0.56971542  1
  Gd  Gd35  1  0.56115215  0.87060894  0.05300611  1
  N  N36  1  0.21729146  0.21014343  0.35939151  1
  N  N37  1  0.11289723  0.06960208  0.04393576  1
  N  N38  1  0.88072264  0.19999845  0.85989714  1
  N  N39  1  0.77822843  0.09090337  0.61846536  1
  N  N40  1  0.55834819  0.21316690  0.37032106  1
  N  N41  1  0.43919684  0.09653200  0.15454277  1
  N  N42  1  0.21403431  0.20829026  0.80718546  1
  N  N43  1  0.11749019  0.08621561  0.57436640  1
  N  N44  1  0.89266473  0.19001726  0.38491872  1
  N  N45  1  0.80978951  0.07825277  0.13365209  1
  N  N46  1  0.55142585  0.20045737  0.84541423  1
  N  N47  1  0.44684658  0.09412186  0.60651081  1
  N  N48  1  0.20860730  0.54479657  0.31265927  1
  N  N49  1  0.11632245  0.44738003  0.04457298  1
  N  N50  1  0.88093877  0.54810054  0.86047809  1
  N  N51  1  0.81881427  0.40702809  0.63137334  1
  N  N52  1  0.52448438  0.55908706  0.36217229  1
  N  N53  1  0.43900007  0.45192038  0.12492096  1
  N  N54  1  0.21240669  0.54875356  0.81140897  1
  N  N55  1  0.11768098  0.42978734  0.57527607  1
  N  N56  1  0.89313739  0.55404006  0.38721723  1
  N  N57  1  0.78597624  0.42172076  0.08026856  1
  N  N58  1  0.55474113  0.53161551  0.84872755  1
  N  N59  1  0.43268659  0.40871576  0.62178757  1
  N  N60  1  0.21354757  0.88288593  0.31096440  1
  N  N61  1  0.11819175  0.75679138  0.06122843  1
  N  N62  1  0.87626730  0.87645126  0.87519914  1
  N  N63  1  0.78153489  0.76331568  0.61909561  1
  N  N64  1  0.56127205  0.87129103  0.37562628  1
  N  N65  1  0.43137331  0.74972591  0.07837808  1
  N  N66  1  0.21154065  0.87013025  0.80971263  1
  N  N67  1  0.11991029  0.75731847  0.56120679  1
  N  N68  1  0.88560222  0.87621310  0.37443932  1
  N  N69  1  0.81364546  0.73845679  0.13560699  1
  N  N70  1  0.55281684  0.87496559  0.83899196  1
  N  N71  1  0.43374917  0.78692128  0.61408383  1
