# generated using pymatgen
data_Gd5Al31N36
_symmetry_space_group_name_H-M   'P 1'
_cell_length_a   9.70140619
_cell_length_b   9.70135693
_cell_length_c   10.48717512
_cell_angle_alpha   90.21004606
_cell_angle_beta   89.80183867
_cell_angle_gamma   59.98672718
_symmetry_Int_Tables_number   1
_chemical_formula_structural   Gd5Al31N36
_chemical_formula_sum   'Gd5 Al31 N36'
_cell_volume   854.64782812
_cell_formula_units_Z   1
loop_
 _symmetry_equiv_pos_site_id
 _symmetry_equiv_pos_as_xyz
  1  'x, y, z'
loop_
 _atom_site_type_symbol
 _atom_site_label
 _atom_site_symmetry_multiplicity
 _atom_site_fract_x
 _atom_site_fract_y
 _atom_site_fract_z
 _atom_site_occupancy
  Al  Al0  1  0.12276458  0.08300454  0.41692117  1
  Al  Al1  1  0.77985799  0.08613114  0.88900313  1
  Al  Al2  1  0.89347718  0.20006218  0.59109808  1
  Al  Al3  1  0.44556569  0.09364298  0.42649901  1
  Al  Al4  1  0.11924326  0.08665456  0.88943811  1
  Al  Al5  1  0.22097486  0.20587947  0.65224225  1
  Al  Al6  1  0.77781243  0.08212534  0.41513047  1
  Al  Al7  1  0.89132490  0.20170234  0.05960140  1
  Al  Al8  1  0.44288922  0.09538763  0.89223120  1
  Al  Al9  1  0.55212890  0.20084896  0.65458898  1
  Al  Al10  1  0.11323499  0.43134676  0.41728825  1
  Al  Al11  1  0.21649653  0.54961995  0.14547719  1
  Al  Al12  1  0.79056215  0.41596806  0.82953319  1
  Al  Al13  1  0.89568012  0.54099218  0.64189519  1
  Al  Al14  1  0.43018371  0.42603555  0.41396816  1
  Al  Al15  1  0.55538723  0.53984210  0.05567966  1
  Al  Al16  1  0.12106662  0.42824206  0.88711877  1
  Al  Al17  1  0.21347454  0.54231445  0.65186897  1
  Al  Al18  1  0.89073412  0.54184212  0.06156482  1
  Al  Al19  1  0.43510895  0.42734013  0.88980274  1
  Al  Al20  1  0.11201911  0.75995744  0.39584712  1
  Al  Al21  1  0.21783087  0.86794800  0.14614633  1
  Al  Al22  1  0.77836081  0.77087067  0.88717010  1
  Al  Al23  1  0.89280226  0.87123754  0.65264455  1
  Al  Al24  1  0.43143022  0.77515421  0.41497731  1
  Al  Al25  1  0.11101798  0.76197079  0.90260138  1
  Al  Al26  1  0.21279227  0.87939888  0.65345263  1
  Al  Al27  1  0.78224232  0.76265700  0.41625277  1
  Al  Al28  1  0.89850259  0.86707451  0.14745659  1
  Al  Al29  1  0.43560958  0.77223235  0.89001559  1
  Al  Al30  1  0.55193684  0.88025659  0.65315117  1
  Gd  Gd31  1  0.20498229  0.21710289  0.15898779  1
  Gd  Gd32  1  0.56075508  0.21400863  0.15409458  1
  Gd  Gd33  1  0.77345893  0.42826477  0.32980384  1
  Gd  Gd34  1  0.54583692  0.54340329  0.62722850  1
  Gd  Gd35  1  0.56328668  0.85856972  0.15645791  1
  N  N36  1  0.22489769  0.20430008  0.37795967  1
  N  N37  1  0.11011037  0.07470680  0.07403211  1
  N  N38  1  0.89132175  0.20254091  0.87541588  1
  N  N39  1  0.77393726  0.08913775  0.60253415  1
  N  N40  1  0.55663070  0.20172163  0.37094813  1
  N  N41  1  0.44122981  0.09545080  0.07099132  1
  N  N42  1  0.22155462  0.20629100  0.83842998  1
  N  N43  1  0.11558180  0.09140614  0.60264508  1
  N  N44  1  0.90120330  0.18028599  0.40375916  1
  N  N45  1  0.80105305  0.07324054  0.07396165  1
  N  N46  1  0.55638147  0.20544769  0.84066296  1
  N  N47  1  0.44321824  0.09520068  0.60776768  1
  N  N48  1  0.22217017  0.53419831  0.33588904  1
  N  N49  1  0.10841863  0.45204458  0.06786218  1
  N  N50  1  0.89166558  0.54113803  0.85676920  1
  N  N51  1  0.80870578  0.40898151  0.64778193  1
  N  N52  1  0.52381161  0.55412740  0.39924594  1
  N  N53  1  0.42402509  0.45324789  0.07036391  1
  N  N54  1  0.21997847  0.54639983  0.83346787  1
  N  N55  1  0.11183464  0.42905662  0.60304041  1
  N  N56  1  0.90165364  0.55049022  0.37629774  1
  N  N57  1  0.77845047  0.42903822  0.10251239  1
  N  N58  1  0.56049923  0.53659501  0.86504511  1
  N  N59  1  0.42048089  0.40900717  0.59487714  1
  N  N60  1  0.22283086  0.87490407  0.33602391  1
  N  N61  1  0.11103964  0.76187995  0.08996808  1
  N  N62  1  0.89620768  0.86961849  0.83390485  1
  N  N63  1  0.77778440  0.76430412  0.60438268  1
  N  N64  1  0.55777398  0.87304639  0.37416794  1
  N  N65  1  0.42550918  0.75790913  0.07089540  1
  N  N66  1  0.21966051  0.86896544  0.83522805  1
  N  N67  1  0.11158436  0.76129581  0.58520482  1
  N  N68  1  0.88683627  0.87202377  0.33938557  1
  N  N69  1  0.80072978  0.75951714  0.06864553  1
  N  N70  1  0.55611163  0.87256747  0.83907076  1
  N  N71  1  0.42050730  0.80269664  0.59596451  1
