# generated using pymatgen
data_Gd5Al31N36
_symmetry_space_group_name_H-M   'P 1'
_cell_length_a   9.68324993
_cell_length_b   9.70590716
_cell_length_c   10.56933440
_cell_angle_alpha   90.13992575
_cell_angle_beta   89.46270108
_cell_angle_gamma   59.90658200
_symmetry_Int_Tables_number   1
_chemical_formula_structural   Gd5Al31N36
_chemical_formula_sum   'Gd5 Al31 N36'
_cell_volume   859.39347406
_cell_formula_units_Z   1
loop_
 _symmetry_equiv_pos_site_id
 _symmetry_equiv_pos_as_xyz
  1  'x, y, z'
loop_
 _atom_site_type_symbol
 _atom_site_label
 _atom_site_symmetry_multiplicity
 _atom_site_fract_x
 _atom_site_fract_y
 _atom_site_fract_z
 _atom_site_occupancy
  Al  Al0  1  0.12217443  0.08156757  0.39771209  1
  Al  Al1  1  0.77650136  0.09089602  0.79860103  1
  Al  Al2  1  0.88811866  0.20152792  0.56442592  1
  Al  Al3  1  0.44866078  0.09423212  0.32821982  1
  Al  Al4  1  0.11675009  0.08770780  0.86337939  1
  Al  Al5  1  0.21430104  0.20981850  0.61711092  1
  Al  Al6  1  0.79367800  0.08236831  0.31342556  1
  Al  Al7  1  0.88932587  0.19371797  0.04007547  1
  Al  Al8  1  0.44632171  0.09160370  0.79033435  1
  Al  Al9  1  0.55895614  0.19535906  0.55763549  1
  Al  Al10  1  0.12244575  0.42958764  0.39786925  1
  Al  Al11  1  0.21926678  0.54611899  0.12153321  1
  Al  Al12  1  0.79400900  0.41954684  0.80585193  1
  Al  Al13  1  0.88919513  0.54425610  0.56520011  1
  Al  Al14  1  0.43232459  0.42886909  0.38275799  1
  Al  Al15  1  0.56035285  0.53445511  0.03345061  1
  Al  Al16  1  0.11779903  0.42768740  0.86382359  1
  Al  Al17  1  0.21396195  0.54252835  0.62803967  1
  Al  Al18  1  0.89093353  0.54847436  0.03982444  1
  Al  Al19  1  0.43369839  0.43036902  0.85879238  1
  Al  Al20  1  0.12234111  0.75587158  0.37508057  1
  Al  Al21  1  0.21669089  0.86700016  0.12034806  1
  Al  Al22  1  0.77435214  0.76646300  0.80072227  1
  Al  Al23  1  0.88803770  0.87281573  0.55458968  1
  Al  Al24  1  0.43096481  0.77423352  0.37930846  1
  Al  Al25  1  0.11443039  0.75894600  0.87709765  1
  Al  Al26  1  0.21344497  0.87931426  0.62748896  1
  Al  Al27  1  0.79687300  0.75596698  0.31292907  1
  Al  Al28  1  0.89913640  0.86673515  0.06353933  1
  Al  Al29  1  0.43169702  0.76947527  0.86562666  1
  Al  Al30  1  0.55858867  0.88199171  0.55221740  1
  Gd  Gd31  1  0.17101277  0.23017995  0.14926183  1
  Gd  Gd32  1  0.56069820  0.19756556  0.06245376  1
  Gd  Gd33  1  0.77258397  0.43035779  0.30357865  1
  Gd  Gd34  1  0.54531293  0.54866748  0.60236785  1
  Gd  Gd35  1  0.55998111  0.86924003  0.07352511  1
  N  N36  1  0.22121584  0.20605404  0.36640650  1
  N  N37  1  0.11268760  0.06966435  0.04315713  1
  N  N38  1  0.88146265  0.20228542  0.85756652  1
  N  N39  1  0.77917772  0.09003890  0.61705047  1
  N  N40  1  0.56816981  0.19765299  0.36812489  1
  N  N41  1  0.42522550  0.10479294  0.15243621  1
  N  N42  1  0.21441580  0.20887303  0.80694864  1
  N  N43  1  0.11079468  0.09105668  0.57867584  1
  N  N44  1  0.89782885  0.18424200  0.38190624  1
  N  N45  1  0.81412788  0.07653814  0.13206959  1
  N  N46  1  0.55142740  0.20411840  0.84209334  1
  N  N47  1  0.44811539  0.09289257  0.60897356  1
  N  N48  1  0.22138259  0.53508006  0.31094498  1
  N  N49  1  0.11430736  0.44800862  0.04385725  1
  N  N50  1  0.88232415  0.54888773  0.85758682  1
  N  N51  1  0.81166765  0.41159097  0.62432775  1
  N  N52  1  0.52551435  0.55472015  0.36983300  1
  N  N53  1  0.42720708  0.45222863  0.05026011  1
  N  N54  1  0.21770959  0.54638640  0.80764607  1
  N  N55  1  0.11245738  0.43209215  0.57866408  1
  N  N56  1  0.89819128  0.55129032  0.38255936  1
  N  N57  1  0.78419314  0.42474522  0.08223519  1
  N  N58  1  0.55959761  0.53659248  0.83903457  1
  N  N59  1  0.42162337  0.41414798  0.56593228  1
  N  N60  1  0.22022999  0.87767075  0.30856788  1
  N  N61  1  0.11943958  0.75534663  0.06115440  1
  N  N62  1  0.87865510  0.87742543  0.87164310  1
  N  N63  1  0.77679630  0.76573934  0.61755387  1
  N  N64  1  0.56905655  0.86827007  0.36237374  1
  N  N65  1  0.42396868  0.75066999  0.04874706  1
  N  N66  1  0.21835123  0.86825065  0.80718947  1
  N  N67  1  0.12080854  0.75691636  0.56227949  1
  N  N68  1  0.89258290  0.87082161  0.37233660  1
  N  N69  1  0.81736496  0.74025144  0.13206658  1
  N  N70  1  0.55105844  0.87764771  0.85022717  1
  N  N71  1  0.41756285  0.80566747  0.55968457  1
