# generated using pymatgen
data_Gd5Al31N36
_symmetry_space_group_name_H-M   'P 1'
_cell_length_a   9.70026955
_cell_length_b   9.68129797
_cell_length_c   10.29548428
_cell_angle_alpha   89.99997467
_cell_angle_beta   89.66807680
_cell_angle_gamma   60.06471812
_symmetry_Int_Tables_number   1
_chemical_formula_structural   Gd5Al31N36
_chemical_formula_sum   'Gd5 Al31 N36'
_cell_volume   837.85323445
_cell_formula_units_Z   1
loop_
 _symmetry_equiv_pos_site_id
 _symmetry_equiv_pos_as_xyz
  1  'x, y, z'
loop_
 _atom_site_type_symbol
 _atom_site_label
 _atom_site_symmetry_multiplicity
 _atom_site_fract_x
 _atom_site_fract_y
 _atom_site_fract_z
 _atom_site_occupancy
  Al  Al0  1  0.11191699  0.08506115  0.31389222  1
  Al  Al1  1  0.77877902  0.09062640  0.79827704  1
  Al  Al2  1  0.89797881  0.19666214  0.56216803  1
  Al  Al3  1  0.44277164  0.09528071  0.32541923  1
  Al  Al4  1  0.11171202  0.09070267  0.79616524  1
  Al  Al5  1  0.21689620  0.20821840  0.55766524  1
  Al  Al6  1  0.78795819  0.08471723  0.31465409  1
  Al  Al7  1  0.89503831  0.19265027  0.04898798  1
  Al  Al8  1  0.44409796  0.09461750  0.78140811  1
  Al  Al9  1  0.55508533  0.20422239  0.55412763  1
  Al  Al10  1  0.11191694  0.43635483  0.31389225  1
  Al  Al11  1  0.21364528  0.55071428  0.05946506  1
  Al  Al12  1  0.78742087  0.42295600  0.81689313  1
  Al  Al13  1  0.89797881  0.53869204  0.56216806  1
  Al  Al14  1  0.43478249  0.43652405  0.30589621  1
  Al  Al15  1  0.54281064  0.54526124  0.04483633  1
  Al  Al16  1  0.11171201  0.43091823  0.79616521  1
  Al  Al17  1  0.21690261  0.54027884  0.55510368  1
  Al  Al18  1  0.89503819  0.54564439  0.04898796  1
  Al  Al19  1  0.43428991  0.42527839  0.80165889  1
  Al  Al20  1  0.11101376  0.76115959  0.30749591  1
  Al  Al21  1  0.21364531  0.86897347  0.05946502  1
  Al  Al22  1  0.77877901  0.76392748  0.79827701  1
  Al  Al23  1  0.89132196  0.87100550  0.55679904  1
  Al  Al24  1  0.43478251  0.76202647  0.30589618  1
  Al  Al25  1  0.10964565  0.76184361  0.80775054  1
  Al  Al26  1  0.21690256  0.87615158  0.55510368  1
  Al  Al27  1  0.78795813  0.76065749  0.31465412  1
  Al  Al28  1  0.90050910  0.86641189  0.06122881  1
  Al  Al29  1  0.43428987  0.77376468  0.80165889  1
  Al  Al30  1  0.55508526  0.87402542  0.55412765  1
  Gd  Gd31  1  0.21280709  0.21026308  0.05430004  1
  Gd  Gd32  1  0.56289064  0.20732430  0.05912546  1
  Gd  Gd33  1  0.78634572  0.42349358  0.29691033  1
  Gd  Gd34  1  0.55764096  0.53784615  0.57223717  1
  Gd  Gd35  1  0.56289056  0.86311849  0.05912541  1
  N  N36  1  0.21400598  0.20966353  0.36697076  1
  N  N37  1  0.09747366  0.08038911  0.12770798  1
  N  N38  1  0.89297044  0.19606979  0.86221150  1
  N  N39  1  0.77822598  0.09262313  0.61306336  1
  N  N40  1  0.55918775  0.20972241  0.36350987  1
  N  N41  1  0.44134017  0.09599653  0.14575509  1
  N  N42  1  0.22318555  0.20507372  0.83243613  1
  N  N43  1  0.11261029  0.09000775  0.61254004  1
  N  N44  1  0.90201323  0.17959945  0.37987038  1
  N  N45  1  0.80855221  0.07688151  0.12875283  1
  N  N46  1  0.55463938  0.20150111  0.83965090  1
  N  N47  1  0.44406738  0.09463281  0.59500284  1
  N  N48  1  0.22143478  0.54277320  0.36875173  1
  N  N49  1  0.09747349  0.45547026  0.12770804  1
  N  N50  1  0.89297044  0.54429272  0.86221145  1
  N  N51  1  0.81505594  0.40913843  0.62742713  1
  N  N52  1  0.53528301  0.54902505  0.35701084  1
  N  N53  1  0.42511799  0.45659578  0.11942508  1
  N  N54  1  0.21812086  0.54003557  0.86855253  1
  N  N55  1  0.11261032  0.43071484  0.61254003  1
  N  N56  1  0.90201316  0.55172031  0.37987042  1
  N  N57  1  0.77587100  0.42873085  0.07491584  1
  N  N58  1  0.54876820  0.54228242  0.85044263  1
  N  N59  1  0.42449070  0.41443378  0.61959167  1
  N  N60  1  0.22143480  0.86912504  0.36875171  1
  N  N61  1  0.11042668  0.76145312  0.11849832  1
  N  N62  1  0.88707828  0.87312732  0.86751775  1
  N  N63  1  0.77822594  0.76248373  0.61306335  1
  N  N64  1  0.55918769  0.86442301  0.36350989  1
  N  N65  1  0.42511810  0.75161925  0.11942501  1
  N  N66  1  0.21812083  0.87517653  0.86855252  1
  N  N67  1  0.11103225  0.76115030  0.61854062  1
  N  N68  1  0.89331720  0.87000787  0.37161013  1
  N  N69  1  0.80855213  0.74789905  0.12875284  1
  N  N70  1  0.55463938  0.87719250  0.83965083  1
  N  N71  1  0.42449058  0.79440858  0.61959168  1
