# generated using pymatgen
data_Gd5Al31N36
_symmetry_space_group_name_H-M   'P 1'
_cell_length_a   9.68169111
_cell_length_b   9.70416330
_cell_length_c   10.57202863
_cell_angle_alpha   90.18395748
_cell_angle_beta   89.55975660
_cell_angle_gamma   59.91752065
_symmetry_Int_Tables_number   1
_chemical_formula_structural   Gd5Al31N36
_chemical_formula_sum   'Gd5 Al31 N36'
_cell_volume   859.42789554
_cell_formula_units_Z   1
loop_
 _symmetry_equiv_pos_site_id
 _symmetry_equiv_pos_as_xyz
  1  'x, y, z'
loop_
 _atom_site_type_symbol
 _atom_site_label
 _atom_site_symmetry_multiplicity
 _atom_site_fract_x
 _atom_site_fract_y
 _atom_site_fract_z
 _atom_site_occupancy
  Al  Al0  1  0.12163870  0.08192835  0.39741021  1
  Al  Al1  1  0.77834854  0.08926518  0.79817171  1
  Al  Al2  1  0.88821304  0.20162686  0.56432915  1
  Al  Al3  1  0.44842013  0.09491519  0.32828007  1
  Al  Al4  1  0.11668471  0.08738370  0.86373927  1
  Al  Al5  1  0.21397079  0.20996853  0.61715433  1
  Al  Al6  1  0.79219528  0.08336304  0.31329023  1
  Al  Al7  1  0.88885384  0.19378548  0.04027495  1
  Al  Al8  1  0.44625852  0.09007637  0.78953895  1
  Al  Al9  1  0.55935993  0.19549462  0.55919171  1
  Al  Al10  1  0.12130036  0.42953268  0.39772909  1
  Al  Al11  1  0.21976687  0.54602974  0.12392539  1
  Al  Al12  1  0.79472506  0.41891263  0.80627874  1
  Al  Al13  1  0.88967845  0.54398283  0.56517864  1
  Al  Al14  1  0.43232425  0.42929827  0.38218131  1
  Al  Al15  1  0.55860399  0.53324122  0.03307368  1
  Al  Al16  1  0.11837278  0.42742248  0.86483847  1
  Al  Al17  1  0.21215862  0.54438688  0.62758935  1
  Al  Al18  1  0.89121927  0.54815756  0.03993285  1
  Al  Al19  1  0.43778068  0.42630477  0.83928427  1
  Al  Al20  1  0.12134634  0.75670775  0.37549018  1
  Al  Al21  1  0.21729116  0.86620424  0.11994479  1
  Al  Al22  1  0.77478648  0.76596656  0.80064689  1
  Al  Al23  1  0.88758420  0.87313678  0.55438597  1
  Al  Al24  1  0.43014175  0.77538760  0.37917514  1
  Al  Al25  1  0.11500712  0.75826717  0.87797121  1
  Al  Al26  1  0.21310944  0.87970791  0.62756740  1
  Al  Al27  1  0.79652648  0.75596150  0.31277225  1
  Al  Al28  1  0.89857850  0.86718282  0.06374056  1
  Al  Al29  1  0.43150466  0.76899740  0.86528481  1
  Al  Al30  1  0.55836851  0.88275518  0.55176105  1
  Gd  Gd31  1  0.17193089  0.22948528  0.14885617  1
  Gd  Gd32  1  0.55850693  0.19956925  0.05923334  1
  Gd  Gd33  1  0.77143986  0.43048201  0.30186811  1
  Gd  Gd34  1  0.54864026  0.55058223  0.59909240  1
  Gd  Gd35  1  0.56026353  0.86925344  0.07312044  1
  N  N36  1  0.22072000  0.20617872  0.36596174  1
  N  N37  1  0.11239830  0.06924042  0.04327145  1
  N  N38  1  0.88154233  0.20177928  0.85763700  1
  N  N39  1  0.77999623  0.08954561  0.61706305  1
  N  N40  1  0.56670035  0.19909672  0.37100466  1
  N  N41  1  0.42615942  0.10467568  0.15263888  1
  N  N42  1  0.21461540  0.20860570  0.80720748  1
  N  N43  1  0.11062871  0.09125095  0.57837027  1
  N  N44  1  0.89699858  0.18501071  0.38172949  1
  N  N45  1  0.81219446  0.07745992  0.13192991  1
  N  N46  1  0.55223584  0.20280700  0.83907612  1
  N  N47  1  0.44769077  0.09323751  0.60872982  1
  N  N48  1  0.21969699  0.53608207  0.31411489  1
  N  N49  1  0.11490353  0.44806315  0.04455318  1
  N  N50  1  0.88277451  0.54867719  0.85769096  1
  N  N51  1  0.81372664  0.41078998  0.62524246  1
  N  N52  1  0.52542654  0.55523602  0.37193295  1
  N  N53  1  0.43105381  0.45096829  0.06721146  1
  N  N54  1  0.21696413  0.54646162  0.80758879  1
  N  N55  1  0.11295539  0.43196997  0.57814178  1
  N  N56  1  0.89693996  0.55110247  0.38250135  1
  N  N57  1  0.78438586  0.42494818  0.08090080  1
  N  N58  1  0.55903423  0.53527130  0.83804559  1
  N  N59  1  0.42420571  0.41469346  0.57417382  1
  N  N60  1  0.21983641  0.87770065  0.30836560  1
  N  N61  1  0.11922119  0.75495539  0.06161360  1
  N  N62  1  0.87907683  0.87686706  0.87163461  1
  N  N63  1  0.77674623  0.76559748  0.61741088  1
  N  N64  1  0.56881382  0.86863669  0.36227593  1
  N  N65  1  0.42405189  0.75054542  0.04718026  1
  N  N66  1  0.21807662  0.86810010  0.80710274  1
  N  N67  1  0.12007401  0.75779798  0.56229088  1
  N  N68  1  0.89156995  0.87157997  0.37229154  1
  N  N69  1  0.81747155  0.73997129  0.13212939  1
  N  N70  1  0.55142806  0.87676829  0.84959067  1
  N  N71  1  0.41640679  0.80777798  0.55940579  1
