# generated using pymatgen
data_Gd5Al31N36
_symmetry_space_group_name_H-M   'P 1'
_cell_length_a   9.63739943
_cell_length_b   9.66650079
_cell_length_c   10.65975217
_cell_angle_alpha   89.92077995
_cell_angle_beta   89.46825107
_cell_angle_gamma   59.98983330
_symmetry_Int_Tables_number   1
_chemical_formula_structural   Gd5Al31N36
_chemical_formula_sum   'Gd5 Al31 N36'
_cell_volume   859.88546571
_cell_formula_units_Z   1
loop_
 _symmetry_equiv_pos_site_id
 _symmetry_equiv_pos_as_xyz
  1  'x, y, z'
loop_
 _atom_site_type_symbol
 _atom_site_label
 _atom_site_symmetry_multiplicity
 _atom_site_fract_x
 _atom_site_fract_y
 _atom_site_fract_z
 _atom_site_occupancy
  Al  Al0  1  0.12169111  0.08339007  0.39780583  1
  Al  Al1  1  0.77681803  0.08836460  0.79867467  1
  Al  Al2  1  0.88885337  0.20155510  0.56549854  1
  Al  Al3  1  0.44900587  0.09727366  0.32735881  1
  Al  Al4  1  0.11693726  0.08568053  0.86409200  1
  Al  Al5  1  0.21430673  0.21003791  0.61968507  1
  Al  Al6  1  0.79016541  0.08644363  0.31318133  1
  Al  Al7  1  0.88887456  0.19278610  0.03969510  1
  Al  Al8  1  0.44744050  0.08784090  0.78880151  1
  Al  Al9  1  0.55432646  0.20407779  0.55520256  1
  Al  Al10  1  0.12289771  0.43038785  0.39827510  1
  Al  Al11  1  0.21021789  0.55157334  0.12750060  1
  Al  Al12  1  0.79047217  0.41863718  0.80779845  1
  Al  Al13  1  0.89121241  0.54364979  0.56642665  1
  Al  Al14  1  0.44051059  0.43536755  0.30841405  1
  Al  Al15  1  0.55527861  0.53052228  0.03832217  1
  Al  Al16  1  0.11854842  0.42657575  0.86597272  1
  Al  Al17  1  0.20974825  0.54650706  0.63136080  1
  Al  Al18  1  0.89133485  0.54605464  0.03970582  1
  Al  Al19  1  0.44368269  0.41543516  0.79740244  1
  Al  Al20  1  0.12003995  0.75819289  0.37758580  1
  Al  Al21  1  0.21769573  0.86556654  0.12026237  1
  Al  Al22  1  0.77495130  0.76381145  0.80014044  1
  Al  Al23  1  0.88590247  0.87517272  0.55475333  1
  Al  Al24  1  0.42988926  0.77869971  0.37814127  1
  Al  Al25  1  0.11432249  0.75713109  0.87799449  1
  Al  Al26  1  0.21458972  0.87841840  0.62815989  1
  Al  Al27  1  0.79560571  0.75793822  0.31354900  1
  Al  Al28  1  0.89685595  0.86732020  0.06274164  1
  Al  Al29  1  0.43239852  0.76195247  0.86507334  1
  Al  Al30  1  0.55853962  0.88321145  0.55266182  1
  Gd  Gd31  1  0.17525294  0.22586994  0.14791132  1
  Gd  Gd32  1  0.55401022  0.20861899  0.05796061  1
  Gd  Gd33  1  0.77700054  0.43150506  0.30025160  1
  Gd  Gd34  1  0.55305000  0.54442468  0.58260760  1
  Gd  Gd35  1  0.56177615  0.86874740  0.06703190  1
  N  N36  1  0.22021795  0.20779672  0.36235365  1
  N  N37  1  0.11303067  0.06798485  0.04266242  1
  N  N38  1  0.88143404  0.19979956  0.85862434  1
  N  N39  1  0.77772072  0.09143885  0.61732993  1
  N  N40  1  0.55987217  0.21166830  0.36935540  1
  N  N41  1  0.43186534  0.10277028  0.15175934  1
  N  N42  1  0.21471315  0.20770499  0.80707954  1
  N  N43  1  0.11218479  0.09080219  0.57730561  1
  N  N44  1  0.89599506  0.18705122  0.38290628  1
  N  N45  1  0.80849822  0.07756240  0.13166695  1
  N  N46  1  0.55205508  0.19871532  0.84512818  1
  N  N47  1  0.44808487  0.09453082  0.60793651  1
  N  N48  1  0.21043383  0.54318336  0.31345975  1
  N  N49  1  0.11730636  0.44586378  0.04469358  1
  N  N50  1  0.88167741  0.54702199  0.85955654  1
  N  N51  1  0.81503985  0.41039968  0.62847992  1
  N  N52  1  0.52670453  0.55636016  0.36858119  1
  N  N53  1  0.44021088  0.45275405  0.12715207  1
  N  N54  1  0.21346085  0.54734619  0.81158695  1
  N  N55  1  0.11645454  0.43064114  0.57666261  1
  N  N56  1  0.89632769  0.55344268  0.38579574  1
  N  N57  1  0.78612417  0.42201578  0.08228836  1
  N  N58  1  0.55683577  0.52708089  0.84721494  1
  N  N59  1  0.43217486  0.40940744  0.62047026  1
  N  N60  1  0.21910629  0.87923240  0.30799158  1
  N  N61  1  0.11896350  0.75537112  0.06007048  1
  N  N62  1  0.87744146  0.87585536  0.87269030  1
  N  N63  1  0.77781494  0.76506857  0.61856609  1
  N  N64  1  0.56863781  0.87198595  0.36449408  1
  N  N65  1  0.42407133  0.74901801  0.04707015  1
  N  N66  1  0.21793128  0.86698332  0.80658609  1
  N  N67  1  0.12007960  0.75775278  0.56227149  1
  N  N68  1  0.88902919  0.87516794  0.37373352  1
  N  N69  1  0.81780217  0.73745844  0.13347526  1
  N  N70  1  0.55066361  0.87280528  0.84679273  1
  N  N71  1  0.41745352  0.80538981  0.55851604  1
