# generated using pymatgen
data_Zn2PN3
_symmetry_space_group_name_H-M   'P 1'
_cell_length_a   5.46241522
_cell_length_b   5.46135923
_cell_length_c   4.98642008
_cell_angle_alpha   91.09647926
_cell_angle_beta   90.53000323
_cell_angle_gamma   119.51412055
_symmetry_Int_Tables_number   1
_chemical_formula_structural   Zn2PN3
_chemical_formula_sum   'Zn4 P2 N6'
_cell_volume   129.39899499
_cell_formula_units_Z   2
loop_
 _symmetry_equiv_pos_site_id
 _symmetry_equiv_pos_as_xyz
  1  'x, y, z'
loop_
 _atom_site_type_symbol
 _atom_site_label
 _atom_site_symmetry_multiplicity
 _atom_site_fract_x
 _atom_site_fract_y
 _atom_site_fract_z
 _atom_site_occupancy
  P  P0  1  -0.18716608  0.81289429  0.90548720  1
  P  P1  1  -0.86809206  0.13206272  0.40681184  1
  Zn  Zn2  1  -0.85105991  0.47888597  0.91940829  1
  Zn  Zn3  1  -0.52131785  0.14922625  0.91879934  1
  Zn  Zn4  1  -0.20224504  0.46787618  0.41811937  1
  Zn  Zn5  1  -0.53222819  0.79819597  0.41886088  1
  N  N6  1  -0.90976017  0.09013444  0.75359713  1
  N  N7  1  -0.14761945  0.85247890  0.25199843  1
  N  N8  1  -0.18773839  0.52321651  0.82267318  1
  N  N9  1  -0.47645327  0.81178685  0.82317944  1
  N  N10  1  -0.58093958  0.13081335  0.32415806  1
  N  N11  1  -0.86877704  0.41902202  0.32471703  1
