# generated using pymatgen
data_Zn2PN3
_symmetry_space_group_name_H-M   'P 1'
_cell_length_a   5.45518010
_cell_length_b   5.45511957
_cell_length_c   4.98519436
_cell_angle_alpha   89.99993379
_cell_angle_beta   90.00004507
_cell_angle_gamma   119.41127139
_symmetry_Int_Tables_number   1
_chemical_formula_structural   Zn2PN3
_chemical_formula_sum   'Zn4 P2 N6'
_cell_volume   129.23259427
_cell_formula_units_Z   2
loop_
 _symmetry_equiv_pos_site_id
 _symmetry_equiv_pos_as_xyz
  1  'x, y, z'
loop_
 _atom_site_type_symbol
 _atom_site_label
 _atom_site_symmetry_multiplicity
 _atom_site_fract_x
 _atom_site_fract_y
 _atom_site_fract_z
 _atom_site_occupancy
  P  P0  1  -0.18714486  0.81285947  0.92079183  1
  P  P1  1  -0.86841044  0.13158477  0.42079114  1
  Zn  Zn2  1  -0.85155667  0.47794400  0.93465158  1
  Zn  Zn3  1  -0.52205573  0.14844109  0.93465246  1
  Zn  Zn4  1  -0.20399787  0.46650071  0.43465271  1
  Zn  Zn5  1  -0.53350015  0.79600260  0.43465241  1
  N  N6  1  -0.90957299  0.09042487  0.76627031  1
  N  N7  1  -0.14598337  0.85401956  0.26627078  1
  N  N8  1  -0.18715549  0.52416392  0.83848464  1
  N  N9  1  -0.47583474  0.81284472  0.83848490  1
  N  N10  1  -0.57972156  0.13159974  0.33848382  1
  N  N11  1  -0.86839946  0.42028121  0.33848503  1
