# generated using pymatgen
data_Zn2PN3
_symmetry_space_group_name_H-M   'P 1'
_cell_length_a   5.49212661
_cell_length_b   5.49192530
_cell_length_c   4.98722277
_cell_angle_alpha   91.41123612
_cell_angle_beta   90.95511310
_cell_angle_gamma   119.61998444
_symmetry_Int_Tables_number   1
_chemical_formula_structural   Zn2PN3
_chemical_formula_sum   'Zn4 P2 N6'
_cell_volume   130.65735207
_cell_formula_units_Z   2
loop_
 _symmetry_equiv_pos_site_id
 _symmetry_equiv_pos_as_xyz
  1  'x, y, z'
loop_
 _atom_site_type_symbol
 _atom_site_label
 _atom_site_symmetry_multiplicity
 _atom_site_fract_x
 _atom_site_fract_y
 _atom_site_fract_z
 _atom_site_occupancy
  P  P0  1  -0.19080124  0.80895835  0.82617064  1
  P  P1  1  -0.86830415  0.13175242  0.30510786  1
  Zn  Zn2  1  -0.85425215  0.47389634  0.79511594  1
  Zn  Zn3  1  -0.52576819  0.14525753  0.79456752  1
  Zn  Zn4  1  -0.20098278  0.46522302  0.30917846  1
  Zn  Zn5  1  -0.53487488  0.79896415  0.30911645  1
  N  N6  1  -0.90290610  0.09693900  0.95617161  1
  N  N7  1  -0.14931864  0.85098864  0.43357098  1
  N  N8  1  -0.18629742  0.52327218  0.88925038  1
  N  N9  1  -0.47664709  0.81381520  0.88961746  1
  N  N10  1  -0.57851124  0.13563693  0.38981252  1
  N  N11  1  -0.86473315  0.42188970  0.39013038  1
