# generated using pymatgen
data_Zn2PN3
_symmetry_space_group_name_H-M   'P 1'
_cell_length_a   5.52718065
_cell_length_b   5.52679547
_cell_length_c   4.98757915
_cell_angle_alpha   91.52881723
_cell_angle_beta   91.26590115
_cell_angle_gamma   119.40311839
_symmetry_Int_Tables_number   1
_chemical_formula_structural   Zn2PN3
_chemical_formula_sum   'Zn4 P2 N6'
_cell_volume   132.57718875
_cell_formula_units_Z   2
loop_
 _symmetry_equiv_pos_site_id
 _symmetry_equiv_pos_as_xyz
  1  'x, y, z'
loop_
 _atom_site_type_symbol
 _atom_site_label
 _atom_site_symmetry_multiplicity
 _atom_site_fract_x
 _atom_site_fract_y
 _atom_site_fract_z
 _atom_site_occupancy
  P  P0  1  -0.19961196  0.80023293  0.92868662  1
  P  P1  1  -0.85831568  0.14203449  0.26252210  1
  Zn  Zn2  1  -0.85206561  0.49182468  0.87915809  1
  Zn  Zn3  1  -0.50707483  0.14785759  0.88187671  1
  Zn  Zn4  1  -0.20416919  0.46685545  0.41364026  1
  Zn  Zn5  1  -0.53350802  0.79656870  0.41384156  1
  N  N6  1  -0.89726194  0.10259792  0.90730148  1
  N  N7  1  -0.16767639  0.83256486  0.27408766  1
  N  N8  1  -0.18892403  0.52623492  0.82250505  1
  N  N9  1  -0.47327888  0.81081132  0.82265465  1
  N  N10  1  -0.58009707  0.12877820  0.34008533  1
  N  N11  1  -0.87141343  0.42023243  0.34145069  1
