# generated using pymatgen
data_Zn2PN3
_symmetry_space_group_name_H-M   'P 1'
_cell_length_a   5.52880851
_cell_length_b   5.52723712
_cell_length_c   4.98835437
_cell_angle_alpha   91.75960816
_cell_angle_beta   91.48201570
_cell_angle_gamma   119.35389877
_symmetry_Int_Tables_number   1
_chemical_formula_structural   Zn2PN3
_chemical_formula_sum   'Zn4 P2 N6'
_cell_volume   132.65819635
_cell_formula_units_Z   2
loop_
 _symmetry_equiv_pos_site_id
 _symmetry_equiv_pos_as_xyz
  1  'x, y, z'
loop_
 _atom_site_type_symbol
 _atom_site_label
 _atom_site_symmetry_multiplicity
 _atom_site_fract_x
 _atom_site_fract_y
 _atom_site_fract_z
 _atom_site_occupancy
  P  P0  1  -0.19713315  0.80240644  0.93867651  1
  P  P1  1  -0.85815031  0.14193199  0.28120345  1
  Zn  Zn2  1  -0.84812700  0.47854572  0.81203628  1
  Zn  Zn3  1  -0.52100742  0.15020831  0.81262753  1
  Zn  Zn4  1  -0.20610638  0.46327254  0.38829552  1
  Zn  Zn5  1  -0.53982681  0.79383975  0.37806136  1
  N  N6  1  -0.88731355  0.11237454  0.93607826  1
  N  N7  1  -0.16538630  0.83402759  0.28732563  1
  N  N8  1  -0.18090149  0.53143705  0.83593793  1
  N  N9  1  -0.46872011  0.81852861  0.84017614  1
  N  N10  1  -0.58773082  0.12734198  0.38867772  1
  N  N11  1  -0.87299370  0.41267894  0.38871387  1
