# generated using pymatgen
data_Zn2PN3
_symmetry_space_group_name_H-M   'P 1'
_cell_length_a   5.50252979
_cell_length_b   5.50252402
_cell_length_c   4.98729173
_cell_angle_alpha   91.43502049
_cell_angle_beta   91.04589761
_cell_angle_gamma   119.61292039
_symmetry_Int_Tables_number   1
_chemical_formula_structural   Zn2PN3
_chemical_formula_sum   'Zn4 P2 N6'
_cell_volume   131.15789929
_cell_formula_units_Z   2
loop_
 _symmetry_equiv_pos_site_id
 _symmetry_equiv_pos_as_xyz
  1  'x, y, z'
loop_
 _atom_site_type_symbol
 _atom_site_label
 _atom_site_symmetry_multiplicity
 _atom_site_fract_x
 _atom_site_fract_y
 _atom_site_fract_z
 _atom_site_occupancy
  P  P0  1  -0.19371785  0.80604949  0.85982206  1
  P  P1  1  -0.86790266  0.13219929  0.30257417  1
  Zn  Zn2  1  -0.85433825  0.47277556  0.79378483  1
  Zn  Zn3  1  -0.52685649  0.14514754  0.79327360  1
  Zn  Zn4  1  -0.19993889  0.46414435  0.31600635  1
  Zn  Zn5  1  -0.53611275  0.80005647  0.31576986  1
  N  N6  1  -0.89815822  0.10167511  0.95181714  1
  N  N7  1  -0.15015581  0.85018713  0.40132330  1
  N  N8  1  -0.18609438  0.52077367  0.88727165  1
  N  N9  1  -0.47900842  0.81395361  0.88754790  1
  N  N10  1  -0.57770298  0.13692560  0.38916542  1
  N  N11  1  -0.86341033  0.42270564  0.38945391  1
