# generated using pymatgen
data_Zn2PN3
_symmetry_space_group_name_H-M   'P 1'
_cell_length_a   5.50852881
_cell_length_b   5.50866239
_cell_length_c   4.98731679
_cell_angle_alpha   91.44347800
_cell_angle_beta   91.10182189
_cell_angle_gamma   119.59904331
_symmetry_Int_Tables_number   1
_chemical_formula_structural   Zn2PN3
_chemical_formula_sum   'Zn4 P2 N6'
_cell_volume   131.45998804
_cell_formula_units_Z   2
loop_
 _symmetry_equiv_pos_site_id
 _symmetry_equiv_pos_as_xyz
  1  'x, y, z'
loop_
 _atom_site_type_symbol
 _atom_site_label
 _atom_site_symmetry_multiplicity
 _atom_site_fract_x
 _atom_site_fract_y
 _atom_site_fract_z
 _atom_site_occupancy
  P  P0  1  -0.19602125  0.80378250  0.89769010  1
  P  P1  1  -0.86652241  0.13360451  0.29943899  1
  Zn  Zn2  1  -0.85421118  0.47250289  0.79337424  1
  Zn  Zn3  1  -0.52712033  0.14526799  0.79288654  1
  Zn  Zn4  1  -0.19968252  0.46235219  0.31996417  1
  Zn  Zn5  1  -0.53801106  0.80033328  0.31965358  1
  N  N6  1  -0.89434677  0.10547631  0.94709836  1
  N  N7  1  -0.15142846  0.84892194  0.37272662  1
  N  N8  1  -0.18577775  0.51996389  0.88355158  1
  N  N9  1  -0.47970147  0.81423952  0.88378625  1
  N  N10  1  -0.57757271  0.13731109  0.38867995  1
  N  N11  1  -0.86300110  0.42283736  0.38895981  1
