# generated using pymatgen
data_Zn2PN3
_symmetry_space_group_name_H-M   'P 1'
_cell_length_a   5.50855229
_cell_length_b   5.50868431
_cell_length_c   4.98731395
_cell_angle_alpha   91.44265445
_cell_angle_beta   91.10276013
_cell_angle_gamma   119.59876066
_symmetry_Int_Tables_number   1
_chemical_formula_structural   Zn2PN3
_chemical_formula_sum   'Zn4 P2 N6'
_cell_volume   131.46136278
_cell_formula_units_Z   2
loop_
 _symmetry_equiv_pos_site_id
 _symmetry_equiv_pos_as_xyz
  1  'x, y, z'
loop_
 _atom_site_type_symbol
 _atom_site_label
 _atom_site_symmetry_multiplicity
 _atom_site_fract_x
 _atom_site_fract_y
 _atom_site_fract_z
 _atom_site_occupancy
  P  P0  1  -0.18907964  0.81079297  0.91524021  1
  P  P1  1  -0.85951081  0.14068790  0.31656696  1
  Zn  Zn2  1  -0.85590057  0.48207729  0.89462080  1
  Zn  Zn3  1  -0.51755872  0.14408130  0.89493274  1
  Zn  Zn4  1  -0.20134247  0.47194749  0.42126334  1
  Zn  Zn5  1  -0.52842584  0.79917351  0.42174153  1
  N  N6  1  -0.90413382  0.09551603  0.84214100  1
  N  N7  1  -0.16123313  0.83894079  0.26758580  1
  N  N8  1  -0.19258010  0.52158598  0.82569834  1
  N  N9  1  -0.47800445  0.80710879  0.82597428  1
  N  N10  1  -0.57584985  0.13020416  0.33090635  1
  N  N11  1  -0.86977763  0.42447726  0.33113886  1
