# generated using pymatgen
data_Zn2PN3
_symmetry_space_group_name_H-M   'P 1'
_cell_length_a   5.45416409
_cell_length_b   5.45405293
_cell_length_c   4.98524252
_cell_angle_alpha   90.21727314
_cell_angle_beta   90.07855798
_cell_angle_gamma   119.41698991
_symmetry_Int_Tables_number   1
_chemical_formula_structural   Zn2PN3
_chemical_formula_sum   'Zn4 P2 N6'
_cell_volume   129.17542072
_cell_formula_units_Z   2
loop_
 _symmetry_equiv_pos_site_id
 _symmetry_equiv_pos_as_xyz
  1  'x, y, z'
loop_
 _atom_site_type_symbol
 _atom_site_label
 _atom_site_symmetry_multiplicity
 _atom_site_fract_x
 _atom_site_fract_y
 _atom_site_fract_z
 _atom_site_occupancy
  P  P0  1  -0.18709041  0.81286660  0.80745422  1
  P  P1  1  -0.86842130  0.13154322  0.30792100  1
  Zn  Zn2  1  -0.85182283  0.47774308  0.79415408  1
  Zn  Zn3  1  -0.52221471  0.14805847  0.79394859  1
  Zn  Zn4  1  -0.20425890  0.46624205  0.29348022  1
  Zn  Zn5  1  -0.53369794  0.79563231  0.29368193  1
  N  N6  1  -0.90937794  0.09059782  0.96235089  1
  N  N7  1  -0.14576966  0.85421498  0.46217217  1
  N  N8  1  -0.18710977  0.52441565  0.88973974  1
  N  N9  1  -0.47559932  0.81299705  0.88989000  1
  N  N10  1  -0.57957508  0.13173169  0.39011411  1
  N  N11  1  -0.86837686  0.42045865  0.39026041  1
