# generated using pymatgen
data_Zn2PN3
_symmetry_space_group_name_H-M   'P 1'
_cell_length_a   4.98757219
_cell_length_b   5.52678671
_cell_length_c   5.52708091
_cell_angle_alpha   60.59524828
_cell_angle_beta   88.73494314
_cell_angle_gamma   91.52642838
_symmetry_Int_Tables_number   1
_chemical_formula_structural   Zn2PN3
_chemical_formula_sum   'Zn4 P2 N6'
_cell_volume   132.57262800
_cell_formula_units_Z   2
loop_
 _symmetry_equiv_pos_site_id
 _symmetry_equiv_pos_as_xyz
  1  'x, y, z'
loop_
 _atom_site_type_symbol
 _atom_site_label
 _atom_site_symmetry_multiplicity
 _atom_site_fract_x
 _atom_site_fract_y
 _atom_site_fract_z
 _atom_site_occupancy
  P  P0  1  0.95219267  0.80241923  0.19725018  1
  P  P1  1  0.28600872  0.14420477  0.85594626  1
  Zn  Zn2  1  0.80092903  0.47755887  0.85143431  1
  Zn  Zn3  1  0.80071560  0.14785385  0.52207549  1
  Zn  Zn4  1  0.33499970  0.45251861  0.20347757  1
  Zn  Zn5  1  0.33255931  0.79660121  0.54851672  1
  N  N6  1  0.94058824  0.11186591  0.88789500  1
  N  N7  1  0.30749637  0.84188087  0.15827343  1
  N  N8  1  0.87346779  0.52415132  0.18417748  1
  N  N9  1  0.87470592  0.81564039  0.47550436  1
  N  N10  1  0.39199545  0.13366443  0.58224214  1
  N  N11  1  0.39215139  0.41823402  0.86660409  1
