# generated using pymatgen
data_Zn2PN3
_symmetry_space_group_name_H-M   'P 1'
_cell_length_a   4.98801306
_cell_length_b   5.52651393
_cell_length_c   5.52955741
_cell_angle_alpha   60.64603111
_cell_angle_beta   88.68833773
_cell_angle_gamma   91.66198487
_symmetry_Int_Tables_number   1
_chemical_formula_structural   Zn2PN3
_chemical_formula_sum   'Zn4 P2 N6'
_cell_volume   132.68241465
_cell_formula_units_Z   2
loop_
 _symmetry_equiv_pos_site_id
 _symmetry_equiv_pos_as_xyz
  1  'x, y, z'
loop_
 _atom_site_type_symbol
 _atom_site_label
 _atom_site_symmetry_multiplicity
 _atom_site_fract_x
 _atom_site_fract_y
 _atom_site_fract_z
 _atom_site_occupancy
  P  P0  1  0.93167836  0.80130226  0.19866885  1
  P  P1  1  0.26925789  0.14260389  0.85827832  1
  Zn  Zn2  1  0.84799545  0.48590975  0.85077889  1
  Zn  Zn3  1  0.86360420  0.14942220  0.51017284  1
  Zn  Zn4  1  0.40818586  0.46604928  0.20637701  1
  Zn  Zn5  1  0.40776311  0.79568671  0.53424778  1
  N  N6  1  0.91762924  0.10665039  0.89428696  1
  N  N7  1  0.27644582  0.83229813  0.16803579  1
  N  N8  1  0.82405203  0.52900232  0.18597839  1
  N  N9  1  0.82407376  0.81393135  0.47034624  1
  N  N10  1  0.35433899  0.12743255  0.58309363  1
  N  N11  1  0.36278551  0.41630462  0.87313233  1
