# generated using pymatgen
data_Zn2PN3
_symmetry_space_group_name_H-M   'P 1'
_cell_length_a   4.98721971
_cell_length_b   5.49199619
_cell_length_c   5.49229228
_cell_angle_alpha   60.38014672
_cell_angle_beta   89.04323618
_cell_angle_gamma   91.41033150
_symmetry_Int_Tables_number   1
_chemical_formula_structural   Zn2PN3
_chemical_formula_sum   'Zn4 P2 N6'
_cell_volume   130.66301625
_cell_formula_units_Z   2
loop_
 _symmetry_equiv_pos_site_id
 _symmetry_equiv_pos_as_xyz
  1  'x, y, z'
loop_
 _atom_site_type_symbol
 _atom_site_label
 _atom_site_symmetry_multiplicity
 _atom_site_fract_x
 _atom_site_fract_y
 _atom_site_fract_z
 _atom_site_occupancy
  P  P0  1  0.90955239  0.81267147  0.18727487  1
  P  P1  1  0.38821203  0.13550625  0.86472597  1
  Zn  Zn2  1  0.90536888  0.47920091  0.85461023  1
  Zn  Zn3  1  0.90543437  0.14543953  0.52070012  1
  Zn  Zn4  1  0.41953747  0.47056213  0.20130093  1
  Zn  Zn5  1  0.42007421  0.79918557  0.52976960  1
  N  N6  1  0.78133412  0.09344714  0.90624507  1
  N  N7  1  0.25850176  0.84745902  0.15269313  1
  N  N8  1  0.82452272  0.52252257  0.19086092  1
  N  N9  1  0.82483649  0.80877012  0.47707258  1
  N  N10  1  0.32503615  0.13062848  0.57888409  1
  N  N11  1  0.32539961  0.42120028  0.86925953  1
