# generated using pymatgen
data_Zn2PN3
_symmetry_space_group_name_H-M   'P 1'
_cell_length_a   5.52969602
_cell_length_b   5.52639108
_cell_length_c   4.98803000
_cell_angle_alpha   91.66679527
_cell_angle_beta   91.30033952
_cell_angle_gamma   119.35482807
_symmetry_Int_Tables_number   1
_chemical_formula_structural   Zn2PN3
_chemical_formula_sum   'Zn4 P2 N6'
_cell_volume   132.68280858
_cell_formula_units_Z   2
loop_
 _symmetry_equiv_pos_site_id
 _symmetry_equiv_pos_as_xyz
  1  'x, y, z'
loop_
 _atom_site_type_symbol
 _atom_site_label
 _atom_site_symmetry_multiplicity
 _atom_site_fract_x
 _atom_site_fract_y
 _atom_site_fract_z
 _atom_site_occupancy
  P  P0  1  -0.19724185  0.80180322  0.94551957  1
  P  P1  1  -0.85687450  0.14314957  0.28300576  1
  Zn  Zn2  1  -0.84913916  0.47837498  0.80630369  1
  Zn  Zn3  1  -0.52132270  0.14865030  0.80676938  1
  Zn  Zn4  1  -0.20476158  0.45856691  0.36679719  1
  Zn  Zn5  1  -0.54563736  0.79501284  0.34992791  1
  N  N6  1  -0.88751412  0.11213408  0.93823541  1
  N  N7  1  -0.16117212  0.83780163  0.29717607  1
  N  N8  1  -0.18243694  0.52810765  0.85185554  1
  N  N9  1  -0.47256414  0.81695831  0.86099359  1
  N  N10  1  -0.58519746  0.13054457  0.39060750  1
  N  N11  1  -0.86953510  0.41548941  0.39061860  1
