# generated using pymatgen
data_Zn2PN3
_symmetry_space_group_name_H-M   'P 1'
_cell_length_a   4.98803000
_cell_length_b   5.52639108
_cell_length_c   5.52969602
_cell_angle_alpha   60.64517193
_cell_angle_beta   88.69966048
_cell_angle_gamma   91.66679527
_symmetry_Int_Tables_number   1
_chemical_formula_structural   Zn2PN3
_chemical_formula_sum   'Zn4 P2 N6'
_cell_volume   132.68280858
_cell_formula_units_Z   2
loop_
 _symmetry_equiv_pos_site_id
 _symmetry_equiv_pos_as_xyz
  1  'x, y, z'
loop_
 _atom_site_type_symbol
 _atom_site_label
 _atom_site_symmetry_multiplicity
 _atom_site_fract_x
 _atom_site_fract_y
 _atom_site_fract_z
 _atom_site_occupancy
  P  P0  1  0.94551957  0.80180322  0.19724185  1
  P  P1  1  0.28300576  0.14314957  0.85687450  1
  Zn  Zn2  1  0.80630369  0.47837498  0.84913916  1
  Zn  Zn3  1  0.80676938  0.14865030  0.52132270  1
  Zn  Zn4  1  0.36679719  0.45856691  0.20476158  1
  Zn  Zn5  1  0.34992791  0.79501284  0.54563736  1
  N  N6  1  0.93823541  0.11213408  0.88751412  1
  N  N7  1  0.29717607  0.83780163  0.16117212  1
  N  N8  1  0.85185554  0.52810765  0.18243694  1
  N  N9  1  0.86099359  0.81695831  0.47256414  1
  N  N10  1  0.39060750  0.13054457  0.58519746  1
  N  N11  1  0.39061860  0.41548941  0.86953510  1
