# generated using pymatgen
data_Zn2PN3
_symmetry_space_group_name_H-M   'P 1'
_cell_length_a   4.98731679
_cell_length_b   5.50866239
_cell_length_c   5.50852881
_cell_angle_alpha   60.40095669
_cell_angle_beta   88.89817811
_cell_angle_gamma   91.44347800
_symmetry_Int_Tables_number   1
_chemical_formula_structural   Zn2PN3
_chemical_formula_sum   'Zn4 P2 N6'
_cell_volume   131.45998804
_cell_formula_units_Z   2
loop_
 _symmetry_equiv_pos_site_id
 _symmetry_equiv_pos_as_xyz
  1  'x, y, z'
loop_
 _atom_site_type_symbol
 _atom_site_label
 _atom_site_symmetry_multiplicity
 _atom_site_fract_x
 _atom_site_fract_y
 _atom_site_fract_z
 _atom_site_occupancy
  P  P0  1  0.89769010  0.80378250  0.19602125  1
  P  P1  1  0.29943899  0.13360451  0.86652241  1
  Zn  Zn2  1  0.79337424  0.47250289  0.85421118  1
  Zn  Zn3  1  0.79288654  0.14526799  0.52712033  1
  Zn  Zn4  1  0.31996417  0.46235219  0.19968252  1
  Zn  Zn5  1  0.31965358  0.80033328  0.53801106  1
  N  N6  1  0.94709836  0.10547631  0.89434677  1
  N  N7  1  0.37272662  0.84892194  0.15142846  1
  N  N8  1  0.88355158  0.51996389  0.18577775  1
  N  N9  1  0.88378625  0.81423952  0.47970147  1
  N  N10  1  0.38867995  0.13731109  0.57757271  1
  N  N11  1  0.38895981  0.42283736  0.86300110  1
