# generated using pymatgen
data_Zn2PN3
_symmetry_space_group_name_H-M   'P 1'
_cell_length_a   5.52708091
_cell_length_b   5.52678671
_cell_length_c   4.98757219
_cell_angle_alpha   91.52642838
_cell_angle_beta   91.26505686
_cell_angle_gamma   119.40475172
_symmetry_Int_Tables_number   1
_chemical_formula_structural   Zn2PN3
_chemical_formula_sum   'Zn4 P2 N6'
_cell_volume   132.57262800
_cell_formula_units_Z   2
loop_
 _symmetry_equiv_pos_site_id
 _symmetry_equiv_pos_as_xyz
  1  'x, y, z'
loop_
 _atom_site_type_symbol
 _atom_site_label
 _atom_site_symmetry_multiplicity
 _atom_site_fract_x
 _atom_site_fract_y
 _atom_site_fract_z
 _atom_site_occupancy
  P  P0  1  -0.19725018  0.80241923  0.95219267  1
  P  P1  1  -0.85594626  0.14420477  0.28600872  1
  Zn  Zn2  1  -0.85143431  0.47755887  0.80092903  1
  Zn  Zn3  1  -0.52207549  0.14785385  0.80071560  1
  Zn  Zn4  1  -0.20347757  0.45251861  0.33499970  1
  Zn  Zn5  1  -0.54851672  0.79660121  0.33255931  1
  N  N6  1  -0.88789500  0.11186591  0.94058824  1
  N  N7  1  -0.15827343  0.84188087  0.30749637  1
  N  N8  1  -0.18417748  0.52415132  0.87346779  1
  N  N9  1  -0.47550436  0.81564039  0.87470592  1
  N  N10  1  -0.58224214  0.13366443  0.39199545  1
  N  N11  1  -0.86660409  0.41823402  0.39215139  1
