# generated using pymatgen
data_MgSiN2
_symmetry_space_group_name_H-M   'P 1'
_cell_length_a   5.32302914
_cell_length_b   6.58846995
_cell_length_c   5.02647634
_cell_angle_alpha   91.95173986
_cell_angle_beta   88.81622042
_cell_angle_gamma   90.16581601
_symmetry_Int_Tables_number   1
_chemical_formula_structural   MgSiN2
_chemical_formula_sum   'Mg4 Si4 N8'
_cell_volume   176.14133777
_cell_formula_units_Z   4
loop_
 _symmetry_equiv_pos_site_id
 _symmetry_equiv_pos_as_xyz
  1  'x, y, z'
loop_
 _atom_site_type_symbol
 _atom_site_label
 _atom_site_symmetry_multiplicity
 _atom_site_fract_x
 _atom_site_fract_y
 _atom_site_fract_z
 _atom_site_occupancy
  Mg  Mg0  1  -0.40759510  0.88412344  -0.08962556  1
  Mg  Mg1  1  -0.91492299  0.63269241  -0.10020784  1
  Mg  Mg2  1  -0.57160422  0.12849506  -0.49923044  1
  Mg  Mg3  1  -0.06489128  0.38364521  -0.57486852  1
  Si  Si4  1  -0.92993835  0.13402003  -0.10083229  1
  Si  Si5  1  -0.06690225  0.88250711  -0.60746979  1
  Si  Si6  1  -0.42661070  0.37418567  -0.95133942  1
  Si  Si7  1  -0.57264145  0.64351698  -0.62668919  1
  N  N8  1  -0.04446348  0.91534843  -0.95225203  1
  N  N9  1  -0.95569540  0.10120220  -0.44815828  1
  N  N10  1  -0.60161090  0.16285014  -0.05654272  1
  N  N11  1  -0.09938458  0.35568244  -0.01412835  1
  N  N12  1  -0.38693022  0.84922504  -0.51727693  1
  N  N13  1  -0.88936346  0.66740820  -0.52058297  1
  N  N14  1  -0.55354142  0.61639489  -0.98396714  1
  N  N15  1  -0.44727452  0.40204564  -0.59303087  1
