# generated using pymatgen
data_MgSiN2
_symmetry_space_group_name_H-M   'P 1'
_cell_length_a   5.02620770
_cell_length_b   5.32932303
_cell_length_c   6.57835211
_cell_angle_alpha   90.09636083
_cell_angle_beta   91.61554352
_cell_angle_gamma   88.97507259
_symmetry_Int_Tables_number   1
_chemical_formula_structural   MgSiN2
_chemical_formula_sum   'Mg4 Si4 N8'
_cell_volume   176.11126497
_cell_formula_units_Z   4
loop_
 _symmetry_equiv_pos_site_id
 _symmetry_equiv_pos_as_xyz
  1  'x, y, z'
loop_
 _atom_site_type_symbol
 _atom_site_label
 _atom_site_symmetry_multiplicity
 _atom_site_fract_x
 _atom_site_fract_y
 _atom_site_fract_z
 _atom_site_occupancy
  Mg  Mg0  1  0.00991030  0.42582731  0.88423766  1
  Mg  Mg1  1  0.04201556  0.91251974  0.62308076  1
  Mg  Mg2  1  0.48106061  0.57769285  0.13381296  1
  Mg  Mg3  1  0.48309155  0.08417633  0.38603647  1
  Si  Si4  1  0.95432462  0.91993037  0.14307075  1
  Si  Si5  1  0.62910844  0.06673130  0.87577929  1
  Si  Si6  1  0.97311503  0.42435487  0.38234330  1
  Si  Si7  1  0.48043328  0.56381750  0.63412142  1
  N  N8  1  0.99147520  0.04638454  0.90244204  1
  N  N9  1  0.59822235  0.93873647  0.11819634  1
  N  N10  1  0.06045119  0.60361174  0.16744029  1
  N  N11  1  0.06294189  0.10511481  0.34928016  1
  N  N12  1  0.56522423  0.39267811  0.85625253  1
  N  N13  1  0.54331015  0.88809458  0.66112283  1
  N  N14  1  0.13313422  0.53811763  0.60052205  1
  N  N15  1  0.62838373  0.44558218  0.41560403  1
