# generated using pymatgen
data_MgSiN2
_symmetry_space_group_name_H-M   'P 1'
_cell_length_a   5.31410576
_cell_length_b   6.54167034
_cell_length_c   5.02566605
_cell_angle_alpha   89.06828531
_cell_angle_beta   89.41438653
_cell_angle_gamma   90.01159501
_symmetry_Int_Tables_number   1
_chemical_formula_structural   MgSiN2
_chemical_formula_sum   'Mg4 Si4 N8'
_cell_volume   174.67563723
_cell_formula_units_Z   4
loop_
 _symmetry_equiv_pos_site_id
 _symmetry_equiv_pos_as_xyz
  1  'x, y, z'
loop_
 _atom_site_type_symbol
 _atom_site_label
 _atom_site_symmetry_multiplicity
 _atom_site_fract_x
 _atom_site_fract_y
 _atom_site_fract_z
 _atom_site_occupancy
  Mg  Mg0  1  -0.41741404  0.88487261  -0.99786273  1
  Mg  Mg1  1  -0.91118313  0.62715500  -0.99814686  1
  Mg  Mg2  1  -0.57906971  0.13384119  -0.48333623  1
  Mg  Mg3  1  -0.08222871  0.38577017  -0.48323757  1
  Si  Si4  1  -0.92566774  0.13341779  -0.97174244  1
  Si  Si5  1  -0.06661131  0.88155776  -0.49386088  1
  Si  Si6  1  -0.42452340  0.38256352  -0.97535503  1
  Si  Si7  1  -0.56528049  0.63320094  -0.47860333  1
  N  N8  1  -0.04483893  0.90967938  -0.11041020  1
  N  N9  1  -0.94377410  0.10949621  -0.62068235  1
  N  N10  1  -0.60431531  0.16617217  -0.06277356  1
  N  N11  1  -0.10414541  0.35187056  -0.06397768  1
  N  N12  1  -0.38967503  0.85502578  -0.56835417  1
  N  N13  1  -0.88643968  0.66211478  -0.56675591  1
  N  N14  1  -0.54246060  0.60196864  -0.13217152  1
  N  N15  1  -0.44574271  0.41463638  -0.62893187  1
