# generated using pymatgen
data_MgSiN2
_symmetry_space_group_name_H-M   'P 1'
_cell_length_a   5.32044905
_cell_length_b   6.55675516
_cell_length_c   5.02573629
_cell_angle_alpha   91.06900098
_cell_angle_beta   89.34068290
_cell_angle_gamma   90.01250820
_symmetry_Int_Tables_number   1
_chemical_formula_structural   MgSiN2
_chemical_formula_sum   'Mg4 Si4 N8'
_cell_volume   175.28009613
_cell_formula_units_Z   4
loop_
 _symmetry_equiv_pos_site_id
 _symmetry_equiv_pos_as_xyz
  1  'x, y, z'
loop_
 _atom_site_type_symbol
 _atom_site_label
 _atom_site_symmetry_multiplicity
 _atom_site_fract_x
 _atom_site_fract_y
 _atom_site_fract_z
 _atom_site_occupancy
  Mg  Mg0  1  -0.40873452  0.88587103  -0.09811853  1
  Mg  Mg1  1  -0.91301191  0.63443003  -0.09785730  1
  Mg  Mg2  1  -0.58104946  0.12601310  -0.57659556  1
  Mg  Mg3  1  -0.07224625  0.38508782  -0.57755317  1
  Si  Si4  1  -0.92684689  0.13240278  -0.10125574  1
  Si  Si5  1  -0.06766511  0.88252442  -0.60426341  1
  Si  Si6  1  -0.42373869  0.37910727  -0.04838746  1
  Si  Si7  1  -0.56684566  0.63498332  -0.61064505  1
  N  N8  1  -0.04632352  0.91499267  -0.95084944  1
  N  N9  1  -0.94966147  0.10147962  -0.44687248  1
  N  N10  1  -0.60605520  0.16023622  -0.01363507  1
  N  N11  1  -0.09910544  0.35525355  -0.01091536  1
  N  N12  1  -0.38773305  0.85228763  -0.51638121  1
  N  N13  1  -0.88777640  0.66722266  -0.51761420  1
  N  N14  1  -0.55015070  0.61345015  -0.96468342  1
  N  N15  1  -0.44642605  0.40800059  -0.50057495  1
