# generated using pymatgen
data_MgSiN2
_symmetry_space_group_name_H-M   'P 1'
_cell_length_a   5.30739644
_cell_length_b   6.58316619
_cell_length_c   5.02554345
_cell_angle_alpha   90.64318323
_cell_angle_beta   89.57247502
_cell_angle_gamma   90.01089519
_symmetry_Int_Tables_number   1
_chemical_formula_structural   MgSiN2
_chemical_formula_sum   'Mg4 Si4 N8'
_cell_volume   175.57388624
_cell_formula_units_Z   4
loop_
 _symmetry_equiv_pos_site_id
 _symmetry_equiv_pos_as_xyz
  1  'x, y, z'
loop_
 _atom_site_type_symbol
 _atom_site_label
 _atom_site_symmetry_multiplicity
 _atom_site_fract_x
 _atom_site_fract_y
 _atom_site_fract_z
 _atom_site_occupancy
  Mg  Mg0  1  -0.41869557  0.88669195  -0.01995363  1
  Mg  Mg1  1  -0.92591057  0.63148976  -0.08369807  1
  Mg  Mg2  1  -0.56796772  0.13156424  -0.49936418  1
  Mg  Mg3  1  -0.06568417  0.38415509  -0.58435836  1
  Si  Si4  1  -0.92904964  0.13437483  -0.10404979  1
  Si  Si5  1  -0.06324460  0.88248094  -0.60444394  1
  Si  Si6  1  -0.43025639  0.38269326  -0.97255084  1
  Si  Si7  1  -0.56315875  0.63361998  -0.47311127  1
  N  N8  1  -0.03714285  0.91507818  -0.95067084  1
  N  N9  1  -0.95573397  0.10263932  -0.45033468  1
  N  N10  1  -0.59934961  0.16385770  -0.06166035  1
  N  N11  1  -0.09924275  0.35303229  -0.01466475  1
  N  N12  1  -0.39107466  0.85274770  -0.54996194  1
  N  N13  1  -0.89272216  0.66472802  -0.51674607  1
  N  N14  1  -0.53870500  0.60089209  -0.12482836  1
  N  N15  1  -0.45543189  0.41329755  -0.62580526  1
