# generated using pymatgen
data_MgSiN2
_symmetry_space_group_name_H-M   'P 1'
_cell_length_a   5.32409863
_cell_length_b   6.61395293
_cell_length_c   5.02601328
_cell_angle_alpha   91.53067542
_cell_angle_beta   89.10751739
_cell_angle_gamma   90.13043199
_symmetry_Int_Tables_number   1
_chemical_formula_structural   MgSiN2
_chemical_formula_sum   'Mg4 Si4 N8'
_cell_volume   176.89778006
_cell_formula_units_Z   4
loop_
 _symmetry_equiv_pos_site_id
 _symmetry_equiv_pos_as_xyz
  1  'x, y, z'
loop_
 _atom_site_type_symbol
 _atom_site_label
 _atom_site_symmetry_multiplicity
 _atom_site_fract_x
 _atom_site_fract_y
 _atom_site_fract_z
 _atom_site_occupancy
  Mg  Mg0  1  -0.41019526  0.88612069  -0.07327802  1
  Mg  Mg1  1  -0.91982126  0.63114303  -0.09238566  1
  Mg  Mg2  1  -0.57059410  0.13005943  -0.49865241  1
  Mg  Mg3  1  -0.06444829  0.38204788  -0.57903125  1
  Si  Si4  1  -0.92892960  0.13402087  -0.10076333  1
  Si  Si5  1  -0.06507477  0.88388045  -0.60721030  1
  Si  Si6  1  -0.42861376  0.37779910  -0.95927625  1
  Si  Si7  1  -0.57164734  0.64227159  -0.59951516  1
  N  N8  1  -0.04199152  0.91558050  -0.95153202  1
  N  N9  1  -0.95455002  0.10115452  -0.44850214  1
  N  N10  1  -0.60071738  0.16271527  -0.05646243  1
  N  N11  1  -0.09972744  0.35298548  -0.01366429  1
  N  N12  1  -0.38641762  0.85235651  -0.52114075  1
  N  N13  1  -0.89224946  0.66607820  -0.52047978  1
  N  N14  1  -0.55113182  0.61233429  -0.01429755  1
  N  N15  1  -0.44726068  0.40279508  -0.60001099  1
