# generated using pymatgen
data_MgSiN2
_symmetry_space_group_name_H-M   'P 1'
_cell_length_a   5.32190162
_cell_length_b   6.60469809
_cell_length_c   5.02612392
_cell_angle_alpha   88.34081189
_cell_angle_beta   89.02992498
_cell_angle_gamma   89.85882191
_symmetry_Int_Tables_number   1
_chemical_formula_structural   MgSiN2
_chemical_formula_sum   'Mg4 Si4 N8'
_cell_volume   176.56628750
_cell_formula_units_Z   4
loop_
 _symmetry_equiv_pos_site_id
 _symmetry_equiv_pos_as_xyz
  1  'x, y, z'
loop_
 _atom_site_type_symbol
 _atom_site_label
 _atom_site_symmetry_multiplicity
 _atom_site_fract_x
 _atom_site_fract_y
 _atom_site_fract_z
 _atom_site_occupancy
  Mg  Mg0  1  -0.42740616  0.88270425  -0.00228849  1
  Mg  Mg1  1  -0.92085637  0.62911889  -0.08044998  1
  Mg  Mg2  1  -0.57370244  0.13201575  -0.48278748  1
  Mg  Mg3  1  -0.08256752  0.38574460  -0.49793286  1
  Si  Si4  1  -0.91960594  0.14286865  -0.95857216  1
  Si  Si5  1  -0.06424793  0.87563679  -0.62483981  1
  Si  Si6  1  -0.42568725  0.38285020  -0.97263778  1
  Si  Si7  1  -0.56209215  0.63395978  -0.47842830  1
  N  N8  1  -0.04486501  0.90202191  -0.98360723  1
  N  N9  1  -0.93836577  0.11562002  -0.58801283  1
  N  N10  1  -0.60153042  0.16644375  -0.05897006  1
  N  N11  1  -0.10482261  0.35028297  -0.06075429  1
  N  N12  1  -0.39191478  0.85429101  -0.56505221  1
  N  N13  1  -0.89035767  0.66331106  -0.52293171  1
  N  N14  1  -0.53669946  0.60094548  -0.13112310  1
  N  N15  1  -0.44864884  0.41552776  -0.62781405  1
