# generated using pymatgen
data_MgSiN2
_symmetry_space_group_name_H-M   'P 1'
_cell_length_a   5.32680896
_cell_length_b   6.61254598
_cell_length_c   5.02594488
_cell_angle_alpha   88.57422241
_cell_angle_beta   89.15905670
_cell_angle_gamma   89.90704476
_symmetry_Int_Tables_number   1
_chemical_formula_structural   MgSiN2
_chemical_formula_sum   'Mg4 Si4 N8'
_cell_volume   176.95871055
_cell_formula_units_Z   4
loop_
 _symmetry_equiv_pos_site_id
 _symmetry_equiv_pos_as_xyz
  1  'x, y, z'
loop_
 _atom_site_type_symbol
 _atom_site_label
 _atom_site_symmetry_multiplicity
 _atom_site_fract_x
 _atom_site_fract_y
 _atom_site_fract_z
 _atom_site_occupancy
  Mg  Mg0  1  -0.42705385  0.88181178  -0.99911104  1
  Mg  Mg1  1  -0.92082697  0.63053403  -0.07976320  1
  Mg  Mg2  1  -0.57061254  0.13080474  -0.49080384  1
  Mg  Mg3  1  -0.08107240  0.38616568  -0.51148994  1
  Si  Si4  1  -0.92153825  0.13998695  -0.03392142  1
  Si  Si5  1  -0.06145665  0.88080482  -0.61521136  1
  Si  Si6  1  -0.42719869  0.38452510  -0.97140887  1
  Si  Si7  1  -0.56311219  0.63433994  -0.47890103  1
  N  N8  1  -0.04312740  0.90487931  -0.97224541  1
  N  N9  1  -0.94377173  0.10757463  -0.52307823  1
  N  N10  1  -0.59748892  0.16595591  -0.05768039  1
  N  N11  1  -0.10588828  0.35411554  -0.05504132  1
  N  N12  1  -0.39190495  0.85254970  -0.56621879  1
  N  N13  1  -0.89126453  0.66225094  -0.52287012  1
  N  N14  1  -0.53722434  0.60129368  -0.13071247  1
  N  N15  1  -0.44982862  0.41575013  -0.62774492  1
