# generated using pymatgen
data_MgSiN2
_symmetry_space_group_name_H-M   'P 1'
_cell_length_a   5.02578800
_cell_length_b   5.32397206
_cell_length_c   6.56461953
_cell_angle_alpha   90.03003458
_cell_angle_beta   91.15508067
_cell_angle_gamma   89.29130037
_symmetry_Int_Tables_number   1
_chemical_formula_structural   MgSiN2
_chemical_formula_sum   'Mg4 Si4 N8'
_cell_volume   175.60140811
_cell_formula_units_Z   4
loop_
 _symmetry_equiv_pos_site_id
 _symmetry_equiv_pos_as_xyz
  1  'x, y, z'
loop_
 _atom_site_type_symbol
 _atom_site_label
 _atom_site_symmetry_multiplicity
 _atom_site_fract_x
 _atom_site_fract_y
 _atom_site_fract_z
 _atom_site_occupancy
  Mg  Mg0  1  0.00432814  0.42097992  0.88510326  1
  Mg  Mg1  1  0.00598790  0.91005152  0.62491403  1
  Mg  Mg2  1  0.48099663  0.57842553  0.13461964  1
  Mg  Mg3  1  0.48048523  0.08316956  0.38606376  1
  Si  Si4  1  0.96577688  0.92387162  0.13678789  1
  Si  Si5  1  0.57207851  0.06860224  0.87747973  1
  Si  Si6  1  0.97498745  0.42388829  0.38249102  1
  Si  Si7  1  0.47799684  0.56464989  0.63222728  1
  N  N8  1  0.04856284  0.04586846  0.90645767  1
  N  N9  1  0.60914856  0.94002533  0.11620620  1
  N  N10  1  0.06148183  0.60378212  0.16752001  1
  N  N11  1  0.06272868  0.10397974  0.35222071  1
  N  N12  1  0.56706847  0.39397965  0.85545614  1
  N  N13  1  0.56348921  0.88521846  0.65938039  1
  N  N14  1  0.13256805  0.54174613  0.60119330  1
  N  N15  1  0.62851712  0.44513186  0.41522186  1
