# generated using pymatgen
data_MgSiN2
_symmetry_space_group_name_H-M   'P 1'
_cell_length_a   5.02594488
_cell_length_b   5.32680896
_cell_length_c   6.61254598
_cell_angle_alpha   90.09295524
_cell_angle_beta   91.42577759
_cell_angle_gamma   89.15905670
_symmetry_Int_Tables_number   1
_chemical_formula_structural   MgSiN2
_chemical_formula_sum   'Mg4 Si4 N8'
_cell_volume   176.95871055
_cell_formula_units_Z   4
loop_
 _symmetry_equiv_pos_site_id
 _symmetry_equiv_pos_as_xyz
  1  'x, y, z'
loop_
 _atom_site_type_symbol
 _atom_site_label
 _atom_site_symmetry_multiplicity
 _atom_site_fract_x
 _atom_site_fract_y
 _atom_site_fract_z
 _atom_site_occupancy
  Mg  Mg0  1  0.99911104  0.42705385  0.88181178  1
  Mg  Mg1  1  0.07976320  0.92082697  0.63053403  1
  Mg  Mg2  1  0.49080384  0.57061254  0.13080474  1
  Mg  Mg3  1  0.51148994  0.08107240  0.38616568  1
  Si  Si4  1  0.03392142  0.92153825  0.13998695  1
  Si  Si5  1  0.61521136  0.06145665  0.88080482  1
  Si  Si6  1  0.97140887  0.42719869  0.38452510  1
  Si  Si7  1  0.47890103  0.56311219  0.63433994  1
  N  N8  1  0.97224541  0.04312740  0.90487931  1
  N  N9  1  0.52307823  0.94377173  0.10757463  1
  N  N10  1  0.05768039  0.59748892  0.16595591  1
  N  N11  1  0.05504132  0.10588828  0.35411554  1
  N  N12  1  0.56621879  0.39190495  0.85254970  1
  N  N13  1  0.52287012  0.89126453  0.66225094  1
  N  N14  1  0.13071247  0.53722434  0.60129368  1
  N  N15  1  0.62774492  0.44982862  0.41575013  1
