# generated using pymatgen
data_MgSiN2
_symmetry_space_group_name_H-M   'P 1'
_cell_length_a   5.31402190
_cell_length_b   6.54147400
_cell_length_c   5.02566471
_cell_angle_alpha   90.92965133
_cell_angle_beta   89.41588191
_cell_angle_gamma   89.98820222
_symmetry_Int_Tables_number   1
_chemical_formula_structural   MgSiN2
_chemical_formula_sum   'Mg4 Si4 N8'
_cell_volume   174.66774007
_cell_formula_units_Z   4
loop_
 _symmetry_equiv_pos_site_id
 _symmetry_equiv_pos_as_xyz
  1  'x, y, z'
loop_
 _atom_site_type_symbol
 _atom_site_label
 _atom_site_symmetry_multiplicity
 _atom_site_fract_x
 _atom_site_fract_y
 _atom_site_fract_z
 _atom_site_occupancy
  Mg  Mg0  1  -0.40945348  0.88577093  -0.09626285  1
  Mg  Mg1  1  -0.91259839  0.63383359  -0.09616495  1
  Mg  Mg2  1  -0.58048191  0.12716849  -0.58143479  1
  Mg  Mg3  1  -0.07428216  0.38486890  -0.58171370  1
  Si  Si4  1  -0.92638542  0.13321232  -0.10091881  1
  Si  Si5  1  -0.06713796  0.88256697  -0.60416730  1
  Si  Si6  1  -0.42506481  0.38156547  -0.08599606  1
  Si  Si7  1  -0.56599376  0.63340035  -0.60775368  1
  N  N8  1  -0.04592451  0.91463097  -0.95058705  1
  N  N9  1  -0.94920551  0.10197303  -0.44736178  1
  N  N10  1  -0.60521842  0.16214244  -0.01276810  1
  N  N11  1  -0.10203704  0.35502618  -0.01118295  1
  N  N12  1  -0.38752374  0.85186219  -0.51553720  1
  N  N13  1  -0.88734785  0.66615627  -0.51674110  1
  N  N14  1  -0.54787523  0.60945937  -0.95878079  1
  N  N15  1  -0.44684011  0.40970540  -0.46883124  1
