# generated using pymatgen
data_MgSiN2
_symmetry_space_group_name_H-M   'P 1'
_cell_length_a   5.02584179
_cell_length_b   5.32605490
_cell_length_c   6.56969646
_cell_angle_alpha   89.95873296
_cell_angle_beta   88.76648545
_cell_angle_gamma   89.24334841
_symmetry_Int_Tables_number   1
_chemical_formula_structural   MgSiN2
_chemical_formula_sum   'Mg4 Si4 N8'
_cell_volume   175.80093858
_cell_formula_units_Z   4
loop_
 _symmetry_equiv_pos_site_id
 _symmetry_equiv_pos_as_xyz
  1  'x, y, z'
loop_
 _atom_site_type_symbol
 _atom_site_label
 _atom_site_symmetry_multiplicity
 _atom_site_fract_x
 _atom_site_fract_y
 _atom_site_fract_z
 _atom_site_occupancy
  Mg  Mg0  1  0.09923252  0.40852524  0.88661915  1
  Mg  Mg1  1  0.09830604  0.91365812  0.63446320  1
  Mg  Mg2  1  0.56964064  0.58255242  0.12270277  1
  Mg  Mg3  1  0.57276840  0.06800166  0.38473044  1
  Si  Si4  1  0.10066940  0.92698106  0.13291575  1
  Si  Si5  1  0.60505894  0.06760763  0.88250275  1
  Si  Si6  1  0.97028198  0.42355354  0.37722678  1
  Si  Si7  1  0.61784646  0.56930627  0.63968195  1
  N  N8  1  0.95095576  0.04672691  0.91536445  1
  N  N9  1  0.44678678  0.95026894  0.10079144  1
  N  N10  1  0.01880319  0.60608945  0.15972707  1
  N  N11  1  0.01387894  0.09811723  0.35574088  1
  N  N12  1  0.51658284  0.38725042  0.85138038  1
  N  N13  1  0.51798295  0.88770688  0.66737946  1
  N  N14  1  0.97520891  0.55257944  0.61809772  1
  N  N15  1  0.56219859  0.44444510  0.40401870  1
