# generated using pymatgen
data_MgSiN2
_symmetry_space_group_name_H-M   'P 1'
_cell_length_a   5.30798884
_cell_length_b   6.48854683
_cell_length_c   5.02540355
_cell_angle_alpha   90.00000033
_cell_angle_beta   89.99999686
_cell_angle_gamma   90.00000228
_symmetry_Int_Tables_number   1
_chemical_formula_structural   MgSiN2
_chemical_formula_sum   'Mg4 Si4 N8'
_cell_volume   173.08059771
_cell_formula_units_Z   4
loop_
 _symmetry_equiv_pos_site_id
 _symmetry_equiv_pos_as_xyz
  1  'x, y, z'
loop_
 _atom_site_type_symbol
 _atom_site_label
 _atom_site_symmetry_multiplicity
 _atom_site_fract_x
 _atom_site_fract_y
 _atom_site_fract_z
 _atom_site_occupancy
  Mg  Mg0  1  -0.41102962  0.88548058  -0.07759212  1
  Mg  Mg1  1  -0.91102961  0.63118847  -0.07759212  1
  Mg  Mg2  1  -0.58064632  0.13118847  -0.57759212  1
  Mg  Mg3  1  -0.08064631  0.38548059  -0.57759212  1
  Si  Si4  1  -0.92563306  0.13377098  -0.08886955  1
  Si  Si5  1  -0.06604282  0.88289811  -0.58886955  1
  Si  Si6  1  -0.42563305  0.38289807  -0.08886954  1
  Si  Si7  1  -0.56604283  0.63377094  -0.58886955  1
  N  N8  1  -0.04462209  0.91257674  -0.93601860  1
  N  N9  1  -0.94705385  0.10409230  -0.43601861  1
  N  N10  1  -0.60500718  0.16351297  -0.99895418  1
  N  N11  1  -0.10500719  0.35315607  -0.99895418  1
  N  N12  1  -0.38666873  0.85315607  -0.49895422  1
  N  N13  1  -0.88666872  0.66351300  -0.49895421  1
  N  N14  1  -0.54462209  0.60409229  -0.93601863  1
  N  N15  1  -0.44705384  0.41257677  -0.43601865  1
