# generated using pymatgen
data_MgSiN2
_symmetry_space_group_name_H-M   'P 1'
_cell_length_a   5.29688237
_cell_length_b   6.57919623
_cell_length_c   5.02545834
_cell_angle_alpha   89.45276692
_cell_angle_beta   89.73243385
_cell_angle_gamma   89.99340999
_symmetry_Int_Tables_number   1
_chemical_formula_structural   MgSiN2
_chemical_formula_sum   'Mg4 Si4 N8'
_cell_volume   175.12344847
_cell_formula_units_Z   4
loop_
 _symmetry_equiv_pos_site_id
 _symmetry_equiv_pos_as_xyz
  1  'x, y, z'
loop_
 _atom_site_type_symbol
 _atom_site_label
 _atom_site_symmetry_multiplicity
 _atom_site_fract_x
 _atom_site_fract_y
 _atom_site_fract_z
 _atom_site_occupancy
  Mg  Mg0  1  -0.42695180  0.88431953  -0.99240074  1
  Mg  Mg1  1  -0.92511246  0.63177691  -0.08312796  1
  Mg  Mg2  1  -0.56497873  0.13168592  -0.49402782  1
  Mg  Mg3  1  -0.06936153  0.38581334  -0.57360788  1
  Si  Si4  1  -0.92898643  0.13383284  -0.10640817  1
  Si  Si5  1  -0.06171458  0.88263934  -0.60617996  1
  Si  Si6  1  -0.42887342  0.38246453  -0.97483838  1
  Si  Si7  1  -0.56246900  0.63428702  -0.47492944  1
  N  N8  1  -0.03530807  0.91353507  -0.95241630  1
  N  N9  1  -0.95477556  0.10134279  -0.45291293  1
  N  N10  1  -0.59841391  0.16465069  -0.06396407  1
  N  N11  1  -0.09915797  0.35240208  -0.02199001  1
  N  N12  1  -0.39320156  0.85300263  -0.56535018  1
  N  N13  1  -0.89311332  0.66378390  -0.51630399  1
  N  N14  1  -0.53512175  0.60292329  -0.12894993  1
  N  N15  1  -0.45583022  0.41488303  -0.62879457  1
