# generated using pymatgen
data_MgSiN2
_symmetry_space_group_name_H-M   'P 1'
_cell_length_a   5.02573740
_cell_length_b   5.32049011
_cell_length_c   6.55684868
_cell_angle_alpha   90.01274149
_cell_angle_beta   91.07027057
_cell_angle_gamma   89.33958601
_symmetry_Int_Tables_number   1
_chemical_formula_structural   MgSiN2
_chemical_formula_sum   'Mg4 Si4 N8'
_cell_volume   175.28387627
_cell_formula_units_Z   4
loop_
 _symmetry_equiv_pos_site_id
 _symmetry_equiv_pos_as_xyz
  1  'x, y, z'
loop_
 _atom_site_type_symbol
 _atom_site_label
 _atom_site_symmetry_multiplicity
 _atom_site_fract_x
 _atom_site_fract_y
 _atom_site_fract_z
 _atom_site_occupancy
  Mg  Mg0  1  0.00199644  0.41943963  0.88508934  1
  Mg  Mg1  1  0.00295742  0.91061555  0.62600381  1
  Mg  Mg2  1  0.48165714  0.57866020  0.13443058  1
  Mg  Mg3  1  0.48139417  0.08294083  0.38587028  1
  Si  Si4  1  0.96885358  0.92481514  0.13500219  1
  Si  Si5  1  0.53157987  0.06794243  0.87908664  1
  Si  Si6  1  0.97525785  0.42400297  0.38252321  1
  Si  Si7  1  0.47826197  0.56482193  0.63239774  1
  N  N8  1  0.07862451  0.04524893  0.90798709  1
  N  N9  1  0.61478844  0.94150375  0.11348100  1
  N  N10  1  0.06190605  0.60388989  0.16722841  1
  N  N11  1  0.06313812  0.10393724  0.35229161  1
  N  N12  1  0.56859792  0.39258692  0.85525424  1
  N  N13  1  0.56586973  0.88560961  0.66022276  1
  N  N14  1  0.13264988  0.54200814  0.60147864  1
  N  N15  1  0.62866924  0.44534716  0.41499533  1
