# generated using pymatgen
data_MgSiN2
_symmetry_space_group_name_H-M   'P 1'
_cell_length_a   5.30800176
_cell_length_b   6.48839384
_cell_length_c   5.02540356
_cell_angle_alpha   89.99487991
_cell_angle_beta   89.99558341
_cell_angle_gamma   90.00017649
_symmetry_Int_Tables_number   1
_chemical_formula_structural   MgSiN2
_chemical_formula_sum   'Mg4 Si4 N8'
_cell_volume   173.07693733
_cell_formula_units_Z   4
loop_
 _symmetry_equiv_pos_site_id
 _symmetry_equiv_pos_as_xyz
  1  'x, y, z'
loop_
 _atom_site_type_symbol
 _atom_site_label
 _atom_site_symmetry_multiplicity
 _atom_site_fract_x
 _atom_site_fract_y
 _atom_site_fract_z
 _atom_site_occupancy
  Mg  Mg0  1  -0.41101672  0.88546616  -0.98908760  1
  Mg  Mg1  1  -0.91100689  0.63118297  -0.98908630  1
  Mg  Mg2  1  -0.58064946  0.13119860  -0.48906815  1
  Mg  Mg3  1  -0.08065457  0.38547311  -0.48906959  1
  Si  Si4  1  -0.92562050  0.13376301  -0.97776261  1
  Si  Si5  1  -0.06603091  0.88290140  -0.47776613  1
  Si  Si6  1  -0.42561881  0.38289676  -0.97776673  1
  Si  Si7  1  -0.56603147  0.63376887  -0.47777453  1
  N  N8  1  -0.04456951  0.91263437  -0.13066533  1
  N  N9  1  -0.94707166  0.10404152  -0.63066686  1
  N  N10  1  -0.60500977  0.16355569  -0.06762084  1
  N  N11  1  -0.10501216  0.35310979  -0.06762857  1
  N  N12  1  -0.38663245  0.85312290  -0.56762756  1
  N  N13  1  -0.88663458  0.66355609  -0.56762647  1
  N  N14  1  -0.54457000  0.60402736  -0.13068552  1
  N  N15  1  -0.44707556  0.41264330  -0.63068000  1
