# generated using pymatgen
data_MgSiN2
_symmetry_space_group_name_H-M   'P 1'
_cell_length_a   5.02554345
_cell_length_b   5.30739644
_cell_length_c   6.58316619
_cell_angle_alpha   89.98910481
_cell_angle_beta   89.35681677
_cell_angle_gamma   89.57247502
_symmetry_Int_Tables_number   1
_chemical_formula_structural   MgSiN2
_chemical_formula_sum   'Mg4 Si4 N8'
_cell_volume   175.57388624
_cell_formula_units_Z   4
loop_
 _symmetry_equiv_pos_site_id
 _symmetry_equiv_pos_as_xyz
  1  'x, y, z'
loop_
 _atom_site_type_symbol
 _atom_site_label
 _atom_site_symmetry_multiplicity
 _atom_site_fract_x
 _atom_site_fract_y
 _atom_site_fract_z
 _atom_site_occupancy
  Mg  Mg0  1  0.01995363  0.41869557  0.88669195  1
  Mg  Mg1  1  0.08369807  0.92591057  0.63148976  1
  Mg  Mg2  1  0.49936418  0.56796772  0.13156424  1
  Mg  Mg3  1  0.58435836  0.06568417  0.38415509  1
  Si  Si4  1  0.10404979  0.92904964  0.13437483  1
  Si  Si5  1  0.60444394  0.06324460  0.88248094  1
  Si  Si6  1  0.97255084  0.43025639  0.38269326  1
  Si  Si7  1  0.47311127  0.56315875  0.63361998  1
  N  N8  1  0.95067084  0.03714285  0.91507818  1
  N  N9  1  0.45033468  0.95573397  0.10263932  1
  N  N10  1  0.06166035  0.59934961  0.16385770  1
  N  N11  1  0.01466475  0.09924275  0.35303229  1
  N  N12  1  0.54996194  0.39107466  0.85274770  1
  N  N13  1  0.51674607  0.89272216  0.66472802  1
  N  N14  1  0.12482836  0.53870500  0.60089209  1
  N  N15  1  0.62580526  0.45543189  0.41329755  1
