# generated using pymatgen
data_Gd2Al7N9
_symmetry_space_group_name_H-M   'P 1'
_cell_length_a   9.83134677
_cell_length_b   9.97663146
_cell_length_c   10.58529292
_cell_angle_alpha   89.34036951
_cell_angle_beta   89.39785116
_cell_angle_gamma   59.78813345
_symmetry_Int_Tables_number   1
_chemical_formula_structural   Gd2Al7N9
_chemical_formula_sum   'Gd8 Al28 N36'
_cell_volume   897.14793715
_cell_formula_units_Z   4
loop_
 _symmetry_equiv_pos_site_id
 _symmetry_equiv_pos_as_xyz
  1  'x, y, z'
loop_
 _atom_site_type_symbol
 _atom_site_label
 _atom_site_symmetry_multiplicity
 _atom_site_fract_x
 _atom_site_fract_y
 _atom_site_fract_z
 _atom_site_occupancy
  Al  Al0  1  0.11185113  0.10989948  0.31020700  1
  Al  Al1  1  0.22909492  0.20517160  0.06408578  1
  Al  Al2  1  0.76012372  0.09866929  0.89604164  1
  Al  Al3  1  0.43930129  0.09022406  0.30016909  1
  Al  Al4  1  0.54627145  0.21776268  0.13634965  1
  Al  Al5  1  0.11569991  0.08611144  0.82959162  1
  Al  Al6  1  0.89317845  0.20286977  0.05973412  1
  Al  Al7  1  0.44113773  0.08881177  0.81928695  1
  Al  Al8  1  0.12204558  0.42373533  0.29950497  1
  Al  Al9  1  0.23738737  0.53305582  0.06806994  1
  Al  Al10  1  0.77435178  0.41774441  0.88105903  1
  Al  Al11  1  0.88874379  0.55257030  0.65386263  1
  Al  Al12  1  0.44292034  0.43648000  0.34774658  1
  Al  Al13  1  0.56166097  0.53162790  0.14032293  1
  Al  Al14  1  0.12779291  0.41863270  0.82287398  1
  Al  Al15  1  0.21663897  0.54466807  0.54723258  1
  Al  Al16  1  0.78443049  0.45406503  0.39208971  1
  Al  Al17  1  0.45474038  0.40405076  0.84264162  1
  Al  Al18  1  0.54184045  0.54395621  0.62666007  1
  Al  Al19  1  0.11673615  0.74623316  0.31406987  1
  Al  Al20  1  0.21286384  0.88067347  0.08112358  1
  Al  Al21  1  0.77333711  0.78498587  0.82609801  1
  Al  Al22  1  0.90175249  0.84799609  0.54479134  1
  Al  Al23  1  0.44008831  0.77058417  0.30126489  1
  Al  Al24  1  0.55619410  0.88955490  0.06962468  1
  Al  Al25  1  0.21464516  0.86501229  0.55578377  1
  Al  Al26  1  0.77922204  0.76049098  0.30117124  1
  Al  Al27  1  0.89171543  0.87433821  0.07287809  1
  Gd  Gd28  1  0.85992778  0.22020013  0.61999808  1
  Gd  Gd29  1  0.19132605  0.20750192  0.56459694  1
  Gd  Gd30  1  0.80722420  0.09053291  0.33600972  1
  Gd  Gd31  1  0.54072533  0.19500435  0.57736130  1
  Gd  Gd32  1  0.89095691  0.54357345  0.08589335  1
  Gd  Gd33  1  0.10830151  0.76629931  0.80063548  1
  Gd  Gd34  1  0.45183841  0.74716099  0.85696272  1
  Gd  Gd35  1  0.56887113  0.83225955  0.56313306  1
  N  N36  1  0.22920371  0.20600151  0.35110612  1
  N  N37  1  0.10322126  0.10450211  0.12778962  1
  N  N38  1  0.89253462  0.19590924  0.87138340  1
  N  N39  1  0.79177218  0.06126702  0.55260404  1
  N  N40  1  0.53851782  0.21306783  0.32789803  1
  N  N41  1  0.44192924  0.09851945  0.11821090  1
  N  N42  1  0.21883691  0.20435107  0.87863396  1
  N  N43  1  0.11048030  0.05241708  0.65400879  1
  N  N44  1  0.91772503  0.23285020  0.39694162  1
  N  N45  1  0.77254587  0.10311447  0.09070461  1
  N  N46  1  0.55810992  0.19412965  0.82726423  1
  N  N47  1  0.42530539  0.06716491  0.64458227  1
  N  N48  1  0.22026726  0.53342095  0.36420443  1
  N  N49  1  0.14981223  0.41070012  0.11949281  1
  N  N50  1  0.88577216  0.53491499  0.84416098  1
  N  N51  1  0.74879371  0.50244538  0.57085475  1
  N  N52  1  0.56407310  0.54296340  0.32181227  1
  N  N53  1  0.44624837  0.43339805  0.11861580  1
  N  N54  1  0.24104740  0.51565666  0.88448999  1
  N  N55  1  0.11293623  0.44932995  0.64183689  1
  N  N56  1  0.89423557  0.53995017  0.31316441  1
  N  N57  1  0.75679743  0.41945958  0.06015507  1
  N  N58  1  0.58231319  0.48505087  0.80363747  1
  N  N59  1  0.43739222  0.44903619  0.56164302  1
  N  N60  1  0.21886172  0.88041198  0.36412897  1
  N  N61  1  0.11317084  0.75835703  0.12814715  1
  N  N62  1  0.87371718  0.88202293  0.89492552  1
  N  N63  1  0.80675479  0.76545456  0.65091206  1
  N  N64  1  0.55320160  0.87325089  0.34781227  1
  N  N65  1  0.44480514  0.76673724  0.11435773  1
  N  N66  1  0.20288704  0.89472929  0.90721565  1
  N  N67  1  0.11263430  0.75359361  0.58568533  1
  N  N68  1  0.90569395  0.83197176  0.36580933  1
  N  N69  1  0.76287159  0.79844730  0.12607295  1
  N  N70  1  0.56699152  0.88673226  0.88847223  1
  N  N71  1  0.40754390  0.75505961  0.64035626  1
