# generated using pymatgen
data_Gd2Al7N9
_symmetry_space_group_name_H-M   'P 1'
_cell_length_a   9.80297266
_cell_length_b   9.86752355
_cell_length_c   10.74755808
_cell_angle_alpha   89.47337018
_cell_angle_beta   89.31178127
_cell_angle_gamma   60.12265427
_symmetry_Int_Tables_number   1
_chemical_formula_structural   Gd2Al7N9
_chemical_formula_sum   'Gd8 Al28 N36'
_cell_volume   901.37919631
_cell_formula_units_Z   4
loop_
 _symmetry_equiv_pos_site_id
 _symmetry_equiv_pos_as_xyz
  1  'x, y, z'
loop_
 _atom_site_type_symbol
 _atom_site_label
 _atom_site_symmetry_multiplicity
 _atom_site_fract_x
 _atom_site_fract_y
 _atom_site_fract_z
 _atom_site_occupancy
  Al  Al0  1  0.10843462  0.10402935  0.30853803  1
  Al  Al1  1  0.21663274  0.20814066  0.07391386  1
  Al  Al2  1  0.77021633  0.09379287  0.90557799  1
  Al  Al3  1  0.43636037  0.09642238  0.29401169  1
  Al  Al4  1  0.54729717  0.22127434  0.12445800  1
  Al  Al5  1  0.11892387  0.08586114  0.82853743  1
  Al  Al6  1  0.89463131  0.20285495  0.06201446  1
  Al  Al7  1  0.44419889  0.09552540  0.89762944  1
  Al  Al8  1  0.11942141  0.42543037  0.29757314  1
  Al  Al9  1  0.22803731  0.54039900  0.06637969  1
  Al  Al10  1  0.77301746  0.41611317  0.87875741  1
  Al  Al11  1  0.88905255  0.55105936  0.65370912  1
  Al  Al12  1  0.44415317  0.43189073  0.37140108  1
  Al  Al13  1  0.55977571  0.53035991  0.13651462  1
  Al  Al14  1  0.12893330  0.41666008  0.82126877  1
  Al  Al15  1  0.21569086  0.54459084  0.54605861  1
  Al  Al16  1  0.78329043  0.45027489  0.38818049  1
  Al  Al17  1  0.45758403  0.41375551  0.89549402  1
  Al  Al18  1  0.54527181  0.53953873  0.62316163  1
  Al  Al19  1  0.11432201  0.74885270  0.31673131  1
  Al  Al20  1  0.21478649  0.87710739  0.07698747  1
  Al  Al21  1  0.77323934  0.78219744  0.82705655  1
  Al  Al22  1  0.90038762  0.85171410  0.54792573  1
  Al  Al23  1  0.43760349  0.76766571  0.29999140  1
  Al  Al24  1  0.55815052  0.87506855  0.07870688  1
  Al  Al25  1  0.22030758  0.86411764  0.55509904  1
  Al  Al26  1  0.78008372  0.75812045  0.29941826  1
  Al  Al27  1  0.89325734  0.87332741  0.07564437  1
  Gd  Gd28  1  0.87170534  0.21716367  0.61272622  1
  Gd  Gd29  1  0.20116015  0.20849576  0.55369929  1
  Gd  Gd30  1  0.78448282  0.09705526  0.34523171  1
  Gd  Gd31  1  0.54575509  0.20857155  0.64727407  1
  Gd  Gd32  1  0.89196840  0.54386292  0.08151367  1
  Gd  Gd33  1  0.10536950  0.76423225  0.79913540  1
  Gd  Gd34  1  0.45067743  0.75189038  0.84060261  1
  Gd  Gd35  1  0.57505404  0.84096601  0.55145648  1
  N  N36  1  0.22494180  0.20477839  0.33859139  1
  N  N37  1  0.10230774  0.10070296  0.12806197  1
  N  N38  1  0.89627716  0.19297564  0.87202284  1
  N  N39  1  0.77947949  0.06766790  0.56020657  1
  N  N40  1  0.52487286  0.22799717  0.30105570  1
  N  N41  1  0.43978572  0.09727374  0.09893735  1
  N  N42  1  0.21667208  0.20558480  0.88792393  1
  N  N43  1  0.12151795  0.05312964  0.65337295  1
  N  N44  1  0.91406280  0.22716518  0.39260871  1
  N  N45  1  0.77798641  0.10027416  0.09317729  1
  N  N46  1  0.55676344  0.19800716  0.86633175  1
  N  N47  1  0.43444089  0.07689490  0.61642214  1
  N  N48  1  0.21774166  0.53429373  0.36493556  1
  N  N49  1  0.14849249  0.41375455  0.12237443  1
  N  N50  1  0.88484847  0.53257706  0.84122184  1
  N  N51  1  0.75286598  0.49676733  0.56672532  1
  N  N52  1  0.56155251  0.53616656  0.31536224  1
  N  N53  1  0.45116410  0.43505346  0.07321057  1
  N  N54  1  0.23274327  0.51955579  0.88600721  1
  N  N55  1  0.11437409  0.44880299  0.64298108  1
  N  N56  1  0.89197327  0.53729610  0.30911798  1
  N  N57  1  0.75632712  0.41994369  0.05678605  1
  N  N58  1  0.57860804  0.48104841  0.80087437  1
  N  N59  1  0.44162271  0.44474018  0.54816998  1
  N  N60  1  0.21934990  0.87763732  0.36520744  1
  N  N61  1  0.11252203  0.75843776  0.13131142  1
  N  N62  1  0.87561166  0.87697514  0.89933683  1
  N  N63  1  0.80775276  0.76589133  0.65429387  1
  N  N64  1  0.55122827  0.87520413  0.33570728  1
  N  N65  1  0.44191188  0.76359030  0.11651651  1
  N  N66  1  0.20563119  0.89081931  0.90500156  1
  N  N67  1  0.11337837  0.75541261  0.58599569  1
  N  N68  1  0.90183149  0.83331056  0.37043438  1
  N  N69  1  0.76467591  0.79687038  0.12859205  1
  N  N70  1  0.57189332  0.87895770  0.89802276  1
  N  N71  1  0.41768137  0.75399437  0.63004285  1
