# generated using pymatgen
data_Gd2Al7N9
_symmetry_space_group_name_H-M   'P 1'
_cell_length_a   9.84806393
_cell_length_b   9.86734538
_cell_length_c   10.52611181
_cell_angle_alpha   89.48997076
_cell_angle_beta   89.68508594
_cell_angle_gamma   59.92927142
_symmetry_Int_Tables_number   1
_chemical_formula_structural   Gd2Al7N9
_chemical_formula_sum   'Gd8 Al28 N36'
_cell_volume   885.16109031
_cell_formula_units_Z   4
loop_
 _symmetry_equiv_pos_site_id
 _symmetry_equiv_pos_as_xyz
  1  'x, y, z'
loop_
 _atom_site_type_symbol
 _atom_site_label
 _atom_site_symmetry_multiplicity
 _atom_site_fract_x
 _atom_site_fract_y
 _atom_site_fract_z
 _atom_site_occupancy
  Al  Al0  1  0.11217481  0.09905165  0.28745577  1
  Al  Al1  1  0.22541139  0.20395635  0.05158915  1
  Al  Al2  1  0.77591809  0.09005720  0.81543059  1
  Al  Al3  1  0.43734340  0.09766746  0.27910318  1
  Al  Al4  1  0.55109327  0.21094514  0.04120783  1
  Al  Al5  1  0.11441563  0.09301785  0.81421697  1
  Al  Al6  1  0.88625952  0.20529729  0.04006685  1
  Al  Al7  1  0.44543027  0.09585159  0.81738646  1
  Al  Al8  1  0.11439954  0.42430733  0.29098642  1
  Al  Al9  1  0.23035554  0.53287308  0.05685478  1
  Al  Al10  1  0.76825942  0.42971191  0.80892347  1
  Al  Al11  1  0.89243923  0.54745903  0.63541625  1
  Al  Al12  1  0.43750043  0.42714916  0.29578863  1
  Al  Al13  1  0.55369227  0.52737317  0.05801844  1
  Al  Al14  1  0.12646369  0.42081362  0.81176075  1
  Al  Al15  1  0.21933745  0.54738528  0.54347246  1
  Al  Al16  1  0.77991227  0.42645091  0.29812362  1
  Al  Al17  1  0.44430306  0.42733063  0.81009640  1
  Al  Al18  1  0.54283653  0.54959627  0.54561042  1
  Al  Al19  1  0.11089911  0.75253031  0.30521399  1
  Al  Al20  1  0.21719749  0.87457302  0.06256251  1
  Al  Al21  1  0.77535256  0.77730424  0.81069524  1
  Al  Al22  1  0.90068242  0.85838764  0.54627499  1
  Al  Al23  1  0.44321350  0.75843258  0.29003171  1
  Al  Al24  1  0.55585162  0.88079379  0.05857202  1
  Al  Al25  1  0.22180606  0.86667104  0.53213515  1
  Al  Al26  1  0.78018771  0.75778579  0.28940878  1
  Al  Al27  1  0.88773011  0.87723418  0.04887497  1
  Gd  Gd28  1  0.88977181  0.20970795  0.57298537  1
  Gd  Gd29  1  0.21637714  0.20712606  0.54949771  1
  Gd  Gd30  1  0.77946649  0.09481841  0.28914161  1
  Gd  Gd31  1  0.55041560  0.21338679  0.56552119  1
  Gd  Gd32  1  0.88626850  0.53944651  0.06255385  1
  Gd  Gd33  1  0.10976680  0.76077086  0.79007652  1
  Gd  Gd34  1  0.44537842  0.76196866  0.80583089  1
  Gd  Gd35  1  0.57418071  0.85845408  0.53795598  1
  N  N36  1  0.22477762  0.20094730  0.33253577  1
  N  N37  1  0.10492233  0.09986799  0.10478762  1
  N  N38  1  0.88892845  0.20981953  0.85083751  1
  N  N39  1  0.79611450  0.05786541  0.62943422  1
  N  N40  1  0.52732954  0.21314744  0.34876611  1
  N  N41  1  0.44328651  0.09930623  0.09647391  1
  N  N42  1  0.22058028  0.20579027  0.86478220  1
  N  N43  1  0.13310557  0.05413681  0.63417414  1
  N  N44  1  0.90755772  0.21609655  0.35944264  1
  N  N45  1  0.77573582  0.09840871  0.07619214  1
  N  N46  1  0.55300595  0.20953716  0.85465034  1
  N  N47  1  0.44432083  0.08334288  0.63945935  1
  N  N48  1  0.22370001  0.53176805  0.35809397  1
  N  N49  1  0.14060617  0.41268185  0.11086045  1
  N  N50  1  0.89054876  0.53830263  0.83490837  1
  N  N51  1  0.74825987  0.47226139  0.62739866  1
  N  N52  1  0.55495131  0.53254107  0.35804921  1
  N  N53  1  0.44381522  0.42484446  0.11304290  1
  N  N54  1  0.23719334  0.51559997  0.87702064  1
  N  N55  1  0.11235812  0.45132303  0.62882259  1
  N  N56  1  0.88925184  0.53794369  0.31465104  1
  N  N57  1  0.76302365  0.40578871  0.11634163  1
  N  N58  1  0.56604602  0.51127006  0.87808830  1
  N  N59  1  0.42360756  0.46542696  0.62693672  1
  N  N60  1  0.21839094  0.87597764  0.34438743  1
  N  N61  1  0.10843486  0.75876280  0.11480234  1
  N  N62  1  0.87346461  0.88056060  0.87308252  1
  N  N63  1  0.80840248  0.75835099  0.63257699  1
  N  N64  1  0.55147585  0.87392987  0.32368484  1
  N  N65  1  0.44702303  0.75510038  0.10406146  1
  N  N66  1  0.20663202  0.89385132  0.88632457  1
  N  N67  1  0.11522862  0.76106627  0.57248951  1
  N  N68  1  0.89376175  0.84674262  0.36536831  1
  N  N69  1  0.76666953  0.79424453  0.11277475  1
  N  N70  1  0.56900047  0.88382996  0.87487080  1
  N  N71  1  0.42751597  0.75789269  0.58747951  1
