# generated using pymatgen
data_Gd2Al7N9
_symmetry_space_group_name_H-M   'P 1'
_cell_length_a   9.86030821
_cell_length_b   9.90097459
_cell_length_c   10.59975251
_cell_angle_alpha   88.99454376
_cell_angle_beta   89.56839917
_cell_angle_gamma   59.99168081
_symmetry_Int_Tables_number   1
_chemical_formula_structural   Gd2Al7N9
_chemical_formula_sum   'Gd8 Al28 N36'
_cell_volume   895.96502731
_cell_formula_units_Z   4
loop_
 _symmetry_equiv_pos_site_id
 _symmetry_equiv_pos_as_xyz
  1  'x, y, z'
loop_
 _atom_site_type_symbol
 _atom_site_label
 _atom_site_symmetry_multiplicity
 _atom_site_fract_x
 _atom_site_fract_y
 _atom_site_fract_z
 _atom_site_occupancy
  Al  Al0  1  0.11233934  0.10501359  0.29585757  1
  Al  Al1  1  0.22809731  0.20278049  0.05224482  1
  Al  Al2  1  0.76847858  0.09893975  0.88101064  1
  Al  Al3  1  0.44125714  0.09445656  0.28016127  1
  Al  Al4  1  0.54181230  0.21752167  0.05584348  1
  Al  Al5  1  0.11203380  0.09001668  0.81885262  1
  Al  Al6  1  0.89609448  0.20194204  0.04735587  1
  Al  Al7  1  0.44595076  0.09548998  0.81745876  1
  Al  Al8  1  0.12408681  0.41955682  0.29076098  1
  Al  Al9  1  0.23490280  0.53329595  0.05153989  1
  Al  Al10  1  0.76623498  0.42783325  0.87119825  1
  Al  Al11  1  0.88891284  0.54771927  0.64114467  1
  Al  Al12  1  0.43800205  0.42695522  0.29261526  1
  Al  Al13  1  0.56047380  0.53451110  0.12102800  1
  Al  Al14  1  0.12517811  0.41912059  0.81084733  1
  Al  Al15  1  0.21719641  0.54201769  0.54242527  1
  Al  Al16  1  0.78424061  0.44875999  0.37539805  1
  Al  Al17  1  0.44189321  0.42241554  0.80170229  1
  Al  Al18  1  0.54466502  0.54652054  0.61004080  1
  Al  Al19  1  0.11698426  0.74563127  0.30295096  1
  Al  Al20  1  0.21742704  0.87506431  0.06730532  1
  Al  Al21  1  0.77486581  0.78073276  0.81376266  1
  Al  Al22  1  0.90239716  0.84951573  0.53214831  1
  Al  Al23  1  0.44121959  0.76587583  0.29198346  1
  Al  Al24  1  0.55648706  0.88271668  0.05779839  1
  Al  Al25  1  0.21565181  0.86361841  0.53401950  1
  Al  Al26  1  0.78130770  0.75860877  0.28640020  1
  Al  Al27  1  0.89319861  0.87245272  0.05820607  1
  Gd  Gd28  1  0.87088596  0.21301613  0.59995395  1
  Gd  Gd29  1  0.20482025  0.19899466  0.55549287  1
  Gd  Gd30  1  0.79354627  0.09529959  0.31338946  1
  Gd  Gd31  1  0.53256408  0.20750230  0.54810954  1
  Gd  Gd32  1  0.89548461  0.54007055  0.07415957  1
  Gd  Gd33  1  0.10389186  0.76717699  0.78743776  1
  Gd  Gd34  1  0.43626841  0.77641600  0.81299985  1
  Gd  Gd35  1  0.57929418  0.84285073  0.54189769  1
  N  N36  1  0.23193658  0.19920418  0.33940047  1
  N  N37  1  0.10564716  0.10193469  0.11296553  1
  N  N38  1  0.88961402  0.20301074  0.85451667  1
  N  N39  1  0.78372442  0.06364614  0.54619366  1
  N  N40  1  0.53212042  0.21314267  0.33238447  1
  N  N41  1  0.44272949  0.09705181  0.09992617  1
  N  N42  1  0.21925747  0.20355467  0.86679405  1
  N  N43  1  0.12074354  0.04518222  0.64247365  1
  N  N44  1  0.91645980  0.22606121  0.37788802  1
  N  N45  1  0.77747371  0.10032419  0.07500921  1
  N  N46  1  0.54791202  0.21190468  0.86569382  1
  N  N47  1  0.43962361  0.07076743  0.64222105  1
  N  N48  1  0.22884859  0.52772620  0.35825094  1
  N  N49  1  0.15272194  0.40764914  0.11092083  1
  N  N50  1  0.88666750  0.53490300  0.83293256  1
  N  N51  1  0.75227150  0.49273247  0.55655573  1
  N  N52  1  0.56212899  0.53511391  0.30892783  1
  N  N53  1  0.44413501  0.43033772  0.10940733  1
  N  N54  1  0.23466641  0.51819290  0.87218345  1
  N  N55  1  0.11044171  0.44434451  0.62881554  1
  N  N56  1  0.89648610  0.53702450  0.30231019  1
  N  N57  1  0.75905948  0.41741564  0.05101556  1
  N  N58  1  0.56928638  0.51428389  0.80330438  1
  N  N59  1  0.42088706  0.45067464  0.61851601  1
  N  N60  1  0.21729501  0.87782291  0.34683905  1
  N  N61  1  0.11370700  0.75454728  0.11582517  1
  N  N62  1  0.87263592  0.88276543  0.87987142  1
  N  N63  1  0.81316234  0.76000444  0.63865108  1
  N  N64  1  0.55568018  0.87277113  0.32894974  1
  N  N65  1  0.44446225  0.76522594  0.10474665  1
  N  N66  1  0.19922574  0.89507690  0.89424855  1
  N  N67  1  0.11314735  0.75416624  0.57133275  1
  N  N68  1  0.90486604  0.83373714  0.35321859  1
  N  N69  1  0.76486464  0.79567080  0.11182706  1
  N  N70  1  0.57066053  0.88651381  0.87807466  1
  N  N71  1  0.41871731  0.75754177  0.59441474  1
