# generated using pymatgen
data_Gd2Al7N9
_symmetry_space_group_name_H-M   'P 1'
_cell_length_a   9.84661617
_cell_length_b   9.89076764
_cell_length_c   10.55238086
_cell_angle_alpha   88.92692187
_cell_angle_beta   89.72166975
_cell_angle_gamma   60.04831946
_symmetry_Int_Tables_number   1
_chemical_formula_structural   Gd2Al7N9
_chemical_formula_sum   'Gd8 Al28 N36'
_cell_volume   890.28147649
_cell_formula_units_Z   4
loop_
 _symmetry_equiv_pos_site_id
 _symmetry_equiv_pos_as_xyz
  1  'x, y, z'
loop_
 _atom_site_type_symbol
 _atom_site_label
 _atom_site_symmetry_multiplicity
 _atom_site_fract_x
 _atom_site_fract_y
 _atom_site_fract_z
 _atom_site_occupancy
  Al  Al0  1  0.11523083  0.09893806  0.29258399  1
  Al  Al1  1  0.22670802  0.20236111  0.05213451  1
  Al  Al2  1  0.76669019  0.10423857  0.88128640  1
  Al  Al3  1  0.43971994  0.09334870  0.27987394  1
  Al  Al4  1  0.54019108  0.21741443  0.05695130  1
  Al  Al5  1  0.11099279  0.09235451  0.81892157  1
  Al  Al6  1  0.89088990  0.20962197  0.05081393  1
  Al  Al7  1  0.44460522  0.09766837  0.81841396  1
  Al  Al8  1  0.12200499  0.41953670  0.29223324  1
  Al  Al9  1  0.23188282  0.53399175  0.05457201  1
  Al  Al10  1  0.76504211  0.43432428  0.81451075  1
  Al  Al11  1  0.89249232  0.54915761  0.64634796  1
  Al  Al12  1  0.44115187  0.42849682  0.29357837  1
  Al  Al13  1  0.55297358  0.53253154  0.05664918  1
  Al  Al14  1  0.12828747  0.42055505  0.81398058  1
  Al  Al15  1  0.22008226  0.54529083  0.54655370  1
  Al  Al16  1  0.78408617  0.42614853  0.30092194  1
  Al  Al17  1  0.44331690  0.42938766  0.80979492  1
  Al  Al18  1  0.54416749  0.55048130  0.54774741  1
  Al  Al19  1  0.11799917  0.74418964  0.30240628  1
  Al  Al20  1  0.21961320  0.87326624  0.06571997  1
  Al  Al21  1  0.77328416  0.78391691  0.81408059  1
  Al  Al22  1  0.90444411  0.84831179  0.53148162  1
  Al  Al23  1  0.44607919  0.75737410  0.29350698  1
  Al  Al24  1  0.55500793  0.87961032  0.05772248  1
  Al  Al25  1  0.21920915  0.86459601  0.53158857  1
  Al  Al26  1  0.78273942  0.75279568  0.28572602  1
  Al  Al27  1  0.89195550  0.87244903  0.05623206  1
  Gd  Gd28  1  0.87760960  0.20833679  0.58143508  1
  Gd  Gd29  1  0.20502556  0.20381637  0.55631806  1
  Gd  Gd30  1  0.78916726  0.08794980  0.30806176  1
  Gd  Gd31  1  0.53117971  0.21950240  0.55006399  1
  Gd  Gd32  1  0.89254806  0.53812678  0.06569173  1
  Gd  Gd33  1  0.10296000  0.76831350  0.78921515  1
  Gd  Gd34  1  0.43959378  0.76923052  0.80132088  1
  Gd  Gd35  1  0.57874410  0.85848729  0.54022950  1
  N  N36  1  0.23071646  0.19697656  0.33978625  1
  N  N37  1  0.10698799  0.09958392  0.10969621  1
  N  N38  1  0.88571716  0.21297096  0.85816734  1
  N  N39  1  0.77952382  0.06175035  0.54389471  1
  N  N40  1  0.52919239  0.21334803  0.33259289  1
  N  N41  1  0.44194635  0.09546978  0.09876439  1
  N  N42  1  0.21878782  0.20540848  0.86623278  1
  N  N43  1  0.12374930  0.04576531  0.64106401  1
  N  N44  1  0.91436917  0.21992597  0.36681962  1
  N  N45  1  0.77598049  0.10055509  0.07315847  1
  N  N46  1  0.54601578  0.21453818  0.86579589  1
  N  N47  1  0.43879156  0.08129837  0.64127931  1
  N  N48  1  0.23113443  0.52612654  0.36095080  1
  N  N49  1  0.14936507  0.40796851  0.11190789  1
  N  N50  1  0.89135060  0.53975108  0.83857877  1
  N  N51  1  0.74759815  0.47595941  0.63199553  1
  N  N52  1  0.55922661  0.53099109  0.35958689  1
  N  N53  1  0.44260325  0.43169652  0.11283562  1
  N  N54  1  0.23473390  0.52034700  0.87529212  1
  N  N55  1  0.11304771  0.44804947  0.63139667  1
  N  N56  1  0.89586633  0.53396334  0.30716419  1
  N  N57  1  0.76327379  0.40976568  0.11498715  1
  N  N58  1  0.56076034  0.51874647  0.87735850  1
  N  N59  1  0.42714304  0.46391679  0.62776046  1
  N  N60  1  0.21879378  0.87421899  0.34426708  1
  N  N61  1  0.11239968  0.75509407  0.11441906  1
  N  N62  1  0.87008600  0.88787442  0.87751610  1
  N  N63  1  0.81375647  0.75999110  0.63770800  1
  N  N64  1  0.55688872  0.87046202  0.32601720  1
  N  N65  1  0.44752077  0.75624141  0.10730078  1
  N  N66  1  0.20545715  0.89385062  0.89074995  1
  N  N67  1  0.11482752  0.75743165  0.57260096  1
  N  N68  1  0.90670146  0.82829727  0.35303409  1
  N  N69  1  0.76554995  0.79290343  0.10983444  1
  N  N70  1  0.56694859  0.88540055  0.87522105  1
  N  N71  1  0.42686360  0.76000866  0.58305201  1
