# generated using pymatgen
data_Gd2Al7N9
_symmetry_space_group_name_H-M   'P 1'
_cell_length_a   9.80514571
_cell_length_b   9.91402438
_cell_length_c   10.71011321
_cell_angle_alpha   89.20757345
_cell_angle_beta   89.26136760
_cell_angle_gamma   59.86187943
_symmetry_Int_Tables_number   1
_chemical_formula_structural   Gd2Al7N9
_chemical_formula_sum   'Gd8 Al28 N36'
_cell_volume   900.26586934
_cell_formula_units_Z   4
loop_
 _symmetry_equiv_pos_site_id
 _symmetry_equiv_pos_as_xyz
  1  'x, y, z'
loop_
 _atom_site_type_symbol
 _atom_site_label
 _atom_site_symmetry_multiplicity
 _atom_site_fract_x
 _atom_site_fract_y
 _atom_site_fract_z
 _atom_site_occupancy
  Al  Al0  1  0.10844555  0.09734190  0.32919632  1
  Al  Al1  1  0.22878608  0.20344427  0.14124448  1
  Al  Al2  1  0.76501491  0.09579835  0.92863453  1
  Al  Al3  1  0.44056451  0.10156322  0.38146639  1
  Al  Al4  1  0.54326687  0.21617338  0.14521644  1
  Al  Al5  1  0.12838471  0.08720941  0.84878334  1
  Al  Al6  1  0.89785678  0.20056251  0.08224319  1
  Al  Al7  1  0.44037002  0.09340407  0.92364513  1
  Al  Al8  1  0.11519924  0.43170996  0.31685841  1
  Al  Al9  1  0.24054944  0.54289235  0.15687616  1
  Al  Al10  1  0.77845029  0.41144825  0.90014866  1
  Al  Al11  1  0.88371849  0.54846031  0.66869512  1
  Al  Al12  1  0.44137819  0.43151032  0.39746220  1
  Al  Al13  1  0.56551246  0.52450281  0.15861149  1
  Al  Al14  1  0.13125153  0.41091431  0.82932349  1
  Al  Al15  1  0.22796976  0.53653958  0.63745481  1
  Al  Al16  1  0.78541855  0.44684400  0.41347185  1
  Al  Al17  1  0.45162203  0.41556120  0.90955978  1
  Al  Al18  1  0.54171913  0.53557641  0.65211586  1
  Al  Al19  1  0.11507789  0.75801340  0.34357201  1
  Al  Al20  1  0.21711046  0.88024308  0.09996525  1
  Al  Al21  1  0.77125174  0.79129620  0.83209344  1
  Al  Al22  1  0.90044544  0.85049466  0.56771747  1
  Al  Al23  1  0.44021841  0.75665130  0.32927826  1
  Al  Al24  1  0.55115182  0.88474417  0.16410551  1
  Al  Al25  1  0.21868209  0.86055342  0.58119300  1
  Al  Al26  1  0.79115385  0.75178192  0.32650506  1
  Al  Al27  1  0.89173904  0.87622318  0.09888940  1
  Gd  Gd28  1  0.85770625  0.21586270  0.65040987  1
  Gd  Gd29  1  0.16681611  0.21482888  0.55990037  1
  Gd  Gd30  1  0.78374273  0.10291936  0.36907845  1
  Gd  Gd31  1  0.52739048  0.19766897  0.66867247  1
  Gd  Gd32  1  0.89611284  0.54910472  0.08810041  1
  Gd  Gd33  1  0.10732825  0.78271852  0.82525150  1
  Gd  Gd34  1  0.46785859  0.74376307  0.88020044  1
  Gd  Gd35  1  0.56160378  0.84210258  0.59355931  1
  N  N36  1  0.22372412  0.20547962  0.33589586  1
  N  N37  1  0.10294606  0.09817476  0.15189247  1
  N  N38  1  0.90064273  0.18788558  0.89484934  1
  N  N39  1  0.76929655  0.06867855  0.58708650  1
  N  N40  1  0.52425054  0.22683912  0.32414573  1
  N  N41  1  0.44589260  0.08964692  0.10445698  1
  N  N42  1  0.22189636  0.20692505  0.88599212  1
  N  N43  1  0.11510876  0.04892056  0.67562398  1
  N  N44  1  0.92341289  0.22303720  0.42337231  1
  N  N45  1  0.77694275  0.10208319  0.11635941  1
  N  N46  1  0.55390075  0.19897516  0.88940690  1
  N  N47  1  0.42160225  0.09542864  0.55374327  1
  N  N48  1  0.23180826  0.53899122  0.34014526  1
  N  N49  1  0.14851842  0.41877737  0.13744118  1
  N  N50  1  0.88191385  0.53493133  0.85778330  1
  N  N51  1  0.74612591  0.49388556  0.58870597  1
  N  N52  1  0.56653068  0.52774353  0.33932737  1
  N  N53  1  0.44682404  0.43839355  0.09049192  1
  N  N54  1  0.25176698  0.51380213  0.83018508  1
  N  N55  1  0.10365841  0.43863440  0.64984767  1
  N  N56  1  0.89553092  0.53504541  0.33754962  1
  N  N57  1  0.76288795  0.41952555  0.07946117  1
  N  N58  1  0.58772605  0.47281553  0.82370157  1
  N  N59  1  0.43950130  0.43790192  0.57407887  1
  N  N60  1  0.22354846  0.87649507  0.39270784  1
  N  N61  1  0.10968819  0.77114385  0.15375904  1
  N  N62  1  0.87144602  0.87693908  0.92076637  1
  N  N63  1  0.81117610  0.75826491  0.66136272  1
  N  N64  1  0.55521043  0.86844712  0.35174130  1
  N  N65  1  0.44570501  0.76164245  0.14392721  1
  N  N66  1  0.21871858  0.89461201  0.92951327  1
  N  N67  1  0.11289486  0.75119527  0.60839689  1
  N  N68  1  0.90336003  0.83985505  0.39074359  1
  N  N69  1  0.76740217  0.79548361  0.15342708  1
  N  N70  1  0.55498213  0.90411089  0.83841312  1
  N  N71  1  0.40961382  0.74788080  0.66473416  1
