# generated using pymatgen
data_Gd2Al7N9
_symmetry_space_group_name_H-M   'P 1'
_cell_length_a   9.81368598
_cell_length_b   9.92156993
_cell_length_c   10.65553904
_cell_angle_alpha   89.54292259
_cell_angle_beta   89.42723589
_cell_angle_gamma   59.90557734
_symmetry_Int_Tables_number   1
_chemical_formula_structural   Gd2Al7N9
_chemical_formula_sum   'Gd8 Al28 N36'
_cell_volume   897.59486115
_cell_formula_units_Z   4
loop_
 _symmetry_equiv_pos_site_id
 _symmetry_equiv_pos_as_xyz
  1  'x, y, z'
loop_
 _atom_site_type_symbol
 _atom_site_label
 _atom_site_symmetry_multiplicity
 _atom_site_fract_x
 _atom_site_fract_y
 _atom_site_fract_z
 _atom_site_occupancy
  Al  Al0  1  0.11177967  0.10827083  0.30956842  1
  Al  Al1  1  0.22885427  0.20439221  0.06460549  1
  Al  Al2  1  0.76330627  0.09569066  0.89910454  1
  Al  Al3  1  0.43933097  0.09436812  0.29833664  1
  Al  Al4  1  0.54561494  0.21912082  0.13094868  1
  Al  Al5  1  0.11623314  0.08533370  0.82848726  1
  Al  Al6  1  0.89500548  0.20179422  0.05944720  1
  Al  Al7  1  0.43925614  0.08711633  0.82679117  1
  Al  Al8  1  0.12271867  0.42352779  0.29877296  1
  Al  Al9  1  0.23006112  0.53763019  0.06517406  1
  Al  Al10  1  0.77440424  0.41584226  0.87897669  1
  Al  Al11  1  0.88794139  0.55189787  0.65204904  1
  Al  Al12  1  0.44590773  0.43581280  0.37123765  1
  Al  Al13  1  0.56068339  0.52865005  0.13509391  1
  Al  Al14  1  0.12716098  0.41889064  0.82069271  1
  Al  Al15  1  0.21334130  0.54610141  0.54423646  1
  Al  Al16  1  0.78352511  0.45329686  0.38933250  1
  Al  Al17  1  0.45885218  0.40515778  0.88916652  1
  Al  Al18  1  0.54096330  0.54230876  0.62863360  1
  Al  Al19  1  0.11602036  0.74796968  0.31380370  1
  Al  Al20  1  0.21325661  0.88044565  0.07936962  1
  Al  Al21  1  0.77381037  0.78208449  0.82558789  1
  Al  Al22  1  0.89999396  0.85003493  0.54422379  1
  Al  Al23  1  0.44028164  0.76953024  0.29868742  1
  Al  Al24  1  0.55625018  0.88763704  0.06949355  1
  Al  Al25  1  0.21674332  0.86359384  0.55509210  1
  Al  Al26  1  0.77843098  0.76070888  0.30042186  1
  Al  Al27  1  0.89184555  0.87387682  0.07321984  1
  Gd  Gd28  1  0.86639698  0.21983493  0.61522258  1
  Gd  Gd29  1  0.19981062  0.20522893  0.56210529  1
  Gd  Gd30  1  0.79638770  0.09537757  0.33873335  1
  Gd  Gd31  1  0.54672531  0.20767393  0.62249013  1
  Gd  Gd32  1  0.89216924  0.54282171  0.08496500  1
  Gd  Gd33  1  0.10750956  0.76509396  0.79906218  1
  Gd  Gd34  1  0.45220136  0.74389923  0.85577640  1
  Gd  Gd35  1  0.56911267  0.83560135  0.56210254  1
  N  N36  1  0.22884477  0.20571988  0.34977565  1
  N  N37  1  0.10406387  0.10380834  0.12765779  1
  N  N38  1  0.89409178  0.19347087  0.87065008  1
  N  N39  1  0.78601790  0.06479556  0.55483848  1
  N  N40  1  0.53165376  0.22547502  0.31333350  1
  N  N41  1  0.44159481  0.09728552  0.11635933  1
  N  N42  1  0.21749815  0.20444192  0.87960733  1
  N  N43  1  0.11516856  0.05280594  0.65248411  1
  N  N44  1  0.91677445  0.23142439  0.39517729  1
  N  N45  1  0.77520045  0.10161365  0.09072828  1
  N  N46  1  0.55519072  0.19538891  0.84264431  1
  N  N47  1  0.43090812  0.07115819  0.64818078  1
  N  N48  1  0.22011348  0.53463281  0.36174455  1
  N  N49  1  0.15120660  0.41028703  0.12088077  1
  N  N50  1  0.88473919  0.53373001  0.84114447  1
  N  N51  1  0.74663732  0.50276397  0.56814121  1
  N  N52  1  0.56178566  0.53870245  0.31449023  1
  N  N53  1  0.45443887  0.42902513  0.07174994  1
  N  N54  1  0.23315789  0.51915549  0.88380199  1
  N  N55  1  0.11286937  0.44858477  0.63982641  1
  N  N56  1  0.89368433  0.53930716  0.31135689  1
  N  N57  1  0.75830246  0.41895519  0.05774856  1
  N  N58  1  0.58071645  0.47823683  0.80276312  1
  N  N59  1  0.43749029  0.45249303  0.54868939  1
  N  N60  1  0.22035041  0.87898584  0.36414833  1
  N  N61  1  0.11349450  0.75813505  0.12863086  1
  N  N62  1  0.87431265  0.87887276  0.89592617  1
  N  N63  1  0.80680431  0.76553410  0.65075222  1
  N  N64  1  0.55259995  0.87409188  0.34707338  1
  N  N65  1  0.44438928  0.76529530  0.11314871  1
  N  N66  1  0.20334754  0.89346403  0.90634903  1
  N  N67  1  0.11142115  0.75474959  0.58474036  1
  N  N68  1  0.90398991  0.83380879  0.36602387  1
  N  N69  1  0.76259516  0.79802068  0.12643890  1
  N  N70  1  0.56774483  0.88320013  0.88913677  1
  N  N71  1  0.40885667  0.75486100  0.64086113  1
