# generated using pymatgen
data_Gd2Al7N9
_symmetry_space_group_name_H-M   'P 1'
_cell_length_a   9.78292607
_cell_length_b   9.90183558
_cell_length_c   10.71478707
_cell_angle_alpha   89.48710007
_cell_angle_beta   89.29054345
_cell_angle_gamma   59.94279964
_symmetry_Int_Tables_number   1
_chemical_formula_structural   Gd2Al7N9
_chemical_formula_sum   'Gd8 Al28 N36'
_cell_volume   898.28171838
_cell_formula_units_Z   4
loop_
 _symmetry_equiv_pos_site_id
 _symmetry_equiv_pos_as_xyz
  1  'x, y, z'
loop_
 _atom_site_type_symbol
 _atom_site_label
 _atom_site_symmetry_multiplicity
 _atom_site_fract_x
 _atom_site_fract_y
 _atom_site_fract_z
 _atom_site_occupancy
  Al  Al0  1  0.10866157  0.09626406  0.33123539  1
  Al  Al1  1  0.23023686  0.20196771  0.14854682  1
  Al  Al2  1  0.76725317  0.09417546  0.92683473  1
  Al  Al3  1  0.44058804  0.10032073  0.38298298  1
  Al  Al4  1  0.54440869  0.21487624  0.14820164  1
  Al  Al5  1  0.12749467  0.08591142  0.84662224  1
  Al  Al6  1  0.89879175  0.19988375  0.08159849  1
  Al  Al7  1  0.43900887  0.09470669  0.92226964  1
  Al  Al8  1  0.11725869  0.43464605  0.31860698  1
  Al  Al9  1  0.23191987  0.54082536  0.08774837  1
  Al  Al10  1  0.77838909  0.41256977  0.90014313  1
  Al  Al11  1  0.88801885  0.54973021  0.67157498  1
  Al  Al12  1  0.44645448  0.42870074  0.39586270  1
  Al  Al13  1  0.56644001  0.52403245  0.16007207  1
  Al  Al14  1  0.13418601  0.41528473  0.83530358  1
  Al  Al15  1  0.21363871  0.54537548  0.56765513  1
  Al  Al16  1  0.78597961  0.44785716  0.41485342  1
  Al  Al17  1  0.46058329  0.41023446  0.91686031  1
  Al  Al18  1  0.54095461  0.53716425  0.65294796  1
  Al  Al19  1  0.11669322  0.75061525  0.33784301  1
  Al  Al20  1  0.21637671  0.87801729  0.09928664  1
  Al  Al21  1  0.77140520  0.79173226  0.83316879  1
  Al  Al22  1  0.89851550  0.85437691  0.56671738  1
  Al  Al23  1  0.43911867  0.75800248  0.32850147  1
  Al  Al24  1  0.55065650  0.88488586  0.16249369  1
  Al  Al25  1  0.21790737  0.86322866  0.58005757  1
  Al  Al26  1  0.78989430  0.75251731  0.32559211  1
  Al  Al27  1  0.89279231  0.87424061  0.09712980  1
  Gd  Gd28  1  0.85743774  0.21664225  0.64923118  1
  Gd  Gd29  1  0.16666475  0.22066860  0.56384976  1
  Gd  Gd30  1  0.78548572  0.10207355  0.36814722  1
  Gd  Gd31  1  0.52486486  0.20235501  0.66640518  1
  Gd  Gd32  1  0.89739131  0.54664965  0.09047985  1
  Gd  Gd33  1  0.11307530  0.76771565  0.82155924  1
  Gd  Gd34  1  0.46537918  0.74563164  0.88135388  1
  Gd  Gd35  1  0.56236126  0.84221718  0.59557198  1
  N  N36  1  0.22359277  0.20481735  0.33834645  1
  N  N37  1  0.10341087  0.09625432  0.15303679  1
  N  N38  1  0.89981810  0.18938075  0.89388357  1
  N  N39  1  0.76689999  0.07093674  0.58494117  1
  N  N40  1  0.52481434  0.22536787  0.32562168  1
  N  N41  1  0.44538259  0.09031000  0.10364679  1
  N  N42  1  0.22261201  0.20662806  0.87891232  1
  N  N43  1  0.11500718  0.05254533  0.67249182  1
  N  N44  1  0.92265221  0.22423569  0.42419948  1
  N  N45  1  0.77857758  0.10005339  0.11567955  1
  N  N46  1  0.55524493  0.19801059  0.88585764  1
  N  N47  1  0.42074523  0.09520059  0.55464620  1
  N  N48  1  0.22022413  0.53670433  0.38617498  1
  N  N49  1  0.15065967  0.41727554  0.14474449  1
  N  N50  1  0.88242354  0.53537259  0.85851168  1
  N  N51  1  0.74875821  0.49505270  0.59089770  1
  N  N52  1  0.56593999  0.52956811  0.33980918  1
  N  N53  1  0.45529632  0.43143589  0.09657902  1
  N  N54  1  0.23440608  0.52136843  0.90468087  1
  N  N55  1  0.11360784  0.44754742  0.65638825  1
  N  N56  1  0.89509681  0.53573415  0.33746725  1
  N  N57  1  0.76397243  0.41890897  0.07974347  1
  N  N58  1  0.58478326  0.47517369  0.82518757  1
  N  N59  1  0.44274723  0.43893226  0.57426752  1
  N  N60  1  0.22293656  0.87436083  0.39032254  1
  N  N61  1  0.11480515  0.75903010  0.15219384  1
  N  N62  1  0.87486680  0.87610381  0.91913142  1
  N  N63  1  0.81257589  0.75978681  0.66212327  1
  N  N64  1  0.55458071  0.86926668  0.35076034  1
  N  N65  1  0.44553356  0.76115324  0.14241163  1
  N  N66  1  0.21334589  0.89329921  0.92794924  1
  N  N67  1  0.11099965  0.75570950  0.60727780  1
  N  N68  1  0.90352182  0.83999160  0.38872200  1
  N  N69  1  0.76712149  0.79460557  0.15183966  1
  N  N70  1  0.55531009  0.90328169  0.83961507  1
  N  N71  1  0.40846539  0.74951663  0.66533553  1
