# generated using pymatgen
data_Gd2Al7N9
_symmetry_space_group_name_H-M   'P 1'
_cell_length_a   9.91145037
_cell_length_b   9.92785765
_cell_length_c   10.48878134
_cell_angle_alpha   88.73324952
_cell_angle_beta   89.86743536
_cell_angle_gamma   60.01114115
_symmetry_Int_Tables_number   1
_chemical_formula_structural   Gd2Al7N9
_chemical_formula_sum   'Gd8 Al28 N36'
_cell_volume   893.65297457
_cell_formula_units_Z   4
loop_
 _symmetry_equiv_pos_site_id
 _symmetry_equiv_pos_as_xyz
  1  'x, y, z'
loop_
 _atom_site_type_symbol
 _atom_site_label
 _atom_site_symmetry_multiplicity
 _atom_site_fract_x
 _atom_site_fract_y
 _atom_site_fract_z
 _atom_site_occupancy
  Al  Al0  1  0.11082159  0.10037128  0.38765424  1
  Al  Al1  1  0.21996881  0.21331873  0.15658128  1
  Al  Al2  1  0.77820134  0.10024220  0.93970723  1
  Al  Al3  1  0.42730203  0.11547276  0.38124704  1
  Al  Al4  1  0.53780830  0.21940124  0.13102555  1
  Al  Al5  1  0.10505738  0.10923175  0.93162661  1
  Al  Al6  1  0.88640250  0.21896034  0.16082294  1
  Al  Al7  1  0.44347773  0.09156187  0.92665108  1
  Al  Al8  1  0.10043804  0.43513907  0.39768678  1
  Al  Al9  1  0.22711757  0.53833343  0.15777369  1
  Al  Al10  1  0.77645297  0.40877080  0.90327778  1
  Al  Al11  1  0.89959395  0.53562013  0.65839304  1
  Al  Al12  1  0.43508073  0.43068181  0.39401950  1
  Al  Al13  1  0.55278509  0.53046197  0.15257126  1
  Al  Al14  1  0.13322426  0.40947268  0.90160129  1
  Al  Al15  1  0.23066665  0.52709864  0.63619068  1
  Al  Al16  1  0.77388426  0.44672271  0.39940954  1
  Al  Al17  1  0.44851437  0.41835105  0.90842843  1
  Al  Al18  1  0.54856038  0.53058320  0.64641736  1
  Al  Al19  1  0.12000463  0.74323939  0.38380760  1
  Al  Al20  1  0.21694826  0.87847073  0.10492209  1
  Al  Al21  1  0.77096029  0.79463887  0.82634707  1
  Al  Al22  1  0.90780401  0.85040830  0.57342549  1
  Al  Al23  1  0.43660726  0.75560684  0.32402684  1
  Al  Al24  1  0.54328242  0.88929162  0.16188440  1
  Al  Al25  1  0.23143428  0.85140924  0.56513123  1
  Al  Al26  1  0.78239909  0.75619541  0.32696458  1
  Al  Al27  1  0.88994586  0.88024320  0.13015253  1
  Gd  Gd28  1  0.89196942  0.20589563  0.65193260  1
  Gd  Gd29  1  0.23355456  0.19039269  0.65134624  1
  Gd  Gd30  1  0.76112943  0.10649859  0.37442139  1
  Gd  Gd31  1  0.56425824  0.18899114  0.68083809  1
  Gd  Gd32  1  0.88483059  0.54910680  0.10710447  1
  Gd  Gd33  1  0.11086589  0.75200720  0.88462486  1
  Gd  Gd34  1  0.45787528  0.75567352  0.86872213  1
  Gd  Gd35  1  0.57328378  0.83952843  0.58121562  1
  N  N36  1  0.21180684  0.21615462  0.34068003  1
  N  N37  1  0.10310276  0.11041762  0.11661993  1
  N  N38  1  0.89595887  0.19413187  0.87345299  1
  N  N39  1  0.79388053  0.06554398  0.59204831  1
  N  N40  1  0.51086181  0.23463122  0.31383634  1
  N  N41  1  0.43305956  0.09454867  0.10759182  1
  N  N42  1  0.22586496  0.19662593  0.87137898  1
  N  N43  1  0.12388651  0.06734822  0.56904404  1
  N  N44  1  0.89506504  0.23345124  0.34418617  1
  N  N45  1  0.78169751  0.10214608  0.12740726  1
  N  N46  1  0.55835598  0.20032880  0.91255155  1
  N  N47  1  0.45638011  0.09590503  0.55608637  1
  N  N48  1  0.22059244  0.53341075  0.33998181  1
  N  N49  1  0.14548058  0.41913994  0.08447985  1
  N  N50  1  0.89623187  0.52255429  0.85629459  1
  N  N51  1  0.75720912  0.47376939  0.58292897  1
  N  N52  1  0.55583937  0.53165793  0.33665148  1
  N  N53  1  0.43133780  0.44952368  0.08890606  1
  N  N54  1  0.25201768  0.48970512  0.81946023  1
  N  N55  1  0.10011056  0.44265011  0.58098221  1
  N  N56  1  0.88779432  0.54031202  0.33767097  1
  N  N57  1  0.75381917  0.42011039  0.08433921  1
  N  N58  1  0.57908183  0.48316704  0.82663497  1
  N  N59  1  0.44385750  0.43169222  0.57474831  1
  N  N60  1  0.22538979  0.86393900  0.37174810  1
  N  N61  1  0.10948302  0.75997937  0.12055068  1
  N  N62  1  0.86249769  0.89273310  0.90342338  1
  N  N63  1  0.81935291  0.74851271  0.65399650  1
  N  N64  1  0.54849242  0.87133997  0.35079156  1
  N  N65  1  0.44450138  0.76372484  0.13618187  1
  N  N66  1  0.21412338  0.89646861  0.92180281  1
  N  N67  1  0.12447875  0.74140635  0.58304108  1
  N  N68  1  0.90152500  0.84365303  0.37593580  1
  N  N69  1  0.75658062  0.80187369  0.14874994  1
  N  N70  1  0.55469796  0.91121983  0.82950324  1
  N  N71  1  0.42017184  0.74728424  0.64830839  1
