# generated using pymatgen
data_Gd2Al7N9
_symmetry_space_group_name_H-M   'P 1'
_cell_length_a   9.87647644
_cell_length_b   9.94013557
_cell_length_c   10.37253036
_cell_angle_alpha   89.81758046
_cell_angle_beta   90.09144914
_cell_angle_gamma   60.21752402
_symmetry_Int_Tables_number   1
_chemical_formula_structural   Gd2Al7N9
_chemical_formula_sum   'Gd8 Al28 N36'
_cell_volume   883.79663635
_cell_formula_units_Z   4
loop_
 _symmetry_equiv_pos_site_id
 _symmetry_equiv_pos_as_xyz
  1  'x, y, z'
loop_
 _atom_site_type_symbol
 _atom_site_label
 _atom_site_symmetry_multiplicity
 _atom_site_fract_x
 _atom_site_fract_y
 _atom_site_fract_z
 _atom_site_occupancy
  Al  Al0  1  0.11451691  0.09420172  0.38229568  1
  Al  Al1  1  0.22349543  0.20866823  0.15445348  1
  Al  Al2  1  0.78517159  0.08951290  0.92577856  1
  Al  Al3  1  0.43179526  0.11442575  0.37972836  1
  Al  Al4  1  0.54469420  0.21319272  0.12818131  1
  Al  Al5  1  0.10906436  0.10105350  0.92813805  1
  Al  Al6  1  0.88771027  0.21190942  0.15550194  1
  Al  Al7  1  0.44243353  0.08944310  0.92442246  1
  Al  Al8  1  0.10520001  0.43399475  0.39793529  1
  Al  Al9  1  0.22696699  0.53773193  0.15741007  1
  Al  Al10  1  0.77826308  0.40938341  0.90247724  1
  Al  Al11  1  0.88957391  0.54892274  0.64914828  1
  Al  Al12  1  0.43585986  0.43442973  0.39041293  1
  Al  Al13  1  0.55616663  0.52867415  0.15308077  1
  Al  Al14  1  0.13001074  0.41140429  0.90176403  1
  Al  Al15  1  0.22679868  0.53427371  0.63415249  1
  Al  Al16  1  0.77373429  0.44270845  0.40044804  1
  Al  Al17  1  0.45153206  0.41353491  0.91073743  1
  Al  Al18  1  0.55017524  0.53259629  0.64552513  1
  Al  Al19  1  0.11192113  0.75211216  0.38956795  1
  Al  Al20  1  0.21304488  0.87591743  0.13554267  1
  Al  Al21  1  0.76392603  0.78788297  0.89429606  1
  Al  Al22  1  0.89212736  0.86976070  0.64648008  1
  Al  Al23  1  0.44276545  0.75905049  0.32565179  1
  Al  Al24  1  0.55870979  0.88207504  0.15752070  1
  Al  Al25  1  0.22254025  0.85572356  0.60525032  1
  Al  Al26  1  0.79506236  0.74743972  0.40073208  1
  Al  Al27  1  0.89201258  0.86911818  0.15276117  1
  Gd  Gd28  1  0.89512093  0.20824453  0.64947466  1
  Gd  Gd29  1  0.22275670  0.20467432  0.64816131  1
  Gd  Gd30  1  0.76704602  0.09639119  0.37741516  1
  Gd  Gd31  1  0.55312117  0.21420147  0.67854041  1
  Gd  Gd32  1  0.88742041  0.54495284  0.13018258  1
  Gd  Gd33  1  0.11384425  0.74257441  0.89071449  1
  Gd  Gd34  1  0.45844278  0.74618924  0.88571625  1
  Gd  Gd35  1  0.55320517  0.86533214  0.61095062  1
  N  N36  1  0.21378761  0.21510033  0.34059445  1
  N  N37  1  0.10645865  0.10455179  0.11332762  1
  N  N38  1  0.89783955  0.19493875  0.87090520  1
  N  N39  1  0.78654456  0.07608569  0.59307078  1
  N  N40  1  0.51716507  0.23388258  0.31386278  1
  N  N41  1  0.43757742  0.08969846  0.10799805  1
  N  N42  1  0.22462254  0.19716598  0.87028933  1
  N  N43  1  0.13074879  0.06089391  0.56440526  1
  N  N44  1  0.89557351  0.22959372  0.34208587  1
  N  N45  1  0.78804906  0.08973762  0.11578459  1
  N  N46  1  0.56095671  0.19477168  0.91012449  1
  N  N47  1  0.44720959  0.11295475  0.55847683  1
  N  N48  1  0.21897597  0.53898755  0.34132688  1
  N  N49  1  0.14466482  0.41596654  0.08584304  1
  N  N50  1  0.88990514  0.53982321  0.85009408  1
  N  N51  1  0.75894588  0.46740816  0.58418215  1
  N  N52  1  0.55687928  0.53567980  0.33708077  1
  N  N53  1  0.43410517  0.44577873  0.09115110  1
  N  N54  1  0.25707352  0.48381388  0.81786991  1
  N  N55  1  0.09722928  0.45040070  0.58112370  1
  N  N56  1  0.88790720  0.54050585  0.34708445  1
  N  N57  1  0.75888034  0.41636771  0.08488881  1
  N  N58  1  0.58093056  0.47683325  0.82574600  1
  N  N59  1  0.43638649  0.44491487  0.57067665  1
  N  N60  1  0.21806078  0.86924989  0.33676514  1
  N  N61  1  0.10846077  0.75490807  0.10961975  1
  N  N62  1  0.86536566  0.89352957  0.83409919  1
  N  N63  1  0.80880759  0.75017906  0.58454723  1
  N  N64  1  0.56131003  0.87130852  0.34890698  1
  N  N65  1  0.45125672  0.75997799  0.13217271  1
  N  N66  1  0.21000735  0.89379354  0.89832117  1
  N  N67  1  0.10868515  0.75464523  0.59020945  1
  N  N68  1  0.90301836  0.84058728  0.33291509  1
  N  N69  1  0.75857441  0.79994832  0.07941542  1
  N  N70  1  0.55658254  0.89945867  0.83651963  1
  N  N71  1  0.42232944  0.74325911  0.65227734  1
