# generated using pymatgen
data_Gd2Al7N9
_symmetry_space_group_name_H-M   'P 1'
_cell_length_a   9.85222031
_cell_length_b   9.89641946
_cell_length_c   10.55320940
_cell_angle_alpha   88.91767001
_cell_angle_beta   89.62486189
_cell_angle_gamma   60.06867964
_symmetry_Int_Tables_number   1
_chemical_formula_structural   Gd2Al7N9
_chemical_formula_sum   'Gd8 Al28 N36'
_cell_volume   891.55399892
_cell_formula_units_Z   4
loop_
 _symmetry_equiv_pos_site_id
 _symmetry_equiv_pos_as_xyz
  1  'x, y, z'
loop_
 _atom_site_type_symbol
 _atom_site_label
 _atom_site_symmetry_multiplicity
 _atom_site_fract_x
 _atom_site_fract_y
 _atom_site_fract_z
 _atom_site_occupancy
  Al  Al0  1  0.11478787  0.09960320  0.29289932  1
  Al  Al1  1  0.22720670  0.20207699  0.05219758  1
  Al  Al2  1  0.76643090  0.10261777  0.88119192  1
  Al  Al3  1  0.43982570  0.09332896  0.27978113  1
  Al  Al4  1  0.54069039  0.21747086  0.05721131  1
  Al  Al5  1  0.11248445  0.09084071  0.81842292  1
  Al  Al6  1  0.89352703  0.20643049  0.04853874  1
  Al  Al7  1  0.44495057  0.09737215  0.81836995  1
  Al  Al8  1  0.12411499  0.41865514  0.29226433  1
  Al  Al9  1  0.23265565  0.53336704  0.05436616  1
  Al  Al10  1  0.76690869  0.43290398  0.83097578  1
  Al  Al11  1  0.89098058  0.54852737  0.64713526  1
  Al  Al12  1  0.44140886  0.42837652  0.29291999  1
  Al  Al13  1  0.55072414  0.53480825  0.05301643  1
  Al  Al14  1  0.12776139  0.42033033  0.81359582  1
  Al  Al15  1  0.21951046  0.54513880  0.54647378  1
  Al  Al16  1  0.78547412  0.43036393  0.31989973  1
  Al  Al17  1  0.44208339  0.42949016  0.80799232  1
  Al  Al18  1  0.54352270  0.55069851  0.54838572  1
  Al  Al19  1  0.11780011  0.74423051  0.30240923  1
  Al  Al20  1  0.21979162  0.87288625  0.06580810  1
  Al  Al21  1  0.77341011  0.78349691  0.81442622  1
  Al  Al22  1  0.90417846  0.84825517  0.53206052  1
  Al  Al23  1  0.44542217  0.75833448  0.29289083  1
  Al  Al24  1  0.55499741  0.87980469  0.05740790  1
  Al  Al25  1  0.21827516  0.86495910  0.53128278  1
  Al  Al26  1  0.78145520  0.75519570  0.28568767  1
  Al  Al27  1  0.89189589  0.87257041  0.05690665  1
  Gd  Gd28  1  0.87581048  0.20797258  0.58915588  1
  Gd  Gd29  1  0.20490021  0.20345854  0.55657681  1
  Gd  Gd30  1  0.78981399  0.08855051  0.30973140  1
  Gd  Gd31  1  0.53060991  0.21842329  0.54959180  1
  Gd  Gd32  1  0.89473796  0.53937815  0.06793885  1
  Gd  Gd33  1  0.10307594  0.76758928  0.78938280  1
  Gd  Gd34  1  0.43834542  0.77157947  0.79957615  1
  Gd  Gd35  1  0.57989747  0.85597619  0.54070575  1
  N  N36  1  0.23066348  0.19699632  0.34000422  1
  N  N37  1  0.10745428  0.09891954  0.11007849  1
  N  N38  1  0.88700929  0.20827346  0.85468108  1
  N  N39  1  0.77903781  0.06184262  0.54361646  1
  N  N40  1  0.52940067  0.21348344  0.33200286  1
  N  N41  1  0.44213868  0.09539907  0.09878994  1
  N  N42  1  0.21860180  0.20514194  0.86628682  1
  N  N43  1  0.12469664  0.04517405  0.64100158  1
  N  N44  1  0.91411209  0.22111471  0.36932755  1
  N  N45  1  0.77658171  0.10016930  0.07373570  1
  N  N46  1  0.54606031  0.21460739  0.86563445  1
  N  N47  1  0.43912440  0.07959241  0.64135731  1
  N  N48  1  0.23142892  0.52626609  0.36075570  1
  N  N49  1  0.15193979  0.40643209  0.11277766  1
  N  N50  1  0.89099153  0.53950053  0.83892721  1
  N  N51  1  0.74875416  0.47691043  0.62388558  1
  N  N52  1  0.55926296  0.53171869  0.35866990  1
  N  N53  1  0.44340037  0.43202546  0.11248373  1
  N  N54  1  0.23414823  0.51973424  0.87507865  1
  N  N55  1  0.11236864  0.44790745  0.63139492  1
  N  N56  1  0.89621309  0.53545056  0.30693068  1
  N  N57  1  0.76505279  0.41266707  0.08936055  1
  N  N58  1  0.55469634  0.52259940  0.87312388  1
  N  N59  1  0.42656984  0.46287985  0.62610108  1
  N  N60  1  0.21799935  0.87478084  0.34407688  1
  N  N61  1  0.11251382  0.75455043  0.11451825  1
  N  N62  1  0.87048311  0.88673500  0.87826429  1
  N  N63  1  0.81451114  0.75957968  0.63860509  1
  N  N64  1  0.55642879  0.87073157  0.32660413  1
  N  N65  1  0.44696955  0.75684468  0.10717011  1
  N  N66  1  0.20528205  0.89338225  0.89097679  1
  N  N67  1  0.11449630  0.75734796  0.57257760  1
  N  N68  1  0.90663176  0.82851884  0.35336001  1
  N  N69  1  0.76424660  0.79481436  0.11059099  1
  N  N70  1  0.56720413  0.88545820  0.87543216  1
  N  N71  1  0.42541053  0.76015576  0.58209776  1
