# generated using pymatgen
data_Gd2Al7N9
_symmetry_space_group_name_H-M   'P 1'
_cell_length_a   9.80465307
_cell_length_b   9.86581458
_cell_length_c   10.73117653
_cell_angle_alpha   89.52702363
_cell_angle_beta   89.34947249
_cell_angle_gamma   60.14677948
_symmetry_Int_Tables_number   1
_chemical_formula_structural   Gd2Al7N9
_chemical_formula_sum   'Gd8 Al28 N36'
_cell_volume   900.23033862
_cell_formula_units_Z   4
loop_
 _symmetry_equiv_pos_site_id
 _symmetry_equiv_pos_as_xyz
  1  'x, y, z'
loop_
 _atom_site_type_symbol
 _atom_site_label
 _atom_site_symmetry_multiplicity
 _atom_site_fract_x
 _atom_site_fract_y
 _atom_site_fract_z
 _atom_site_occupancy
  Al  Al0  1  0.10893657  0.10467623  0.30916345  1
  Al  Al1  1  0.22007538  0.20665289  0.07103716  1
  Al  Al2  1  0.76992991  0.09349620  0.90599146  1
  Al  Al3  1  0.43590757  0.09653759  0.29142353  1
  Al  Al4  1  0.54614649  0.22028381  0.12338094  1
  Al  Al5  1  0.11781450  0.08575800  0.82828328  1
  Al  Al6  1  0.89499127  0.20288484  0.06232773  1
  Al  Al7  1  0.44247367  0.09272765  0.87393131  1
  Al  Al8  1  0.11978187  0.42455971  0.29820699  1
  Al  Al9  1  0.22789187  0.53999434  0.06676048  1
  Al  Al10  1  0.77302375  0.41564029  0.87844900  1
  Al  Al11  1  0.88899742  0.55070631  0.65283165  1
  Al  Al12  1  0.44397027  0.43229624  0.37066974  1
  Al  Al13  1  0.55952216  0.53081138  0.13642926  1
  Al  Al14  1  0.12779146  0.41732643  0.82118075  1
  Al  Al15  1  0.21521852  0.54496552  0.54542460  1
  Al  Al16  1  0.78271312  0.45088892  0.38761165  1
  Al  Al17  1  0.45723840  0.41325847  0.89576082  1
  Al  Al18  1  0.54505691  0.54023800  0.62238960  1
  Al  Al19  1  0.11428082  0.74895692  0.31623286  1
  Al  Al20  1  0.21480704  0.87762854  0.07733166  1
  Al  Al21  1  0.77394172  0.78092247  0.82697660  1
  Al  Al22  1  0.90077107  0.85149317  0.54732897  1
  Al  Al23  1  0.43812496  0.76834220  0.30057569  1
  Al  Al24  1  0.55692923  0.87821777  0.07600291  1
  Al  Al25  1  0.22022824  0.86365637  0.55454024  1
  Al  Al26  1  0.77905294  0.75869109  0.30008660  1
  Al  Al27  1  0.89284492  0.87310444  0.07598688  1
  Gd  Gd28  1  0.87266735  0.21728035  0.61071397  1
  Gd  Gd29  1  0.20722258  0.20559656  0.55778770  1
  Gd  Gd30  1  0.78439776  0.09701708  0.34353196  1
  Gd  Gd31  1  0.54865519  0.21165694  0.64767704  1
  Gd  Gd32  1  0.89187296  0.54362874  0.08246499  1
  Gd  Gd33  1  0.10494132  0.76407148  0.79951391  1
  Gd  Gd34  1  0.45045277  0.75004754  0.84159081  1
  Gd  Gd35  1  0.57371704  0.84444792  0.55564069  1
  N  N36  1  0.22605489  0.20443363  0.34275319  1
  N  N37  1  0.10302738  0.10126578  0.12810694  1
  N  N38  1  0.89604386  0.19267197  0.87184808  1
  N  N39  1  0.77962494  0.06730116  0.55968718  1
  N  N40  1  0.52489486  0.22831404  0.30161342  1
  N  N41  1  0.43955408  0.09658817  0.10368190  1
  N  N42  1  0.21555934  0.20571342  0.88634767  1
  N  N43  1  0.12163179  0.05346033  0.65241266  1
  N  N44  1  0.91324448  0.22773601  0.39171407  1
  N  N45  1  0.77817211  0.10018830  0.09336741  1
  N  N46  1  0.55680527  0.19775281  0.86645631  1
  N  N47  1  0.43549798  0.07607057  0.64014962  1
  N  N48  1  0.21756703  0.53462598  0.36441146  1
  N  N49  1  0.14888036  0.41262929  0.12243212  1
  N  N50  1  0.88476836  0.53242853  0.84085046  1
  N  N51  1  0.75227449  0.49725207  0.56639134  1
  N  N52  1  0.56140373  0.53677747  0.31534007  1
  N  N53  1  0.45092541  0.43514141  0.07333934  1
  N  N54  1  0.23247073  0.51934436  0.88581754  1
  N  N55  1  0.11395270  0.44836918  0.64220487  1
  N  N56  1  0.89200076  0.53750141  0.30917638  1
  N  N57  1  0.75605097  0.42000780  0.05656755  1
  N  N58  1  0.57862083  0.47986680  0.80004945  1
  N  N59  1  0.44052806  0.44604802  0.54762498  1
  N  N60  1  0.21935525  0.87772077  0.36520317  1
  N  N61  1  0.11241109  0.75848203  0.13096901  1
  N  N62  1  0.87526272  0.87665396  0.89941419  1
  N  N63  1  0.80875400  0.76510325  0.65382925  1
  N  N64  1  0.55089931  0.87620653  0.33984439  1
  N  N65  1  0.44213550  0.76429955  0.11642716  1
  N  N66  1  0.20530901  0.89097848  0.90479408  1
  N  N67  1  0.11330394  0.75538112  0.58620896  1
  N  N68  1  0.90206577  0.83331499  0.36997499  1
  N  N69  1  0.76340761  0.79730013  0.12872287  1
  N  N70  1  0.57172359  0.87807689  0.89628541  1
  N  N71  1  0.41755316  0.75446670  0.63006746  1
