# generated using pymatgen
data_Gd2Al7N9
_symmetry_space_group_name_H-M   'P 1'
_cell_length_a   9.84701272
_cell_length_b   9.86816725
_cell_length_c   10.51426916
_cell_angle_alpha   89.49787542
_cell_angle_beta   89.70014706
_cell_angle_gamma   59.94004359
_symmetry_Int_Tables_number   1
_chemical_formula_structural   Gd2Al7N9
_chemical_formula_sum   'Gd8 Al28 N36'
_cell_volume   884.24199717
_cell_formula_units_Z   4
loop_
 _symmetry_equiv_pos_site_id
 _symmetry_equiv_pos_as_xyz
  1  'x, y, z'
loop_
 _atom_site_type_symbol
 _atom_site_label
 _atom_site_symmetry_multiplicity
 _atom_site_fract_x
 _atom_site_fract_y
 _atom_site_fract_z
 _atom_site_occupancy
  Al  Al0  1  0.11223000  0.09909409  0.28769809  1
  Al  Al1  1  0.22499811  0.20447868  0.05162374  1
  Al  Al2  1  0.77575470  0.08964231  0.81596217  1
  Al  Al3  1  0.43742488  0.09769387  0.27906966  1
  Al  Al4  1  0.55102601  0.21104588  0.04113607  1
  Al  Al5  1  0.11440557  0.09314084  0.81455661  1
  Al  Al6  1  0.88620001  0.20569662  0.03992924  1
  Al  Al7  1  0.44532060  0.09601456  0.81779090  1
  Al  Al8  1  0.11453368  0.42443833  0.29231147  1
  Al  Al9  1  0.23002263  0.53284286  0.05677868  1
  Al  Al10  1  0.76929084  0.43077322  0.80797574  1
  Al  Al11  1  0.89240414  0.54732777  0.62573274  1
  Al  Al12  1  0.43758660  0.42724998  0.29562414  1
  Al  Al13  1  0.55413057  0.52724976  0.05805559  1
  Al  Al14  1  0.12406110  0.42210088  0.81066989  1
  Al  Al15  1  0.21973095  0.54739688  0.54338767  1
  Al  Al16  1  0.77998732  0.42647678  0.29965898  1
  Al  Al17  1  0.44426672  0.42735176  0.81029237  1
  Al  Al18  1  0.54272179  0.54962890  0.54552811  1
  Al  Al19  1  0.11104657  0.75264621  0.30511220  1
  Al  Al20  1  0.21714485  0.87470032  0.06293456  1
  Al  Al21  1  0.77662617  0.77459765  0.80964533  1
  Al  Al22  1  0.90071217  0.85858276  0.54615509  1
  Al  Al23  1  0.44333627  0.75843029  0.29012455  1
  Al  Al24  1  0.55619548  0.88058242  0.05842992  1
  Al  Al25  1  0.22189650  0.86635905  0.53230027  1
  Al  Al26  1  0.78023765  0.75792242  0.29070487  1
  Al  Al27  1  0.88769967  0.87680796  0.04879223  1
  Gd  Gd28  1  0.89003650  0.20864773  0.57383284  1
  Gd  Gd29  1  0.21635321  0.20646428  0.54976068  1
  Gd  Gd30  1  0.77963149  0.09506630  0.28886927  1
  Gd  Gd31  1  0.55041230  0.21358463  0.56549408  1
  Gd  Gd32  1  0.88612355  0.53951481  0.06242395  1
  Gd  Gd33  1  0.10985982  0.76100429  0.79040690  1
  Gd  Gd34  1  0.44522341  0.76195767  0.80636424  1
  Gd  Gd35  1  0.57285087  0.85967268  0.53842572  1
  N  N36  1  0.22505475  0.20078476  0.33283460  1
  N  N37  1  0.10477796  0.10011066  0.10493250  1
  N  N38  1  0.88881516  0.21030685  0.85044738  1
  N  N39  1  0.79584952  0.05737512  0.62975757  1
  N  N40  1  0.52749180  0.21322789  0.34846951  1
  N  N41  1  0.44320115  0.09928800  0.09619669  1
  N  N42  1  0.21995742  0.20658098  0.86456474  1
  N  N43  1  0.13342809  0.05331394  0.63454949  1
  N  N44  1  0.90787825  0.21578999  0.36011860  1
  N  N45  1  0.77590953  0.09828850  0.07556481  1
  N  N46  1  0.55291310  0.20963511  0.85474332  1
  N  N47  1  0.44395770  0.08424835  0.63976798  1
  N  N48  1  0.22402899  0.53199848  0.35808522  1
  N  N49  1  0.13995264  0.41310529  0.11197475  1
  N  N50  1  0.89038248  0.53857142  0.83602364  1
  N  N51  1  0.74872501  0.47196368  0.62592536  1
  N  N52  1  0.55471759  0.53268999  0.35809552  1
  N  N53  1  0.44377903  0.42494612  0.11270077  1
  N  N54  1  0.23659147  0.51540400  0.87664877  1
  N  N55  1  0.11191766  0.45133726  0.62721786  1
  N  N56  1  0.88924006  0.53818662  0.32044351  1
  N  N57  1  0.76335468  0.40589104  0.11754360  1
  N  N58  1  0.56695458  0.51093902  0.87783686  1
  N  N59  1  0.42368330  0.46542247  0.62700859  1
  N  N60  1  0.21857927  0.87594715  0.34436197  1
  N  N61  1  0.10846189  0.75872524  0.11469984  1
  N  N62  1  0.87324945  0.87960282  0.87275913  1
  N  N63  1  0.80828709  0.75779960  0.63097401  1
  N  N64  1  0.55132872  0.87415973  0.32406451  1
  N  N65  1  0.44722107  0.75506429  0.10401754  1
  N  N66  1  0.20650434  0.89414444  0.88673597  1
  N  N67  1  0.11522670  0.76092585  0.57265302  1
  N  N68  1  0.89411761  0.84727036  0.36520316  1
  N  N69  1  0.76691188  0.79374133  0.11378500  1
  N  N70  1  0.56967968  0.88336863  0.87441528  1
  N  N71  1  0.42750663  0.75767416  0.58781474  1
