# generated using pymatgen
data_Gd2Al7N9
_symmetry_space_group_name_H-M   'P 1'
_cell_length_a   9.77497234
_cell_length_b   9.89459494
_cell_length_c   10.75864753
_cell_angle_alpha   89.30644493
_cell_angle_beta   89.16602517
_cell_angle_gamma   59.88965818
_symmetry_Int_Tables_number   1
_chemical_formula_structural   Gd2Al7N9
_chemical_formula_sum   'Gd8 Al28 N36'
_cell_volume   900.04704290
_cell_formula_units_Z   4
loop_
 _symmetry_equiv_pos_site_id
 _symmetry_equiv_pos_as_xyz
  1  'x, y, z'
loop_
 _atom_site_type_symbol
 _atom_site_label
 _atom_site_symmetry_multiplicity
 _atom_site_fract_x
 _atom_site_fract_y
 _atom_site_fract_z
 _atom_site_occupancy
  Al  Al0  1  0.10815314  0.09701484  0.32994268  1
  Al  Al1  1  0.22950519  0.20365390  0.15143808  1
  Al  Al2  1  0.76745997  0.09466184  0.92312570  1
  Al  Al3  1  0.44243169  0.09692304  0.37729319  1
  Al  Al4  1  0.54463324  0.21638807  0.14992637  1
  Al  Al5  1  0.12618102  0.08684030  0.84320186  1
  Al  Al6  1  0.89844076  0.19998904  0.07846205  1
  Al  Al7  1  0.43840565  0.09855398  0.92634795  1
  Al  Al8  1  0.11596345  0.43689275  0.31713555  1
  Al  Al9  1  0.23183252  0.53970725  0.08284011  1
  Al  Al10  1  0.77819127  0.41358598  0.89797542  1
  Al  Al11  1  0.88627510  0.55369958  0.67256772  1
  Al  Al12  1  0.44659630  0.43000461  0.39459240  1
  Al  Al13  1  0.56472303  0.52377511  0.15591079  1
  Al  Al14  1  0.13408663  0.41464778  0.83312803  1
  Al  Al15  1  0.21319795  0.54701368  0.56598799  1
  Al  Al16  1  0.78558778  0.44903738  0.41093768  1
  Al  Al17  1  0.46198029  0.40750315  0.91224215  1
  Al  Al18  1  0.54123833  0.53812991  0.65009600  1
  Al  Al19  1  0.11545292  0.75006186  0.33468494  1
  Al  Al20  1  0.21447269  0.87884425  0.09571548  1
  Al  Al21  1  0.77044982  0.78915610  0.84076912  1
  Al  Al22  1  0.89612791  0.85494262  0.56665640  1
  Al  Al23  1  0.43773289  0.76123003  0.31826748  1
  Al  Al24  1  0.55339469  0.88228515  0.13186081  1
  Al  Al25  1  0.21718195  0.86487337  0.57685114  1
  Al  Al26  1  0.78643808  0.75569202  0.31762832  1
  Al  Al27  1  0.89435469  0.87432417  0.09264599  1
  Gd  Gd28  1  0.85759821  0.21915260  0.64528751  1
  Gd  Gd29  1  0.17117145  0.21984015  0.56317953  1
  Gd  Gd30  1  0.78815782  0.10057106  0.36587855  1
  Gd  Gd31  1  0.52756351  0.19885263  0.65917964  1
  Gd  Gd32  1  0.89682821  0.54508521  0.09039492  1
  Gd  Gd33  1  0.11218288  0.76686067  0.81934012  1
  Gd  Gd34  1  0.45932306  0.74539770  0.87560375  1
  Gd  Gd35  1  0.57172547  0.82631497  0.56842566  1
  N  N36  1  0.22278484  0.20617846  0.33816750  1
  N  N37  1  0.10293069  0.09744483  0.15167912  1
  N  N38  1  0.89954128  0.19088220  0.89109808  1
  N  N39  1  0.76982291  0.07201214  0.58051435  1
  N  N40  1  0.52654296  0.22571583  0.32638592  1
  N  N41  1  0.44220666  0.09907808  0.10598297  1
  N  N42  1  0.22670941  0.20356095  0.87176015  1
  N  N43  1  0.11445743  0.05413374  0.66929666  1
  N  N44  1  0.92204160  0.22605864  0.42225109  1
  N  N45  1  0.77779842  0.10052649  0.11210343  1
  N  N46  1  0.55656506  0.19563135  0.87663030  1
  N  N47  1  0.42663017  0.08515695  0.55097137  1
  N  N48  1  0.21977247  0.53689279  0.38575300  1
  N  N49  1  0.14975373  0.41851231  0.14380016  1
  N  N50  1  0.88579955  0.53346066  0.85731854  1
  N  N51  1  0.74837046  0.49954784  0.58699873  1
  N  N52  1  0.56447001  0.53116229  0.33556108  1
  N  N53  1  0.45581313  0.42939040  0.09191920  1
  N  N54  1  0.23481355  0.51973858  0.90281477  1
  N  N55  1  0.11163151  0.45112852  0.65472086  1
  N  N56  1  0.89296655  0.53774711  0.33238876  1
  N  N57  1  0.76243921  0.41876208  0.07647199  1
  N  N58  1  0.58548609  0.47506110  0.82138086  1
  N  N59  1  0.44283555  0.43981640  0.57256524  1
  N  N60  1  0.22183196  0.87469450  0.38665502  1
  N  N61  1  0.11489430  0.75817375  0.14958952  1
  N  N62  1  0.87795068  0.87692138  0.91601562  1
  N  N63  1  0.80007780  0.76920483  0.66719851  1
  N  N64  1  0.55437738  0.86822099  0.34321858  1
  N  N65  1  0.44320462  0.76029024  0.13613961  1
  N  N66  1  0.20803953  0.89527425  0.92521140  1
  N  N67  1  0.10954296  0.75725323  0.60617641  1
  N  N68  1  0.90181904  0.83770407  0.38858366  1
  N  N69  1  0.76955142  0.79454132  0.14669347  1
  N  N70  1  0.56673913  0.88678707  0.89644071  1
  N  N71  1  0.41146880  0.75295707  0.65889969  1
