# generated using pymatgen
data_Gd2Al7N9
_symmetry_space_group_name_H-M   'P 1'
_cell_length_a   9.86170302
_cell_length_b   9.90248122
_cell_length_c   10.59328642
_cell_angle_alpha   89.00225593
_cell_angle_beta   89.55911993
_cell_angle_gamma   59.99259963
_symmetry_Int_Tables_number   1
_chemical_formula_structural   Gd2Al7N9
_chemical_formula_sum   'Gd8 Al28 N36'
_cell_volume   895.69211938
_cell_formula_units_Z   4
loop_
 _symmetry_equiv_pos_site_id
 _symmetry_equiv_pos_as_xyz
  1  'x, y, z'
loop_
 _atom_site_type_symbol
 _atom_site_label
 _atom_site_symmetry_multiplicity
 _atom_site_fract_x
 _atom_site_fract_y
 _atom_site_fract_z
 _atom_site_occupancy
  Al  Al0  1  0.11245975  0.10483853  0.29578914  1
  Al  Al1  1  0.22816721  0.20265938  0.05225883  1
  Al  Al2  1  0.76835843  0.09905304  0.88098745  1
  Al  Al3  1  0.44130557  0.09441160  0.28017208  1
  Al  Al4  1  0.54177487  0.21745317  0.05576965  1
  Al  Al5  1  0.11226927  0.08979082  0.81899403  1
  Al  Al6  1  0.89641616  0.20161004  0.04761706  1
  Al  Al7  1  0.44592257  0.09527064  0.81760832  1
  Al  Al8  1  0.12424236  0.41949414  0.29083033  1
  Al  Al9  1  0.23494409  0.53320201  0.05149537  1
  Al  Al10  1  0.76594375  0.42793286  0.87199724  1
  Al  Al11  1  0.88887896  0.54773987  0.64136184  1
  Al  Al12  1  0.43803753  0.42693743  0.29285061  1
  Al  Al13  1  0.56002942  0.53470519  0.11988202  1
  Al  Al14  1  0.12525574  0.41898681  0.81093594  1
  Al  Al15  1  0.21704454  0.54207841  0.54248944  1
  Al  Al16  1  0.78497752  0.44829817  0.37510626  1
  Al  Al17  1  0.44224490  0.42300314  0.80200874  1
  Al  Al18  1  0.54334653  0.54755252  0.60321486  1
  Al  Al19  1  0.11693740  0.74564040  0.30288266  1
  Al  Al20  1  0.21775365  0.87476925  0.06724957  1
  Al  Al21  1  0.77480073  0.78071271  0.81393467  1
  Al  Al22  1  0.90251786  0.84948881  0.53227552  1
  Al  Al23  1  0.44119485  0.76575062  0.29244086  1
  Al  Al24  1  0.55647370  0.88246533  0.05772125  1
  Al  Al25  1  0.21492149  0.86423680  0.53368243  1
  Al  Al26  1  0.78130465  0.75865757  0.28641982  1
  Al  Al27  1  0.89311616  0.87249468  0.05823166  1
  Gd  Gd28  1  0.87075745  0.21308463  0.60034341  1
  Gd  Gd29  1  0.20476860  0.19899295  0.55547971  1
  Gd  Gd30  1  0.79350743  0.09533273  0.31343712  1
  Gd  Gd31  1  0.53263005  0.20756199  0.54841945  1
  Gd  Gd32  1  0.89580103  0.54008586  0.07417030  1
  Gd  Gd33  1  0.10392071  0.76707243  0.78778617  1
  Gd  Gd34  1  0.43656307  0.77578156  0.81155000  1
  Gd  Gd35  1  0.57955007  0.84362477  0.54179888  1
  N  N36  1  0.23196183  0.19912995  0.33938104  1
  N  N37  1  0.10597432  0.10158049  0.11290255  1
  N  N38  1  0.88963120  0.20303140  0.85462302  1
  N  N39  1  0.78374148  0.06363430  0.54635746  1
  N  N40  1  0.53208894  0.21309084  0.33261312  1
  N  N41  1  0.44279709  0.09690510  0.09985136  1
  N  N42  1  0.21923159  0.20350785  0.86677724  1
  N  N43  1  0.12063666  0.04523843  0.64246329  1
  N  N44  1  0.91667208  0.22586626  0.37795034  1
  N  N45  1  0.77743519  0.10030704  0.07507205  1
  N  N46  1  0.54780091  0.21183481  0.86545299  1
  N  N47  1  0.43946289  0.07097189  0.64219824  1
  N  N48  1  0.22879778  0.52775585  0.35834326  1
  N  N49  1  0.15294992  0.40747741  0.11098021  1
  N  N50  1  0.88661434  0.53478427  0.83303138  1
  N  N51  1  0.75252404  0.49257615  0.55635797  1
  N  N52  1  0.56145918  0.53519692  0.31084034  1
  N  N53  1  0.44411929  0.43022894  0.10968375  1
  N  N54  1  0.23460240  0.51802735  0.87208353  1
  N  N55  1  0.11047332  0.44434168  0.62880584  1
  N  N56  1  0.89669345  0.53711836  0.30241444  1
  N  N57  1  0.76003518  0.41686822  0.05233086  1
  N  N58  1  0.56761790  0.51539886  0.80767136  1
  N  N59  1  0.42135426  0.45110082  0.61824028  1
  N  N60  1  0.21693445  0.87795357  0.34668312  1
  N  N61  1  0.11369902  0.75444989  0.11571887  1
  N  N62  1  0.87251686  0.88288177  0.87985611  1
  N  N63  1  0.81332938  0.75989351  0.63872814  1
  N  N64  1  0.55573999  0.87281658  0.32896788  1
  N  N65  1  0.44460754  0.76491247  0.10534870  1
  N  N66  1  0.19978306  0.89472670  0.89411376  1
  N  N67  1  0.11322178  0.75416625  0.57150917  1
  N  N68  1  0.90484904  0.83379520  0.35326266  1
  N  N69  1  0.76481416  0.79569963  0.11181175  1
  N  N70  1  0.57054197  0.88616122  0.87795154  1
  N  N71  1  0.41856164  0.75823624  0.59253763  1
