# generated using pymatgen
data_Gd2Al7N9
_symmetry_space_group_name_H-M   'P 1'
_cell_length_a   9.78651047
_cell_length_b   9.89760624
_cell_length_c   10.71666847
_cell_angle_alpha   89.43775194
_cell_angle_beta   89.46742475
_cell_angle_gamma   59.88466698
_symmetry_Int_Tables_number   1
_chemical_formula_structural   Gd2Al7N9
_chemical_formula_sum   'Gd8 Al28 N36'
_cell_volume   897.87547251
_cell_formula_units_Z   4
loop_
 _symmetry_equiv_pos_site_id
 _symmetry_equiv_pos_as_xyz
  1  'x, y, z'
loop_
 _atom_site_type_symbol
 _atom_site_label
 _atom_site_symmetry_multiplicity
 _atom_site_fract_x
 _atom_site_fract_y
 _atom_site_fract_z
 _atom_site_occupancy
  Al  Al0  1  0.11099569  0.09785088  0.32719371  1
  Al  Al1  1  0.22486769  0.20430491  0.12048752  1
  Al  Al2  1  0.76520920  0.09522586  0.92632578  1
  Al  Al3  1  0.43854251  0.10157588  0.38117915  1
  Al  Al4  1  0.54342669  0.21532565  0.15055164  1
  Al  Al5  1  0.12563611  0.08700221  0.85043667  1
  Al  Al6  1  0.89635562  0.19958368  0.08158083  1
  Al  Al7  1  0.44337952  0.09354119  0.92342618  1
  Al  Al8  1  0.12094936  0.42944379  0.31490061  1
  Al  Al9  1  0.23045751  0.54112150  0.08547825  1
  Al  Al10  1  0.77694527  0.41359990  0.90104117  1
  Al  Al11  1  0.89040841  0.54826290  0.67441409  1
  Al  Al12  1  0.44683554  0.42821465  0.39706704  1
  Al  Al13  1  0.56450009  0.52393646  0.16036564  1
  Al  Al14  1  0.13262066  0.41483740  0.84265271  1
  Al  Al15  1  0.21542523  0.54423679  0.57013899  1
  Al  Al16  1  0.78731349  0.44690625  0.41445777  1
  Al  Al17  1  0.46029281  0.41121704  0.91627990  1
  Al  Al18  1  0.54291759  0.53749730  0.65279004  1
  Al  Al19  1  0.11784674  0.74811596  0.33720530  1
  Al  Al20  1  0.21573849  0.87657525  0.09892735  1
  Al  Al21  1  0.77046479  0.79227413  0.83314697  1
  Al  Al22  1  0.90114917  0.85253717  0.56650177  1
  Al  Al23  1  0.43856341  0.75777970  0.32904913  1
  Al  Al24  1  0.54913855  0.88594502  0.16418320  1
  Al  Al25  1  0.21882426  0.86507809  0.58055061  1
  Al  Al26  1  0.79056713  0.75186343  0.32628475  1
  Al  Al27  1  0.89131529  0.87435158  0.09708416  1
  Gd  Gd28  1  0.86009142  0.21584052  0.64887598  1
  Gd  Gd29  1  0.16439473  0.22486327  0.55854299  1
  Gd  Gd30  1  0.78846112  0.10039567  0.36756467  1
  Gd  Gd31  1  0.52844554  0.20050537  0.66320544  1
  Gd  Gd32  1  0.89235152  0.54784508  0.09492480  1
  Gd  Gd33  1  0.11042055  0.76742373  0.82250747  1
  Gd  Gd34  1  0.46397514  0.74793731  0.87922382  1
  Gd  Gd35  1  0.56401286  0.84322513  0.59363982  1
  N  N36  1  0.22366794  0.20515511  0.33716000  1
  N  N37  1  0.10211535  0.09552717  0.14986062  1
  N  N38  1  0.89781791  0.18998267  0.89331445  1
  N  N39  1  0.77077882  0.06905066  0.58394741  1
  N  N40  1  0.52663326  0.22479250  0.32736888  1
  N  N41  1  0.44783050  0.09015493  0.10366539  1
  N  N42  1  0.21618370  0.20865834  0.90532747  1
  N  N43  1  0.11918907  0.05660684  0.67434549  1
  N  N44  1  0.92471461  0.22332851  0.42304404  1
  N  N45  1  0.77664687  0.10022360  0.11512075  1
  N  N46  1  0.55376860  0.19981728  0.88209300  1
  N  N47  1  0.41948452  0.09650896  0.55390505  1
  N  N48  1  0.22013651  0.53414946  0.38799940  1
  N  N49  1  0.14805042  0.41885209  0.14114878  1
  N  N50  1  0.88160446  0.53600626  0.86097778  1
  N  N51  1  0.75217084  0.49315323  0.59147379  1
  N  N52  1  0.56581303  0.52920038  0.34021764  1
  N  N53  1  0.45420960  0.43081078  0.09637287  1
  N  N54  1  0.23412979  0.52182569  0.90535549  1
  N  N55  1  0.11768663  0.44371192  0.66302635  1
  N  N56  1  0.89650525  0.53421465  0.33613227  1
  N  N57  1  0.76158989  0.41800629  0.08010147  1
  N  N58  1  0.58320271  0.47825907  0.82592191  1
  N  N59  1  0.44435967  0.43920130  0.57518115  1
  N  N60  1  0.22238829  0.87429619  0.38961580  1
  N  N61  1  0.11416794  0.75801737  0.15146935  1
  N  N62  1  0.87258118  0.87725373  0.91945016  1
  N  N63  1  0.81540677  0.75834631  0.66285519  1
  N  N64  1  0.55479503  0.86856470  0.35146912  1
  N  N65  1  0.44472943  0.76138162  0.14267109  1
  N  N66  1  0.21245989  0.89176361  0.92734899  1
  N  N67  1  0.11331473  0.75566225  0.60882577  1
  N  N68  1  0.90535924  0.83786103  0.38907418  1
  N  N69  1  0.76543611  0.79608859  0.15287776  1
  N  N70  1  0.55391478  0.90606924  0.83672220  1
  N  N71  1  0.41134003  0.75027434  0.66308011  1
