# generated using pymatgen
data_Gd2Al7N9
_symmetry_space_group_name_H-M   'P 1'
_cell_length_a   9.83137514
_cell_length_b   9.91045066
_cell_length_c   10.63429223
_cell_angle_alpha   89.13347375
_cell_angle_beta   89.59281234
_cell_angle_gamma   59.99989187
_symmetry_Int_Tables_number   1
_chemical_formula_structural   Gd2Al7N9
_chemical_formula_sum   'Gd8 Al28 N36'
_cell_volume   897.21534291
_cell_formula_units_Z   4
loop_
 _symmetry_equiv_pos_site_id
 _symmetry_equiv_pos_as_xyz
  1  'x, y, z'
loop_
 _atom_site_type_symbol
 _atom_site_label
 _atom_site_symmetry_multiplicity
 _atom_site_fract_x
 _atom_site_fract_y
 _atom_site_fract_z
 _atom_site_occupancy
  Al  Al0  1  0.11315205  0.10652037  0.30544293  1
  Al  Al1  1  0.22755639  0.20411147  0.05891458  1
  Al  Al2  1  0.77030718  0.09623703  0.88892904  1
  Al  Al3  1  0.44179645  0.09417866  0.28758736  1
  Al  Al4  1  0.54287722  0.21658132  0.06414307  1
  Al  Al5  1  0.11586503  0.08727168  0.82363790  1
  Al  Al6  1  0.89785108  0.20056424  0.05378928  1
  Al  Al7  1  0.44436622  0.09443753  0.82185766  1
  Al  Al8  1  0.12357677  0.42104352  0.29757767  1
  Al  Al9  1  0.23510761  0.53418282  0.05838958  1
  Al  Al10  1  0.77461667  0.42016066  0.87714805  1
  Al  Al11  1  0.88543703  0.55073516  0.64708294  1
  Al  Al12  1  0.43826761  0.42784855  0.29728476  1
  Al  Al13  1  0.56415117  0.53161573  0.12898388  1
  Al  Al14  1  0.12387147  0.42079135  0.81729471  1
  Al  Al15  1  0.21618014  0.54281603  0.54957592  1
  Al  Al16  1  0.78180563  0.45173553  0.38406803  1
  Al  Al17  1  0.44363682  0.41370021  0.80854688  1
  Al  Al18  1  0.54340382  0.54495220  0.63117296  1
  Al  Al19  1  0.11864570  0.74602041  0.31314078  1
  Al  Al20  1  0.21412825  0.87849710  0.07550867  1
  Al  Al21  1  0.77545995  0.78162877  0.81947557  1
  Al  Al22  1  0.89867540  0.85176937  0.53858967  1
  Al  Al23  1  0.44270226  0.76716796  0.29542299  1
  Al  Al24  1  0.55842932  0.88643074  0.06397240  1
  Al  Al25  1  0.21724754  0.86338939  0.54766033  1
  Al  Al26  1  0.78018001  0.76015786  0.29580698  1
  Al  Al27  1  0.89519033  0.87175384  0.06571224  1
  Gd  Gd28  1  0.86538778  0.21637280  0.60789848  1
  Gd  Gd29  1  0.19940100  0.20362667  0.56199743  1
  Gd  Gd30  1  0.79635811  0.09511880  0.31988611  1
  Gd  Gd31  1  0.52892777  0.20870708  0.54856813  1
  Gd  Gd32  1  0.89410696  0.54212194  0.08221292  1
  Gd  Gd33  1  0.10876436  0.76631872  0.79209367  1
  Gd  Gd34  1  0.44822575  0.75516332  0.84828608  1
  Gd  Gd35  1  0.56859420  0.84128019  0.55688985  1
  N  N36  1  0.23235651  0.20175014  0.34725911  1
  N  N37  1  0.10599206  0.10230080  0.12286142  1
  N  N38  1  0.89441802  0.19789996  0.86320058  1
  N  N39  1  0.78083393  0.06588486  0.55136491  1
  N  N40  1  0.53436110  0.21378484  0.33339288  1
  N  N41  1  0.44186329  0.09763771  0.10813507  1
  N  N42  1  0.21823035  0.20511258  0.87389800  1
  N  N43  1  0.11587053  0.04971654  0.64802950  1
  N  N44  1  0.91612415  0.22872152  0.38714804  1
  N  N45  1  0.77912096  0.09933408  0.08183123  1
  N  N46  1  0.54881941  0.20692547  0.87503326  1
  N  N47  1  0.43535876  0.07622436  0.64700154  1
  N  N48  1  0.23009119  0.52756676  0.36555984  1
  N  N49  1  0.15198245  0.40916344  0.11794635  1
  N  N50  1  0.88548562  0.53613563  0.83907723  1
  N  N51  1  0.74585423  0.49811973  0.56385057  1
  N  N52  1  0.56275979  0.53702357  0.31214385  1
  N  N53  1  0.44499412  0.43089742  0.11484213  1
  N  N54  1  0.23564013  0.51843008  0.87953537  1
  N  N55  1  0.10707946  0.44801376  0.63598775  1
  N  N56  1  0.89532643  0.53826232  0.30938574  1
  N  N57  1  0.76093714  0.41650787  0.05584906  1
  N  N58  1  0.58090904  0.49495918  0.80797245  1
  N  N59  1  0.41897934  0.44827510  0.62689927  1
  N  N60  1  0.22243587  0.87726836  0.35803780  1
  N  N61  1  0.11521151  0.75534843  0.12527519  1
  N  N62  1  0.87650739  0.87953586  0.88727942  1
  N  N63  1  0.80712084  0.76352571  0.64417719  1
  N  N64  1  0.55476253  0.87306714  0.34031995  1
  N  N65  1  0.44656919  0.76501394  0.10744426  1
  N  N66  1  0.19984748  0.89557541  0.90259538  1
  N  N67  1  0.11093983  0.75536369  0.57670565  1
  N  N68  1  0.90542009  0.83452399  0.36039001  1
  N  N69  1  0.76479965  0.79764568  0.12095852  1
  N  N70  1  0.57075401  0.88702374  0.88379766  1
  N  N71  1  0.41086531  0.75711041  0.62958759  1
