# generated using pymatgen
data_Gd2Al7N9
_symmetry_space_group_name_H-M   'P 1'
_cell_length_a   9.84998011
_cell_length_b   9.90829860
_cell_length_c   10.56364833
_cell_angle_alpha   89.42711594
_cell_angle_beta   89.73406320
_cell_angle_gamma   59.96215168
_symmetry_Int_Tables_number   1
_chemical_formula_structural   Gd2Al7N9
_chemical_formula_sum   'Gd8 Al28 N36'
_cell_volume   892.46562861
_cell_formula_units_Z   4
loop_
 _symmetry_equiv_pos_site_id
 _symmetry_equiv_pos_as_xyz
  1  'x, y, z'
loop_
 _atom_site_type_symbol
 _atom_site_label
 _atom_site_symmetry_multiplicity
 _atom_site_fract_x
 _atom_site_fract_y
 _atom_site_fract_z
 _atom_site_occupancy
  Al  Al0  1  0.10560628  0.10803831  0.33857204  1
  Al  Al1  1  0.22487932  0.21459875  0.15670553  1
  Al  Al2  1  0.76661738  0.09706056  0.92769945  1
  Al  Al3  1  0.43682809  0.10611881  0.38423938  1
  Al  Al4  1  0.54036852  0.21710705  0.13936411  1
  Al  Al5  1  0.12263780  0.08373677  0.85163396  1
  Al  Al6  1  0.89510889  0.20378172  0.08560691  1
  Al  Al7  1  0.44124973  0.08960846  0.91809155  1
  Al  Al8  1  0.10176850  0.44395214  0.39590247  1
  Al  Al9  1  0.23051069  0.53751518  0.15277909  1
  Al  Al10  1  0.78040258  0.41298793  0.89820449  1
  Al  Al11  1  0.89846085  0.54374670  0.66159465  1
  Al  Al12  1  0.43832595  0.43159623  0.39372218  1
  Al  Al13  1  0.55666749  0.52797799  0.15659329  1
  Al  Al14  1  0.13552949  0.41139718  0.89464376  1
  Al  Al15  1  0.22816003  0.53062795  0.63334137  1
  Al  Al16  1  0.77797691  0.45227488  0.41202817  1
  Al  Al17  1  0.44857558  0.41639828  0.90585671  1
  Al  Al18  1  0.54272411  0.53611864  0.64933002  1
  Al  Al19  1  0.11438428  0.75613460  0.34205608  1
  Al  Al20  1  0.21261900  0.88369974  0.10394283  1
  Al  Al21  1  0.77835436  0.78323082  0.83722652  1
  Al  Al22  1  0.90602945  0.84831936  0.56676113  1
  Al  Al23  1  0.43625855  0.76054850  0.32848086  1
  Al  Al24  1  0.54542583  0.88829866  0.15983938  1
  Al  Al25  1  0.22202426  0.85544052  0.57778281  1
  Al  Al26  1  0.78369402  0.75975283  0.32574828  1
  Al  Al27  1  0.89093766  0.87550122  0.09764168  1
  Gd  Gd28  1  0.86656639  0.21740963  0.63993282  1
  Gd  Gd29  1  0.20504749  0.19477587  0.61778318  1
  Gd  Gd30  1  0.78274627  0.10245529  0.36284392  1
  Gd  Gd31  1  0.54506635  0.19516861  0.66766271  1
  Gd  Gd32  1  0.88989700  0.54323749  0.11346085  1
  Gd  Gd33  1  0.10530166  0.78381465  0.82036619  1
  Gd  Gd34  1  0.46469817  0.74296630  0.88219225  1
  Gd  Gd35  1  0.57650825  0.82817079  0.59262171  1
  N  N36  1  0.21812566  0.21961416  0.34334676  1
  N  N37  1  0.10084550  0.10546107  0.15544890  1
  N  N38  1  0.90101217  0.19027339  0.89652777  1
  N  N39  1  0.78030727  0.06613581  0.58567798  1
  N  N40  1  0.52327723  0.22673896  0.32164483  1
  N  N41  1  0.43557857  0.09479424  0.10202621  1
  N  N42  1  0.23100360  0.19944933  0.84644656  1
  N  N43  1  0.11126736  0.03525577  0.67838088  1
  N  N44  1  0.91194891  0.23072642  0.41831274  1
  N  N45  1  0.77611648  0.10299304  0.11704521  1
  N  N46  1  0.55398915  0.19798362  0.89165644  1
  N  N47  1  0.44283117  0.08439940  0.55807998  1
  N  N48  1  0.22570701  0.53446267  0.33572800  1
  N  N49  1  0.15048633  0.41471029  0.07918589  1
  N  N50  1  0.89841162  0.52271050  0.85582633  1
  N  N51  1  0.74353066  0.50321845  0.58804251  1
  N  N52  1  0.55997345  0.53223746  0.33875180  1
  N  N53  1  0.43900721  0.44151724  0.08872223  1
  N  N54  1  0.24651281  0.50742876  0.82207400  1
  N  N55  1  0.09593171  0.45252766  0.57780248  1
  N  N56  1  0.88973179  0.54089422  0.33614627  1
  N  N57  1  0.75427049  0.42242779  0.07920202  1
  N  N58  1  0.58722476  0.47229686  0.82284763  1
  N  N59  1  0.44079449  0.43676464  0.57209111  1
  N  N60  1  0.22119619  0.87947759  0.39040605  1
  N  N61  1  0.10708608  0.77016424  0.15289808  1
  N  N62  1  0.87341048  0.87958054  0.91872411  1
  N  N63  1  0.82103304  0.75539501  0.66523111  1
  N  N64  1  0.55141392  0.87216348  0.35021826  1
  N  N65  1  0.44179043  0.76387871  0.14205204  1
  N  N66  1  0.21632238  0.89405198  0.93157030  1
  N  N67  1  0.11903328  0.74514051  0.60234037  1
  N  N68  1  0.90304438  0.83902812  0.38850587  1
  N  N69  1  0.76125223  0.79944834  0.14918464  1
  N  N70  1  0.56306566  0.89335366  0.84514867  1
  N  N71  1  0.41253415  0.74873551  0.66197226  1
