# generated using pymatgen
data_Gd2Al7N9
_symmetry_space_group_name_H-M   'P 1'
_cell_length_a   9.79918434
_cell_length_b   9.86367532
_cell_length_c   10.71523153
_cell_angle_alpha   89.79765014
_cell_angle_beta   89.47585760
_cell_angle_gamma   60.20321018
_symmetry_Int_Tables_number   1
_chemical_formula_structural   Gd2Al7N9
_chemical_formula_sum   'Gd8 Al28 N36'
_cell_volume   898.72759599
_cell_formula_units_Z   4
loop_
 _symmetry_equiv_pos_site_id
 _symmetry_equiv_pos_as_xyz
  1  'x, y, z'
loop_
 _atom_site_type_symbol
 _atom_site_label
 _atom_site_symmetry_multiplicity
 _atom_site_fract_x
 _atom_site_fract_y
 _atom_site_fract_z
 _atom_site_occupancy
  Al  Al0  1  0.11061910  0.10720007  0.30924323  1
  Al  Al1  1  0.22722433  0.20354214  0.06433970  1
  Al  Al2  1  0.76696036  0.09164293  0.90462958  1
  Al  Al3  1  0.43687283  0.09618376  0.29468667  1
  Al  Al4  1  0.54444820  0.21833554  0.12485979  1
  Al  Al5  1  0.11727723  0.08371229  0.82686671  1
  Al  Al6  1  0.89568868  0.20167439  0.06057309  1
  Al  Al7  1  0.44038262  0.08539847  0.83334227  1
  Al  Al8  1  0.12094508  0.42369097  0.29763846  1
  Al  Al9  1  0.22789279  0.53889988  0.06593093  1
  Al  Al10  1  0.77444556  0.41154196  0.87636487  1
  Al  Al11  1  0.88871596  0.55168917  0.65044628  1
  Al  Al12  1  0.44372119  0.43505749  0.36912663  1
  Al  Al13  1  0.55956840  0.53024742  0.13522380  1
  Al  Al14  1  0.12648055  0.41697335  0.82012897  1
  Al  Al15  1  0.21326778  0.54748740  0.54268121  1
  Al  Al16  1  0.78125898  0.45426484  0.38590127  1
  Al  Al17  1  0.45755370  0.40588515  0.89436152  1
  Al  Al18  1  0.54281335  0.54337895  0.62304221  1
  Al  Al19  1  0.11432946  0.75006811  0.31447512  1
  Al  Al20  1  0.21312819  0.87960718  0.07732076  1
  Al  Al21  1  0.77377914  0.77874500  0.82623759  1
  Al  Al22  1  0.90009608  0.85348804  0.54513386  1
  Al  Al23  1  0.43927331  0.77050552  0.29959564  1
  Al  Al24  1  0.55493486  0.88468314  0.06915663  1
  Al  Al25  1  0.22013978  0.86397286  0.55493891  1
  Al  Al26  1  0.77669045  0.76107682  0.30052206  1
  Al  Al27  1  0.89169076  0.87249283  0.07570643  1
  Gd  Gd28  1  0.87433983  0.22061570  0.60709988  1
  Gd  Gd29  1  0.21299211  0.20428243  0.56188033  1
  Gd  Gd30  1  0.78717013  0.09802869  0.33956020  1
  Gd  Gd31  1  0.55321540  0.21900109  0.64339628  1
  Gd  Gd32  1  0.89144192  0.54282004  0.08372054  1
  Gd  Gd33  1  0.10425416  0.76247939  0.79868047  1
  Gd  Gd34  1  0.45236288  0.73866643  0.85282243  1
  Gd  Gd35  1  0.57165944  0.84372656  0.56353330  1
  N  N36  1  0.22739326  0.20604794  0.34902392  1
  N  N37  1  0.10427129  0.10269841  0.12725663  1
  N  N38  1  0.89632640  0.18929781  0.87114475  1
  N  N39  1  0.78203941  0.06933972  0.55733999  1
  N  N40  1  0.52669081  0.22901327  0.30504083  1
  N  N41  1  0.43952408  0.09518011  0.11398491  1
  N  N42  1  0.21713472  0.20318880  0.88043893  1
  N  N43  1  0.12196657  0.05583553  0.64984713  1
  N  N44  1  0.91306665  0.23132178  0.38995673  1
  N  N45  1  0.77728594  0.10007710  0.09281039  1
  N  N46  1  0.55538717  0.19233118  0.86132900  1
  N  N47  1  0.43959605  0.07851356  0.65451063  1
  N  N48  1  0.21741527  0.53622280  0.36177653  1
  N  N49  1  0.14996472  0.41008947  0.12075684  1
  N  N50  1  0.88400991  0.53103850  0.83847757  1
  N  N51  1  0.74811057  0.50301248  0.56440825  1
  N  N52  1  0.56106920  0.53907824  0.31352783  1
  N  N53  1  0.45143938  0.43290392  0.07225892  1
  N  N54  1  0.23249946  0.51807291  0.88468124  1
  N  N55  1  0.11306436  0.44948750  0.64005302  1
  N  N56  1  0.89232356  0.53917692  0.30821440  1
  N  N57  1  0.75560271  0.41949539  0.05447643  1
  N  N58  1  0.58151935  0.47001716  0.79617471  1
  N  N59  1  0.43739724  0.45210150  0.54550932  1
  N  N60  1  0.22042446  0.87872501  0.36477528  1
  N  N61  1  0.11210819  0.75856342  0.12969681  1
  N  N62  1  0.87461078  0.87444001  0.89940129  1
  N  N63  1  0.81006526  0.76568952  0.65252143  1
  N  N64  1  0.55128844  0.87646926  0.34838939  1
  N  N65  1  0.44266578  0.76541232  0.11389491  1
  N  N66  1  0.20413955  0.89021224  0.90405238  1
  N  N67  1  0.11197045  0.75705545  0.58500015  1
  N  N68  1  0.90213213  0.83504955  0.36778424  1
  N  N69  1  0.76016218  0.79824392  0.12783829  1
  N  N70  1  0.56794697  0.87789789  0.88937367  1
  N  N71  1  0.41369410  0.75653789  0.63869487  1
