# generated using pymatgen
data_Gd2Al7N9
_symmetry_space_group_name_H-M   'P 1'
_cell_length_a   9.79571443
_cell_length_b   9.91248664
_cell_length_c   10.69379248
_cell_angle_alpha   89.42406799
_cell_angle_beta   89.17924973
_cell_angle_gamma   59.92683860
_symmetry_Int_Tables_number   1
_chemical_formula_structural   Gd2Al7N9
_chemical_formula_sum   'Gd8 Al28 N36'
_cell_volume   898.49055328
_cell_formula_units_Z   4
loop_
 _symmetry_equiv_pos_site_id
 _symmetry_equiv_pos_as_xyz
  1  'x, y, z'
loop_
 _atom_site_type_symbol
 _atom_site_label
 _atom_site_symmetry_multiplicity
 _atom_site_fract_x
 _atom_site_fract_y
 _atom_site_fract_z
 _atom_site_occupancy
  Al  Al0  1  0.10782134  0.09707942  0.33100754  1
  Al  Al1  1  0.23092468  0.20154782  0.14892908  1
  Al  Al2  1  0.76808859  0.09331453  0.92745910  1
  Al  Al3  1  0.44137796  0.10045106  0.38316417  1
  Al  Al4  1  0.54576881  0.21337797  0.14514435  1
  Al  Al5  1  0.12782545  0.08473311  0.84706561  1
  Al  Al6  1  0.89905926  0.20062607  0.08160050  1
  Al  Al7  1  0.43891156  0.09406363  0.92235279  1
  Al  Al8  1  0.11338462  0.43218352  0.32085221  1
  Al  Al9  1  0.23879224  0.54244716  0.13987289  1
  Al  Al10  1  0.77825846  0.41192223  0.89923724  1
  Al  Al11  1  0.88523783  0.54934093  0.66872612  1
  Al  Al12  1  0.44826890  0.42835764  0.39407177  1
  Al  Al13  1  0.56876839  0.52469021  0.15951939  1
  Al  Al14  1  0.13679468  0.41342343  0.82745097  1
  Al  Al15  1  0.21521590  0.54275299  0.57309555  1
  Al  Al16  1  0.78510109  0.44776967  0.41501743  1
  Al  Al17  1  0.45262767  0.41392662  0.91639901  1
  Al  Al18  1  0.53915227  0.53666976  0.65323369  1
  Al  Al19  1  0.11362198  0.75890024  0.34508093  1
  Al  Al20  1  0.21710901  0.87928975  0.09978624  1
  Al  Al21  1  0.77185709  0.79124204  0.83287493  1
  Al  Al22  1  0.89587322  0.85585753  0.56735722  1
  Al  Al23  1  0.43995682  0.75808967  0.32895344  1
  Al  Al24  1  0.55169586  0.88410001  0.16255706  1
  Al  Al25  1  0.21824431  0.86238994  0.58020556  1
  Al  Al26  1  0.78980164  0.75224083  0.32579047  1
  Al  Al27  1  0.89333740  0.87454162  0.09811523  1
  Gd  Gd28  1  0.85673127  0.21671391  0.65038028  1
  Gd  Gd29  1  0.16845963  0.21441099  0.56412612  1
  Gd  Gd30  1  0.78334035  0.10359288  0.36861424  1
  Gd  Gd31  1  0.52184009  0.20513189  0.67015824  1
  Gd  Gd32  1  0.90089760  0.54750225  0.08480994  1
  Gd  Gd33  1  0.11399871  0.76826643  0.82020122  1
  Gd  Gd34  1  0.46608907  0.74394522  0.88164594  1
  Gd  Gd35  1  0.56158284  0.84276683  0.59664312  1
  N  N36  1  0.22373607  0.20442321  0.33932914  1
  N  N37  1  0.10375184  0.09762732  0.15280950  1
  N  N38  1  0.90037888  0.18871800  0.89444763  1
  N  N39  1  0.76464940  0.07245021  0.58726191  1
  N  N40  1  0.52432887  0.22553339  0.32368379  1
  N  N41  1  0.44508002  0.08932729  0.10398581  1
  N  N42  1  0.22348583  0.20565349  0.87524844  1
  N  N43  1  0.11354691  0.04926099  0.67373124  1
  N  N44  1  0.92212961  0.22408309  0.42395532  1
  N  N45  1  0.77970067  0.10017865  0.11673154  1
  N  N46  1  0.55563190  0.19783506  0.89146036  1
  N  N47  1  0.42260908  0.09552494  0.55532623  1
  N  N48  1  0.22481776  0.53857358  0.36781890  1
  N  N49  1  0.15082127  0.41657581  0.14510676  1
  N  N50  1  0.88262263  0.53409371  0.85585537  1
  N  N51  1  0.74552733  0.49508547  0.59032244  1
  N  N52  1  0.56711270  0.52939042  0.33927286  1
  N  N53  1  0.45285838  0.43449815  0.09807980  1
  N  N54  1  0.24276306  0.51708919  0.87113941  1
  N  N55  1  0.10800992  0.44497289  0.64661188  1
  N  N56  1  0.89406227  0.53636624  0.33912634  1
  N  N57  1  0.76549314  0.42008116  0.07928697  1
  N  N58  1  0.58525040  0.47297768  0.82517623  1
  N  N59  1  0.44065962  0.43918939  0.57113005  1
  N  N60  1  0.22372176  0.87684582  0.39173631  1
  N  N61  1  0.11284983  0.76597528  0.15787545  1
  N  N62  1  0.87513111  0.87487148  0.92013313  1
  N  N63  1  0.81206050  0.75918756  0.66159802  1
  N  N64  1  0.55474154  0.86935430  0.35106486  1
  N  N65  1  0.44604899  0.76115444  0.14294148  1
  N  N66  1  0.21506900  0.89279030  0.92886230  1
  N  N67  1  0.11058839  0.75444056  0.60139852  1
  N  N68  1  0.90043474  0.84224958  0.38968012  1
  N  N69  1  0.76834919  0.79354947  0.15196720  1
  N  N70  1  0.55559277  0.90251425  0.83952424  1
  N  N71  1  0.40759108  0.74891512  0.66552793  1
