# generated using pymatgen
data_Gd2Al7N9
_symmetry_space_group_name_H-M   'P 1'
_cell_length_a   9.87729752
_cell_length_b   9.94364028
_cell_length_c   10.37070006
_cell_angle_alpha   89.79990174
_cell_angle_beta   90.07413517
_cell_angle_gamma   60.20591106
_symmetry_Int_Tables_number   1
_chemical_formula_structural   Gd2Al7N9
_chemical_formula_sum   'Gd8 Al28 N36'
_cell_volume   883.92279390
_cell_formula_units_Z   4
loop_
 _symmetry_equiv_pos_site_id
 _symmetry_equiv_pos_as_xyz
  1  'x, y, z'
loop_
 _atom_site_type_symbol
 _atom_site_label
 _atom_site_symmetry_multiplicity
 _atom_site_fract_x
 _atom_site_fract_y
 _atom_site_fract_z
 _atom_site_occupancy
  Al  Al0  1  0.11416730  0.09473498  0.38158937  1
  Al  Al1  1  0.22346973  0.20907452  0.15495998  1
  Al  Al2  1  0.78531304  0.08943702  0.92586720  1
  Al  Al3  1  0.43193005  0.11426859  0.37981279  1
  Al  Al4  1  0.54474245  0.21312860  0.12827568  1
  Al  Al5  1  0.10888751  0.10218346  0.92953396  1
  Al  Al6  1  0.88737016  0.21232536  0.15607941  1
  Al  Al7  1  0.44254637  0.08930509  0.92449433  1
  Al  Al8  1  0.10510883  0.43395739  0.39801901  1
  Al  Al9  1  0.22691712  0.53748281  0.15722048  1
  Al  Al10  1  0.77862217  0.40897951  0.90244138  1
  Al  Al11  1  0.88937546  0.54913062  0.64920181  1
  Al  Al12  1  0.43584805  0.43438820  0.39035071  1
  Al  Al13  1  0.55630181  0.52851275  0.15314087  1
  Al  Al14  1  0.13005666  0.41135380  0.90173898  1
  Al  Al15  1  0.22649873  0.53452203  0.63402695  1
  Al  Al16  1  0.77327423  0.44305808  0.40054432  1
  Al  Al17  1  0.45161116  0.41344595  0.91083359  1
  Al  Al18  1  0.54942445  0.53317758  0.64578551  1
  Al  Al19  1  0.11140270  0.75140403  0.38810914  1
  Al  Al20  1  0.21404317  0.87586761  0.12654889  1
  Al  Al21  1  0.76417511  0.78798788  0.89423228  1
  Al  Al22  1  0.89224182  0.86973827  0.64616346  1
  Al  Al23  1  0.44217441  0.75910016  0.32463687  1
  Al  Al24  1  0.55885016  0.88199975  0.15764220  1
  Al  Al25  1  0.22413103  0.85429714  0.59455007  1
  Al  Al26  1  0.79476563  0.74744451  0.40071335  1
  Al  Al27  1  0.89202490  0.86893517  0.15257330  1
  Gd  Gd28  1  0.89485123  0.20861041  0.64897663  1
  Gd  Gd29  1  0.22273967  0.20471689  0.64793644  1
  Gd  Gd30  1  0.76703132  0.09620567  0.37742900  1
  Gd  Gd31  1  0.55308079  0.21420295  0.67847851  1
  Gd  Gd32  1  0.88745410  0.54495093  0.13011068  1
  Gd  Gd33  1  0.11462455  0.74300239  0.88998121  1
  Gd  Gd34  1  0.45945249  0.74586109  0.88548499  1
  Gd  Gd35  1  0.55286640  0.86509928  0.61067579  1
  N  N36  1  0.21394471  0.21529058  0.34098374  1
  N  N37  1  0.10551066  0.10659038  0.11506062  1
  N  N38  1  0.89865812  0.19424412  0.87063062  1
  N  N39  1  0.78651596  0.07613326  0.59314106  1
  N  N40  1  0.51721305  0.23377856  0.31396198  1
  N  N41  1  0.43756034  0.08967893  0.10806365  1
  N  N42  1  0.22469799  0.19689264  0.87008401  1
  N  N43  1  0.13019922  0.06193882  0.56437875  1
  N  N44  1  0.89493816  0.22995098  0.34262523  1
  N  N45  1  0.78814401  0.08975488  0.11579581  1
  N  N46  1  0.56105052  0.19467976  0.91002632  1
  N  N47  1  0.44755238  0.11253915  0.55860716  1
  N  N48  1  0.21903503  0.53839765  0.34116489  1
  N  N49  1  0.14474981  0.41576864  0.08571866  1
  N  N50  1  0.88990556  0.53974399  0.85009833  1
  N  N51  1  0.75811908  0.46834881  0.58431336  1
  N  N52  1  0.55672771  0.53559054  0.33714403  1
  N  N53  1  0.43424390  0.44561572  0.09119918  1
  N  N54  1  0.25694066  0.48407463  0.81804500  1
  N  N55  1  0.09702617  0.45052874  0.58124480  1
  N  N56  1  0.88779244  0.54050202  0.34710776  1
  N  N57  1  0.75890072  0.41631104  0.08476929  1
  N  N58  1  0.58116626  0.47661598  0.82585470  1
  N  N59  1  0.43616373  0.44518654  0.57072131  1
  N  N60  1  0.21870494  0.86825935  0.34076659  1
  N  N61  1  0.10804843  0.75387152  0.10972655  1
  N  N62  1  0.86596625  0.89340416  0.83412585  1
  N  N63  1  0.80849023  0.75040409  0.58466517  1
  N  N64  1  0.56112679  0.87133196  0.34902308  1
  N  N65  1  0.45233459  0.75935547  0.13262788  1
  N  N66  1  0.21224549  0.89263740  0.91248842  1
  N  N67  1  0.10837365  0.75451320  0.58976170  1
  N  N68  1  0.90246805  0.84061081  0.33271388  1
  N  N69  1  0.75847155  0.79999562  0.07924573  1
  N  N70  1  0.55682958  0.89953228  0.83625163  1
  N  N71  1  0.41991532  0.74444009  0.65401581  1
