# generated using pymatgen
data_Gd2Al7N9
_symmetry_space_group_name_H-M   'P 1'
_cell_length_a   9.80419373
_cell_length_b   9.86426232
_cell_length_c   10.72393254
_cell_angle_alpha   89.55765700
_cell_angle_beta   89.37104238
_cell_angle_gamma   60.15267144
_symmetry_Int_Tables_number   1
_chemical_formula_structural   Gd2Al7N9
_chemical_formula_sum   'Gd8 Al28 N36'
_cell_volume   899.49683003
_cell_formula_units_Z   4
loop_
 _symmetry_equiv_pos_site_id
 _symmetry_equiv_pos_as_xyz
  1  'x, y, z'
loop_
 _atom_site_type_symbol
 _atom_site_label
 _atom_site_symmetry_multiplicity
 _atom_site_fract_x
 _atom_site_fract_y
 _atom_site_fract_z
 _atom_site_occupancy
  Al  Al0  1  0.10929372  0.10503970  0.30944523  1
  Al  Al1  1  0.22286648  0.20546663  0.06912482  1
  Al  Al2  1  0.76909707  0.09344785  0.90611744  1
  Al  Al3  1  0.43576063  0.09654087  0.29127227  1
  Al  Al4  1  0.54530740  0.21952728  0.12323495  1
  Al  Al5  1  0.11722869  0.08587251  0.82839341  1
  Al  Al6  1  0.89522501  0.20277364  0.06237852  1
  Al  Al7  1  0.44138219  0.09020899  0.85453910  1
  Al  Al8  1  0.12004675  0.42408613  0.29846026  1
  Al  Al9  1  0.22785108  0.53974859  0.06691290  1
  Al  Al10  1  0.77309114  0.41525767  0.87831503  1
  Al  Al11  1  0.88892627  0.55057520  0.65257427  1
  Al  Al12  1  0.44392383  0.43266219  0.37035639  1
  Al  Al13  1  0.55940954  0.53094993  0.13635740  1
  Al  Al14  1  0.12729380  0.41746294  0.82141523  1
  Al  Al15  1  0.21482947  0.54532082  0.54506748  1
  Al  Al16  1  0.78243435  0.45125311  0.38733422  1
  Al  Al17  1  0.45713570  0.41227234  0.89583943  1
  Al  Al18  1  0.54486750  0.54085098  0.62221321  1
  Al  Al19  1  0.11425776  0.74902829  0.31592677  1
  Al  Al20  1  0.21478736  0.87799037  0.07754115  1
  Al  Al21  1  0.77410252  0.78037422  0.82719113  1
  Al  Al22  1  0.90093201  0.85138940  0.54702816  1
  Al  Al23  1  0.43847978  0.76868776  0.30078956  1
  Al  Al24  1  0.55601559  0.88071887  0.07421314  1
  Al  Al25  1  0.22016083  0.86347032  0.55422216  1
  Al  Al26  1  0.77848322  0.75902128  0.30041519  1
  Al  Al27  1  0.89259357  0.87300466  0.07612814  1
  Gd  Gd28  1  0.87316435  0.21743959  0.60988995  1
  Gd  Gd29  1  0.21015473  0.20428734  0.56005164  1
  Gd  Gd30  1  0.78463570  0.09701758  0.34251596  1
  Gd  Gd31  1  0.55031805  0.21392932  0.64736603  1
  Gd  Gd32  1  0.89184739  0.54345844  0.08297850  1
  Gd  Gd33  1  0.10477003  0.76402298  0.79984750  1
  Gd  Gd34  1  0.45054879  0.74866871  0.84293031  1
  Gd  Gd35  1  0.57308536  0.84587426  0.55822170  1
  N  N36  1  0.22644334  0.20444194  0.34544345  1
  N  N37  1  0.10346847  0.10156979  0.12813615  1
  N  N38  1  0.89582818  0.19240643  0.87172640  1
  N  N39  1  0.77966305  0.06719467  0.55951992  1
  N  N40  1  0.52513152  0.22853400  0.30264009  1
  N  N41  1  0.43944722  0.09609967  0.10827882  1
  N  N42  1  0.21550290  0.20543912  0.88524377  1
  N  N43  1  0.12184264  0.05390336  0.65183686  1
  N  N44  1  0.91299133  0.22806763  0.39153548  1
  N  N45  1  0.77812645  0.10018224  0.09351448  1
  N  N46  1  0.55629981  0.19709381  0.86579630  1
  N  N47  1  0.43614966  0.07623355  0.65352615  1
  N  N48  1  0.21748592  0.53483492  0.36420635  1
  N  N49  1  0.14919589  0.41193305  0.12240148  1
  N  N50  1  0.88469065  0.53236059  0.84063756  1
  N  N51  1  0.75184811  0.49774947  0.56624315  1
  N  N52  1  0.56137418  0.53709274  0.31532417  1
  N  N53  1  0.45089779  0.43492103  0.07342674  1
  N  N54  1  0.23226989  0.51933632  0.88570728  1
  N  N55  1  0.11378153  0.44795654  0.64175927  1
  N  N56  1  0.89206372  0.53759893  0.30922603  1
  N  N57  1  0.75592810  0.41999889  0.05642180  1
  N  N58  1  0.57876420  0.47885889  0.79948265  1
  N  N59  1  0.43985349  0.44710051  0.54742787  1
  N  N60  1  0.21940473  0.87774037  0.36524805  1
  N  N61  1  0.11236903  0.75851129  0.13082454  1
  N  N62  1  0.87513442  0.87644510  0.89947681  1
  N  N63  1  0.80903460  0.76483889  0.65360832  1
  N  N64  1  0.55092805  0.87636012  0.34266825  1
  N  N65  1  0.44231206  0.76465459  0.11628903  1
  N  N66  1  0.20509943  0.89109238  0.90469054  1
  N  N67  1  0.11320217  0.75547124  0.58640687  1
  N  N68  1  0.90215074  0.83335393  0.36982054  1
  N  N69  1  0.76266064  0.79755425  0.12875410  1
  N  N70  1  0.57106725  0.87830236  0.89503913  1
  N  N71  1  0.41740558  0.75500186  0.63042488  1
