# generated using pymatgen
data_Gd2Al7N9
_symmetry_space_group_name_H-M   'P 1'
_cell_length_a   9.77827541
_cell_length_b   9.87154884
_cell_length_c   10.77491879
_cell_angle_alpha   89.32465989
_cell_angle_beta   89.22115821
_cell_angle_gamma   59.92971726
_symmetry_Int_Tables_number   1
_chemical_formula_structural   Gd2Al7N9
_chemical_formula_sum   'Gd8 Al28 N36'
_cell_volume   899.98834565
_cell_formula_units_Z   4
loop_
 _symmetry_equiv_pos_site_id
 _symmetry_equiv_pos_as_xyz
  1  'x, y, z'
loop_
 _atom_site_type_symbol
 _atom_site_label
 _atom_site_symmetry_multiplicity
 _atom_site_fract_x
 _atom_site_fract_y
 _atom_site_fract_z
 _atom_site_occupancy
  Al  Al0  1  0.11170944  0.10163315  0.31651783  1
  Al  Al1  1  0.22212986  0.20640141  0.09735033  1
  Al  Al2  1  0.76674942  0.09381558  0.91405115  1
  Al  Al3  1  0.44195193  0.09519485  0.36883817  1
  Al  Al4  1  0.54241635  0.21583231  0.14475831  1
  Al  Al5  1  0.12198267  0.08654640  0.83922503  1
  Al  Al6  1  0.89461143  0.20022332  0.06996852  1
  Al  Al7  1  0.44390331  0.09881972  0.91738078  1
  Al  Al8  1  0.12203827  0.42741496  0.30446290  1
  Al  Al9  1  0.23029667  0.54042443  0.07412911  1
  Al  Al10  1  0.77616760  0.41455533  0.89032202  1
  Al  Al11  1  0.88764601  0.55393510  0.66635897  1
  Al  Al12  1  0.44679821  0.43122411  0.38453121  1
  Al  Al13  1  0.56192910  0.52493729  0.14682491  1
  Al  Al14  1  0.13042141  0.41607856  0.83191907  1
  Al  Al15  1  0.21433086  0.54641974  0.55682074  1
  Al  Al16  1  0.78608027  0.44992328  0.40081278  1
  Al  Al17  1  0.46130559  0.40686954  0.90353333  1
  Al  Al18  1  0.54270838  0.53950824  0.63983530  1
  Al  Al19  1  0.11581482  0.74896875  0.32697920  1
  Al  Al20  1  0.21430271  0.87739545  0.08761983  1
  Al  Al21  1  0.77271667  0.78362609  0.83770722  1
  Al  Al22  1  0.89703209  0.85450995  0.55786063  1
  Al  Al23  1  0.44082694  0.76504183  0.30830404  1
  Al  Al24  1  0.55729868  0.87962711  0.09243325  1
  Al  Al25  1  0.21801505  0.86695160  0.56712255  1
  Al  Al26  1  0.78165733  0.75798636  0.31001827  1
  Al  Al27  1  0.89349799  0.87367640  0.08552992  1
  Gd  Gd28  1  0.86223876  0.21957855  0.63391689  1
  Gd  Gd29  1  0.17174202  0.22294471  0.55153682  1
  Gd  Gd30  1  0.79147349  0.09916492  0.35582833  1
  Gd  Gd31  1  0.53294373  0.20264420  0.64529434  1
  Gd  Gd32  1  0.89182186  0.54424876  0.09169811  1
  Gd  Gd33  1  0.10827092  0.76561853  0.80910620  1
  Gd  Gd34  1  0.45470905  0.74504365  0.86267312  1
  Gd  Gd35  1  0.57311939  0.82933820  0.56238678  1
  N  N36  1  0.22392707  0.20670075  0.33646285  1
  N  N37  1  0.10120127  0.09922650  0.13847761  1
  N  N38  1  0.89685316  0.19120047  0.88208080  1
  N  N39  1  0.77512792  0.07147564  0.57056239  1
  N  N40  1  0.52865254  0.22427506  0.32030516  1
  N  N41  1  0.44330756  0.09990485  0.09551197  1
  N  N42  1  0.21739810  0.20633531  0.89471642  1
  N  N43  1  0.11915231  0.05669723  0.66407848  1
  N  N44  1  0.92318363  0.22660327  0.41187906  1
  N  N45  1  0.77528024  0.10055595  0.10300194  1
  N  N46  1  0.55674923  0.19469712  0.86213757  1
  N  N47  1  0.42727096  0.08834305  0.54731716  1
  N  N48  1  0.21978543  0.53434864  0.37634616  1
  N  N49  1  0.14826887  0.41744398  0.13056633  1
  N  N50  1  0.88489811  0.53390218  0.85145991  1
  N  N51  1  0.75012489  0.50081327  0.57841164  1
  N  N52  1  0.56458688  0.53225377  0.32540331  1
  N  N53  1  0.45457710  0.42814921  0.08310368  1
  N  N54  1  0.23512847  0.51984295  0.89455090  1
  N  N55  1  0.11458289  0.44923555  0.65279629  1
  N  N56  1  0.89489882  0.53658013  0.32073627  1
  N  N57  1  0.75873167  0.41809810  0.06706812  1
  N  N58  1  0.58363356  0.47622288  0.81247786  1
  N  N59  1  0.44266069  0.44433111  0.56173073  1
  N  N60  1  0.22214200  0.87645358  0.37614741  1
  N  N61  1  0.11408105  0.75790385  0.14190210  1
  N  N62  1  0.87704268  0.87618610  0.90936151  1
  N  N63  1  0.80194332  0.77050484  0.66402652  1
  N  N64  1  0.55741255  0.86494275  0.34807795  1
  N  N65  1  0.44385303  0.76156834  0.12569160  1
  N  N66  1  0.20594486  0.89194314  0.91649210  1
  N  N67  1  0.11083313  0.75774922  0.59612575  1
  N  N68  1  0.90189022  0.83595565  0.38062592  1
  N  N69  1  0.76589676  0.79650342  0.13908510  1
  N  N70  1  0.57023177  0.88041671  0.90459098  1
  N  N71  1  0.41187689  0.75479893  0.65038900  1
