# generated using pymatgen
data_Gd2Al7N9
_symmetry_space_group_name_H-M   'P 1'
_cell_length_a   9.77827572
_cell_length_b   9.87154314
_cell_length_c   10.77491970
_cell_angle_alpha   89.32467006
_cell_angle_beta   89.22117316
_cell_angle_gamma   59.92982653
_symmetry_Int_Tables_number   1
_chemical_formula_structural   Gd2Al7N9
_chemical_formula_sum   'Gd8 Al28 N36'
_cell_volume   899.98892780
_cell_formula_units_Z   4
loop_
 _symmetry_equiv_pos_site_id
 _symmetry_equiv_pos_as_xyz
  1  'x, y, z'
loop_
 _atom_site_type_symbol
 _atom_site_label
 _atom_site_symmetry_multiplicity
 _atom_site_fract_x
 _atom_site_fract_y
 _atom_site_fract_z
 _atom_site_occupancy
  Al  Al0  1  0.11169120  0.10174182  0.30801946  1
  Al  Al1  1  0.22211094  0.20651029  0.08884947  1
  Al  Al2  1  0.76673133  0.09392329  0.90555571  1
  Al  Al3  1  0.44193340  0.09530302  0.36033992  1
  Al  Al4  1  0.54239782  0.21594085  0.13626226  1
  Al  Al5  1  0.12196485  0.08665433  0.83072672  1
  Al  Al6  1  0.89459315  0.20033237  0.06147070  1
  Al  Al7  1  0.44388655  0.09892699  0.90888434  1
  Al  Al8  1  0.12202016  0.42752282  0.29596587  1
  Al  Al9  1  0.23027860  0.54053218  0.06563059  1
  Al  Al10  1  0.77614982  0.41466336  0.88182353  1
  Al  Al11  1  0.88762854  0.55404289  0.65786181  1
  Al  Al12  1  0.44677960  0.43133262  0.37603272  1
  Al  Al13  1  0.56191081  0.52504593  0.13832722  1
  Al  Al14  1  0.13040397  0.41618627  0.82342055  1
  Al  Al15  1  0.21431381  0.54652750  0.54832442  1
  Al  Al16  1  0.78606258  0.45003121  0.39231608  1
  Al  Al17  1  0.46128830  0.40697722  0.89503572  1
  Al  Al18  1  0.54269094  0.53961630  0.63133670  1
  Al  Al19  1  0.11579696  0.74907678  0.31848165  1
  Al  Al20  1  0.21428463  0.87750371  0.07912102  1
  Al  Al21  1  0.77269860  0.78373447  0.82920962  1
  Al  Al22  1  0.89701532  0.85461754  0.54936399  1
  Al  Al23  1  0.44080823  0.76514986  0.29980757  1
  Al  Al24  1  0.55727992  0.87973518  0.08393718  1
  Al  Al25  1  0.21799771  0.86705929  0.55862586  1
  Al  Al26  1  0.78163925  0.75809433  0.30152089  1
  Al  Al27  1  0.89347957  0.87378488  0.07703462  1
  Gd  Gd28  1  0.86222154  0.21968641  0.62541964  1
  Gd  Gd29  1  0.17172569  0.22305176  0.54303999  1
  Gd  Gd30  1  0.79145520  0.09927297  0.34733189  1
  Gd  Gd31  1  0.53292671  0.20275241  0.63679742  1
  Gd  Gd32  1  0.89180347  0.54435737  0.08320097  1
  Gd  Gd33  1  0.10825166  0.76572686  0.80060989  1
  Gd  Gd34  1  0.45469140  0.74515122  0.85417522  1
  Gd  Gd35  1  0.57310247  0.82944673  0.55388936  1
  N  N36  1  0.22390848  0.20680928  0.32796709  1
  N  N37  1  0.10118328  0.09933512  0.12997919  1
  N  N38  1  0.89683538  0.19130824  0.87358336  1
  N  N39  1  0.77511077  0.07158311  0.56206588  1
  N  N40  1  0.52863435  0.22438324  0.31180845  1
  N  N41  1  0.44328891  0.10001310  0.08701534  1
  N  N42  1  0.21738089  0.20644307  0.88621907  1
  N  N43  1  0.11913463  0.05680490  0.65558099  1
  N  N44  1  0.92316539  0.22671138  0.40338140  1
  N  N45  1  0.77526216  0.10066462  0.09450579  1
  N  N46  1  0.55673193  0.19480468  0.85364095  1
  N  N47  1  0.42725432  0.08845110  0.53881969  1
  N  N48  1  0.21976710  0.53445706  0.36784921  1
  N  N49  1  0.14825059  0.41755197  0.12206885  1
  N  N50  1  0.88488093  0.53400966  0.84296225  1
  N  N51  1  0.75010742  0.50092129  0.56991439  1
  N  N52  1  0.56456886  0.53236196  0.31690567  1
  N  N53  1  0.45455885  0.42825733  0.07460624  1
  N  N54  1  0.23511135  0.51995040  0.88605268  1
  N  N55  1  0.11456511  0.44934342  0.64429868  1
  N  N56  1  0.89488067  0.53668821  0.31223873  1
  N  N57  1  0.75871293  0.41820702  0.05856963  1
  N  N58  1  0.58361585  0.47633064  0.80397952  1
  N  N59  1  0.44264329  0.44443887  0.55323260  1
  N  N60  1  0.22212352  0.87656190  0.36765037  1
  N  N61  1  0.11406301  0.75801191  0.13340438  1
  N  N62  1  0.87702422  0.87629405  0.90086595  1
  N  N63  1  0.80192651  0.77061246  0.65552946  1
  N  N64  1  0.55739424  0.86505099  0.33958046  1
  N  N65  1  0.44383418  0.76167676  0.11719458  1
  N  N66  1  0.20592738  0.89205112  0.90799356  1
  N  N67  1  0.11081593  0.75785680  0.58762968  1
  N  N68  1  0.90187256  0.83606347  0.37212905  1
  N  N69  1  0.76587796  0.79661193  0.13058833  1
  N  N70  1  0.57021409  0.88052431  0.89609400  1
  N  N71  1  0.41186019  0.75490695  0.64189093  1
