# generated using pymatgen
data_Gd2Al7N9
_symmetry_space_group_name_H-M   'P 1'
_cell_length_a   9.83188703
_cell_length_b   9.97868495
_cell_length_c   10.58665964
_cell_angle_alpha   89.32144309
_cell_angle_beta   89.39704903
_cell_angle_gamma   59.77830054
_symmetry_Int_Tables_number   1
_chemical_formula_structural   Gd2Al7N9
_chemical_formula_sum   'Gd8 Al28 N36'
_cell_volume   897.40546644
_cell_formula_units_Z   4
loop_
 _symmetry_equiv_pos_site_id
 _symmetry_equiv_pos_as_xyz
  1  'x, y, z'
loop_
 _atom_site_type_symbol
 _atom_site_label
 _atom_site_symmetry_multiplicity
 _atom_site_fract_x
 _atom_site_fract_y
 _atom_site_fract_z
 _atom_site_occupancy
  Al  Al0  1  0.11186335  0.10998947  0.31027850  1
  Al  Al1  1  0.22904958  0.20522561  0.06394071  1
  Al  Al2  1  0.75985471  0.09895363  0.89586398  1
  Al  Al3  1  0.43920942  0.08989991  0.29996838  1
  Al  Al4  1  0.54701885  0.21645936  0.13535553  1
  Al  Al5  1  0.11565611  0.08615316  0.82967620  1
  Al  Al6  1  0.89328500  0.20275959  0.05970743  1
  Al  Al7  1  0.44152657  0.08906471  0.81912660  1
  Al  Al8  1  0.12198023  0.42374385  0.29983759  1
  Al  Al9  1  0.23823565  0.53250205  0.06749469  1
  Al  Al10  1  0.77450519  0.41788388  0.88139932  1
  Al  Al11  1  0.88868253  0.55259392  0.65405225  1
  Al  Al12  1  0.44117757  0.43600108  0.33378197  1
  Al  Al13  1  0.56222032  0.53250005  0.14023549  1
  Al  Al14  1  0.12787912  0.41866137  0.82303053  1
  Al  Al15  1  0.21744808  0.54421198  0.54839081  1
  Al  Al16  1  0.78437429  0.45402623  0.39227075  1
  Al  Al17  1  0.45289218  0.40506115  0.82955362  1
  Al  Al18  1  0.54245376  0.54472427  0.62759935  1
  Al  Al19  1  0.11687719  0.74622373  0.31453340  1
  Al  Al20  1  0.21278798  0.88063862  0.08114288  1
  Al  Al21  1  0.77339410  0.78511844  0.82614198  1
  Al  Al22  1  0.90167762  0.84814591  0.54486203  1
  Al  Al23  1  0.43997045  0.77061334  0.30162471  1
  Al  Al24  1  0.55636745  0.88943711  0.06945479  1
  Al  Al25  1  0.21446461  0.86523116  0.55587613  1
  Al  Al26  1  0.77928922  0.76045407  0.30116934  1
  Al  Al27  1  0.89190532  0.87418088  0.07279516  1
  Gd  Gd28  1  0.85945336  0.22025328  0.62034800  1
  Gd  Gd29  1  0.19102986  0.20760298  0.56488858  1
  Gd  Gd30  1  0.80775715  0.09036597  0.33601496  1
  Gd  Gd31  1  0.53970942  0.19467413  0.57378167  1
  Gd  Gd32  1  0.89123250  0.54355830  0.08583073  1
  Gd  Gd33  1  0.10847464  0.76614252  0.80054395  1
  Gd  Gd34  1  0.45172939  0.74756102  0.85676343  1
  Gd  Gd35  1  0.56889501  0.83263855  0.56315970  1
  N  N36  1  0.22932451  0.20599740  0.35122002  1
  N  N37  1  0.10329651  0.10448397  0.12787320  1
  N  N38  1  0.89255870  0.19602261  0.87159427  1
  N  N39  1  0.79170169  0.06146199  0.55240030  1
  N  N40  1  0.53888615  0.21215310  0.32809243  1
  N  N41  1  0.44192910  0.09839593  0.11815906  1
  N  N42  1  0.21883668  0.20434599  0.87872774  1
  N  N43  1  0.11026379  0.05249495  0.65413770  1
  N  N44  1  0.91778798  0.23288167  0.39696460  1
  N  N45  1  0.77255214  0.10312356  0.09070461  1
  N  N46  1  0.55828532  0.19397346  0.82786775  1
  N  N47  1  0.42517827  0.06730071  0.64469844  1
  N  N48  1  0.22152723  0.53284222  0.36549288  1
  N  N49  1  0.15015712  0.41072307  0.11971502  1
  N  N50  1  0.88596689  0.53500660  0.84449708  1
  N  N51  1  0.74888158  0.50245674  0.57081024  1
  N  N52  1  0.56375711  0.54296139  0.32257531  1
  N  N53  1  0.44488069  0.43416339  0.12657617  1
  N  N54  1  0.24249152  0.51500511  0.88466668  1
  N  N55  1  0.11245728  0.44934364  0.64202164  1
  N  N56  1  0.89428638  0.53992622  0.31322161  1
  N  N57  1  0.75685699  0.41934944  0.06054832  1
  N  N58  1  0.58309199  0.48632063  0.80461511  1
  N  N59  1  0.43497443  0.44782098  0.57649763  1
  N  N60  1  0.21876190  0.88054460  0.36410210  1
  N  N61  1  0.11343705  0.75804090  0.12834901  1
  N  N62  1  0.87390241  0.88203869  0.89496995  1
  N  N63  1  0.80678153  0.76546078  0.65099540  1
  N  N64  1  0.55320189  0.87320073  0.34772365  1
  N  N65  1  0.44498502  0.76654051  0.11445293  1
  N  N66  1  0.20265813  0.89476773  0.90734084  1
  N  N67  1  0.11249134  0.75380620  0.58543940  1
  N  N68  1  0.90582106  0.83180131  0.36579617  1
  N  N69  1  0.76296532  0.79839573  0.12610146  1
  N  N70  1  0.56709482  0.88679502  0.88855607  1
  N  N71  1  0.40758399  0.75569544  0.64001696  1
