# generated using pymatgen
data_Gd2Al7N9
_symmetry_space_group_name_H-M   'P 1'
_cell_length_a   9.86232425
_cell_length_b   9.89662780
_cell_length_c   10.57818989
_cell_angle_alpha   89.02447110
_cell_angle_beta   89.53221549
_cell_angle_gamma   59.99831388
_symmetry_Int_Tables_number   1
_chemical_formula_structural   Gd2Al7N9
_chemical_formula_sum   'Gd8 Al28 N36'
_cell_volume   894.00127548
_cell_formula_units_Z   4
loop_
 _symmetry_equiv_pos_site_id
 _symmetry_equiv_pos_as_xyz
  1  'x, y, z'
loop_
 _atom_site_type_symbol
 _atom_site_label
 _atom_site_symmetry_multiplicity
 _atom_site_fract_x
 _atom_site_fract_y
 _atom_site_fract_z
 _atom_site_occupancy
  Al  Al0  1  0.11316449  0.10393414  0.29579147  1
  Al  Al1  1  0.22829675  0.20236407  0.05224496  1
  Al  Al2  1  0.76776143  0.09938176  0.88087867  1
  Al  Al3  1  0.44151456  0.09419135  0.28039753  1
  Al  Al4  1  0.54192334  0.21682748  0.05601533  1
  Al  Al5  1  0.11322794  0.08915179  0.81899299  1
  Al  Al6  1  0.89775219  0.20018909  0.04870076  1
  Al  Al7  1  0.44579553  0.09474263  0.81781471  1
  Al  Al8  1  0.12508653  0.41927149  0.29139490  1
  Al  Al9  1  0.23414172  0.53325815  0.05168575  1
  Al  Al10  1  0.76814773  0.42717023  0.87404961  1
  Al  Al11  1  0.88898020  0.54779023  0.64183699  1
  Al  Al12  1  0.43987369  0.42857298  0.29384473  1
  Al  Al13  1  0.55171664  0.53762211  0.07671057  1
  Al  Al14  1  0.12562019  0.41876430  0.81122545  1
  Al  Al15  1  0.21783109  0.54205892  0.54363425  1
  Al  Al16  1  0.78913341  0.44618920  0.37625586  1
  Al  Al17  1  0.44333486  0.42616248  0.80328309  1
  Al  Al18  1  0.53556610  0.55238503  0.54807498  1
  Al  Al19  1  0.11694794  0.74567527  0.30320499  1
  Al  Al20  1  0.21804730  0.87424994  0.06728399  1
  Al  Al21  1  0.77450346  0.78074227  0.81432170  1
  Al  Al22  1  0.90266776  0.84952760  0.53252883  1
  Al  Al23  1  0.44259587  0.76214408  0.29358777  1
  Al  Al24  1  0.55683318  0.88172172  0.05750974  1
  Al  Al25  1  0.21415419  0.86544374  0.53329492  1
  Al  Al26  1  0.78099143  0.75901667  0.28665623  1
  Al  Al27  1  0.89292366  0.87253394  0.05828946  1
  Gd  Gd28  1  0.87019666  0.21366793  0.60084981  1
  Gd  Gd29  1  0.20473945  0.19898645  0.55549662  1
  Gd  Gd30  1  0.79329743  0.09547856  0.31363566  1
  Gd  Gd31  1  0.53226902  0.20894036  0.54915851  1
  Gd  Gd32  1  0.89668025  0.54006085  0.07511804  1
  Gd  Gd33  1  0.10398928  0.76696227  0.78837890  1
  Gd  Gd34  1  0.43788292  0.77223691  0.80556762  1
  Gd  Gd35  1  0.58007783  0.84518320  0.54185496  1
  N  N36  1  0.23207483  0.19888273  0.33939732  1
  N  N37  1  0.10721057  0.10023173  0.11277218  1
  N  N38  1  0.88923019  0.20327400  0.85411646  1
  N  N39  1  0.78311402  0.06391871  0.54651925  1
  N  N40  1  0.53194418  0.21343224  0.33261763  1
  N  N41  1  0.44283856  0.09639039  0.09971368  1
  N  N42  1  0.21899000  0.20360083  0.86685275  1
  N  N43  1  0.12057677  0.04529601  0.64255748  1
  N  N44  1  0.91764170  0.22499654  0.37812641  1
  N  N45  1  0.77737128  0.10025071  0.07507333  1
  N  N46  1  0.54730583  0.21190759  0.86486296  1
  N  N47  1  0.43923809  0.07166674  0.64205593  1
  N  N48  1  0.22925325  0.52754074  0.35895410  1
  N  N49  1  0.15371409  0.40693529  0.11149802  1
  N  N50  1  0.88644534  0.53473519  0.83344719  1
  N  N51  1  0.75421330  0.49158236  0.55889374  1
  N  N52  1  0.55391019  0.53702514  0.34518191  1
  N  N53  1  0.44415964  0.43077067  0.11203799  1
  N  N54  1  0.23412111  0.51782308  0.87222814  1
  N  N55  1  0.11124057  0.44442742  0.62910342  1
  N  N56  1  0.89713552  0.53747303  0.30304852  1
  N  N57  1  0.76623676  0.41354375  0.05785648  1
  N  N58  1  0.55681678  0.52051738  0.85154371  1
  N  N59  1  0.42670064  0.45427031  0.61936351  1
  N  N60  1  0.21645466  0.87785664  0.34611180  1
  N  N61  1  0.11359449  0.75423079  0.11555782  1
  N  N62  1  0.87231339  0.88308896  0.87988135  1
  N  N63  1  0.81389650  0.75982247  0.63911832  1
  N  N64  1  0.55575661  0.87230301  0.32875453  1
  N  N65  1  0.44613321  0.76105016  0.10781458  1
  N  N66  1  0.20222148  0.89370779  0.89377388  1
  N  N67  1  0.11345578  0.75434864  0.57180137  1
  N  N68  1  0.90481876  0.83391261  0.35333637  1
  N  N69  1  0.76460211  0.79599750  0.11192663  1
  N  N70  1  0.56973665  0.88488414  0.87763404  1
  N  N71  1  0.41927937  0.75814259  0.58900480  1
