# generated using pymatgen
data_Gd2Al7N9
_symmetry_space_group_name_H-M   'P 1'
_cell_length_a   9.77826746
_cell_length_b   9.87155398
_cell_length_c   10.77491118
_cell_angle_alpha   89.32463308
_cell_angle_beta   89.22108051
_cell_angle_gamma   59.92968956
_symmetry_Int_Tables_number   1
_chemical_formula_structural   Gd2Al7N9
_chemical_formula_sum   'Gd8 Al28 N36'
_cell_volume   899.98718046
_cell_formula_units_Z   4
loop_
 _symmetry_equiv_pos_site_id
 _symmetry_equiv_pos_as_xyz
  1  'x, y, z'
loop_
 _atom_site_type_symbol
 _atom_site_label
 _atom_site_symmetry_multiplicity
 _atom_site_fract_x
 _atom_site_fract_y
 _atom_site_fract_z
 _atom_site_occupancy
  Al  Al0  1  0.11169893  0.10169031  0.31144585  1
  Al  Al1  1  0.22212549  0.20645966  0.09230445  1
  Al  Al2  1  0.76673917  0.09387752  0.90897631  1
  Al  Al3  1  0.44194347  0.09525661  0.36376229  1
  Al  Al4  1  0.54241031  0.21589383  0.13968332  1
  Al  Al5  1  0.12197535  0.08661018  0.83415038  1
  Al  Al6  1  0.89460424  0.20028310  0.06489275  1
  Al  Al7  1  0.44388724  0.09888649  0.91231094  1
  Al  Al8  1  0.12202696  0.42748188  0.29938744  1
  Al  Al9  1  0.23028868  0.54048698  0.06905615  1
  Al  Al10  1  0.77615760  0.41461711  0.88525022  1
  Al  Al11  1  0.88763533  0.55399777  0.66128840  1
  Al  Al12  1  0.44678892  0.43128631  0.37945745  1
  Al  Al13  1  0.56192144  0.52499898  0.14175356  1
  Al  Al14  1  0.13041431  0.41613802  0.82684653  1
  Al  Al15  1  0.21432002  0.54648344  0.55174713  1
  Al  Al16  1  0.78607142  0.44998536  0.39574052  1
  Al  Al17  1  0.46129693  0.40693160  0.89846166  1
  Al  Al18  1  0.54269879  0.53957035  0.63476193  1
  Al  Al19  1  0.11580494  0.74903180  0.32190338  1
  Al  Al20  1  0.21429462  0.87745679  0.08254454  1
  Al  Al21  1  0.77270545  0.78369007  0.83263503  1
  Al  Al22  1  0.89702110  0.85457300  0.55278915  1
  Al  Al23  1  0.44081849  0.76510367  0.30323186  1
  Al  Al24  1  0.55729134  0.87968722  0.08735581  1
  Al  Al25  1  0.21800450  0.86701536  0.56205105  1
  Al  Al26  1  0.78164844  0.75804779  0.30494393  1
  Al  Al27  1  0.89348858  0.87373851  0.08045643  1
  Gd  Gd28  1  0.86222674  0.21964116  0.62884539  1
  Gd  Gd29  1  0.17172552  0.22301224  0.54645588  1
  Gd  Gd30  1  0.79146356  0.09922778  0.35075542  1
  Gd  Gd31  1  0.53292828  0.20270816  0.64022160  1
  Gd  Gd32  1  0.89181474  0.54430925  0.08662026  1
  Gd  Gd33  1  0.10826200  0.76567934  0.80403334  1
  Gd  Gd34  1  0.45469989  0.74510629  0.85759750  1
  Gd  Gd35  1  0.57310758  0.82940404  0.55731315  1
  N  N36  1  0.22391893  0.20676062  0.33137479  1
  N  N37  1  0.10119121  0.09928477  0.13340617  1
  N  N38  1  0.89684368  0.19126243  0.87700591  1
  N  N39  1  0.77511449  0.07153888  0.56549021  1
  N  N40  1  0.52864345  0.22433783  0.31523060  1
  N  N41  1  0.44330158  0.09996488  0.09044172  1
  N  N42  1  0.21738851  0.20639766  0.88964142  1
  N  N43  1  0.11914256  0.05676369  0.65900252  1
  N  N44  1  0.92317593  0.22666467  0.40680749  1
  N  N45  1  0.77527164  0.10061746  0.09792754  1
  N  N46  1  0.55673799  0.19475983  0.85706559  1
  N  N47  1  0.42725516  0.08840963  0.54223922  1
  N  N48  1  0.21977588  0.53441198  0.37127208  1
  N  N49  1  0.14825997  0.41750860  0.12549285  1
  N  N50  1  0.88488718  0.53396541  0.84638811  1
  N  N51  1  0.75011599  0.50087442  0.57333920  1
  N  N52  1  0.56457849  0.53231561  0.32033142  1
  N  N53  1  0.45456909  0.42821172  0.07803140  1
  N  N54  1  0.23511999  0.51990457  0.88947810  1
  N  N55  1  0.11457255  0.44929776  0.64772251  1
  N  N56  1  0.89488988  0.53664174  0.31566329  1
  N  N57  1  0.75872412  0.41815791  0.06199620  1
  N  N58  1  0.58362436  0.47628482  0.80740475  1
  N  N59  1  0.44265044  0.44439393  0.55665708  1
  N  N60  1  0.22213302  0.87651448  0.37107519  1
  N  N61  1  0.11407217  0.75796621  0.13682734  1
  N  N62  1  0.87703316  0.87624836  0.90428795  1
  N  N63  1  0.80193193  0.77056743  0.65895416  1
  N  N64  1  0.55740428  0.86500398  0.34300538  1
  N  N65  1  0.44384493  0.76162974  0.12061853  1
  N  N66  1  0.20593580  0.89200557  0.91141678  1
  N  N67  1  0.11082256  0.75781270  0.59105364  1
  N  N68  1  0.90188053  0.83601848  0.37555269  1
  N  N69  1  0.76588883  0.79656313  0.13401045  1
  N  N70  1  0.57021955  0.88048201  0.89951702  1
  N  N71  1  0.41186739  0.75486132  0.64531510  1
