# generated using pymatgen
data_Gd2Al7N9
_symmetry_space_group_name_H-M   'P 1'
_cell_length_a   9.85749862
_cell_length_b   9.89778088
_cell_length_c   10.61225267
_cell_angle_alpha   88.98416491
_cell_angle_beta   89.58236548
_cell_angle_gamma   59.99218336
_symmetry_Int_Tables_number   1
_chemical_formula_structural   Gd2Al7N9
_chemical_formula_sum   'Gd8 Al28 N36'
_cell_volume   896.47787916
_cell_formula_units_Z   4
loop_
 _symmetry_equiv_pos_site_id
 _symmetry_equiv_pos_as_xyz
  1  'x, y, z'
loop_
 _atom_site_type_symbol
 _atom_site_label
 _atom_site_symmetry_multiplicity
 _atom_site_fract_x
 _atom_site_fract_y
 _atom_site_fract_z
 _atom_site_occupancy
  Al  Al0  1  0.11220591  0.10528848  0.29601303  1
  Al  Al1  1  0.22795941  0.20302942  0.05216539  1
  Al  Al2  1  0.76862607  0.09879408  0.88103312  1
  Al  Al3  1  0.44118286  0.09451989  0.28014809  1
  Al  Al4  1  0.54187117  0.21760465  0.05587414  1
  Al  Al5  1  0.11189254  0.09022398  0.81853725  1
  Al  Al6  1  0.89573030  0.20233861  0.04694709  1
  Al  Al7  1  0.44598666  0.09568362  0.81712926  1
  Al  Al8  1  0.12387082  0.41967934  0.29063533  1
  Al  Al9  1  0.23474154  0.53354832  0.05152421  1
  Al  Al10  1  0.76706341  0.42739316  0.87025277  1
  Al  Al11  1  0.88895665  0.54777122  0.64089728  1
  Al  Al12  1  0.43799350  0.42703895  0.29215485  1
  Al  Al13  1  0.56081329  0.53435514  0.12133230  1
  Al  Al14  1  0.12507654  0.41937665  0.81072644  1
  Al  Al15  1  0.21743218  0.54188436  0.54235516  1
  Al  Al16  1  0.78341235  0.44933354  0.37571550  1
  Al  Al17  1  0.44166426  0.42159248  0.80150226  1
  Al  Al18  1  0.54572568  0.54545950  0.61538642  1
  Al  Al19  1  0.11712480  0.74562598  0.30315941  1
  Al  Al20  1  0.21671297  0.87569783  0.06732233  1
  Al  Al21  1  0.77494884  0.78082799  0.81345898  1
  Al  Al22  1  0.90217585  0.84954994  0.53185969  1
  Al  Al23  1  0.44129388  0.76609014  0.29103191  1
  Al  Al24  1  0.55659380  0.88325020  0.05778426  1
  Al  Al25  1  0.21667957  0.86281373  0.53467045  1
  Al  Al26  1  0.78124503  0.75860714  0.28640733  1
  Al  Al27  1  0.89335582  0.87239097  0.05811944  1
  Gd  Gd28  1  0.87099583  0.21292926  0.59933742  1
  Gd  Gd29  1  0.20491932  0.19899975  0.55549267  1
  Gd  Gd30  1  0.79365637  0.09523797  0.31319054  1
  Gd  Gd31  1  0.53244949  0.20738440  0.54743548  1
  Gd  Gd32  1  0.89500141  0.54014489  0.07418910  1
  Gd  Gd33  1  0.10393861  0.76740140  0.78683445  1
  Gd  Gd34  1  0.43654771  0.77591741  0.81580091  1
  Gd  Gd35  1  0.57869381  0.84169758  0.54226545  1
  N  N36  1  0.23189858  0.19938379  0.33947611  1
  N  N37  1  0.10517947  0.10246287  0.11316002  1
  N  N38  1  0.88978097  0.20282364  0.85432174  1
  N  N39  1  0.78364605  0.06369270  0.54579099  1
  N  N40  1  0.53224665  0.21322483  0.33189504  1
  N  N41  1  0.44256351  0.09732241  0.10010580  1
  N  N42  1  0.21928479  0.20368448  0.86679576  1
  N  N43  1  0.12078767  0.04521921  0.64239447  1
  N  N44  1  0.91615826  0.22636188  0.37784745  1
  N  N45  1  0.77753964  0.10035020  0.07484466  1
  N  N46  1  0.54800483  0.21180262  0.86606493  1
  N  N47  1  0.43989596  0.07053698  0.64212432  1
  N  N48  1  0.22901813  0.52761933  0.35818433  1
  N  N49  1  0.15235361  0.40797742  0.11085762  1
  N  N50  1  0.88677850  0.53510209  0.83269369  1
  N  N51  1  0.75180777  0.49308626  0.55679883  1
  N  N52  1  0.56271307  0.53520311  0.30722882  1
  N  N53  1  0.44406630  0.43053225  0.10910415  1
  N  N54  1  0.23467615  0.51851657  0.87228470  1
  N  N55  1  0.11041753  0.44437764  0.62883155  1
  N  N56  1  0.89617211  0.53693630  0.30214087  1
  N  N57  1  0.75815732  0.41796666  0.04946550  1
  N  N58  1  0.57109374  0.51242548  0.80089011  1
  N  N59  1  0.42061049  0.45006724  0.61896941  1
  N  N60  1  0.21803672  0.87758579  0.34721107  1
  N  N61  1  0.11371490  0.75475866  0.11610180  1
  N  N62  1  0.87292389  0.88251504  0.87988425  1
  N  N63  1  0.81278104  0.76026190  0.63846210  1
  N  N64  1  0.55557233  0.87266600  0.32907152  1
  N  N65  1  0.44427433  0.76564696  0.10381032  1
  N  N66  1  0.19838536  0.89561161  0.89445002  1
  N  N67  1  0.11305542  0.75413742  0.57096520  1
  N  N68  1  0.90492174  0.83363587  0.35314928  1
  N  N69  1  0.76490010  0.79575363  0.11194824  1
  N  N70  1  0.57087872  0.88697530  0.87821935  1
  N  N71  1  0.41857836  0.75673096  0.59787421  1
