# generated using pymatgen
data_Gd2Al7N9
_symmetry_space_group_name_H-M   'P 1'
_cell_length_a   9.86802879
_cell_length_b   9.90906064
_cell_length_c   10.38193377
_cell_angle_alpha   89.94024950
_cell_angle_beta   90.17582215
_cell_angle_gamma   60.26787149
_symmetry_Int_Tables_number   1
_chemical_formula_structural   Gd2Al7N9
_chemical_formula_sum   'Gd8 Al28 N36'
_cell_volume   881.52329438
_cell_formula_units_Z   4
loop_
 _symmetry_equiv_pos_site_id
 _symmetry_equiv_pos_as_xyz
  1  'x, y, z'
loop_
 _atom_site_type_symbol
 _atom_site_label
 _atom_site_symmetry_multiplicity
 _atom_site_fract_x
 _atom_site_fract_y
 _atom_site_fract_z
 _atom_site_occupancy
  Al  Al0  1  0.11617901  0.09251090  0.38832095  1
  Al  Al1  1  0.22390288  0.20610140  0.15218155  1
  Al  Al2  1  0.78299072  0.08966562  0.92583812  1
  Al  Al3  1  0.43158075  0.11448769  0.37920416  1
  Al  Al4  1  0.54437877  0.21349796  0.12903338  1
  Al  Al5  1  0.10902618  0.09578388  0.91960418  1
  Al  Al6  1  0.88979231  0.20927863  0.15292842  1
  Al  Al7  1  0.44290152  0.08918214  0.92444734  1
  Al  Al8  1  0.10629570  0.43389490  0.39748245  1
  Al  Al9  1  0.22737743  0.53930716  0.15798857  1
  Al  Al10  1  0.77710255  0.41095385  0.90324718  1
  Al  Al11  1  0.89053055  0.54801456  0.64804046  1
  Al  Al12  1  0.43601630  0.43473257  0.39073801  1
  Al  Al13  1  0.55569526  0.52956994  0.15293590  1
  Al  Al14  1  0.12973575  0.41084483  0.90270553  1
  Al  Al15  1  0.22716191  0.53547931  0.63458745  1
  Al  Al16  1  0.77585396  0.44088767  0.39987146  1
  Al  Al17  1  0.45097218  0.41410461  0.91080584  1
  Al  Al18  1  0.55163856  0.53251693  0.64420299  1
  Al  Al19  1  0.11482470  0.75449781  0.40011292  1
  Al  Al20  1  0.21184737  0.87602492  0.15405447  1
  Al  Al21  1  0.76323972  0.78547972  0.89517779  1
  Al  Al22  1  0.89257939  0.86906715  0.64690679  1
  Al  Al23  1  0.44409601  0.75859914  0.33138371  1
  Al  Al24  1  0.55829876  0.88141012  0.15731102  1
  Al  Al25  1  0.21577961  0.86614725  0.64780421  1
  Al  Al26  1  0.79690041  0.74745013  0.40064234  1
  Al  Al27  1  0.89344345  0.86917907  0.15327480  1
  Gd  Gd28  1  0.89543683  0.20719598  0.65126841  1
  Gd  Gd29  1  0.22319955  0.20524950  0.64923862  1
  Gd  Gd30  1  0.76782905  0.09664014  0.37732173  1
  Gd  Gd31  1  0.55338902  0.21401687  0.67739876  1
  Gd  Gd32  1  0.88789065  0.54427202  0.13145211  1
  Gd  Gd33  1  0.11044193  0.74307228  0.88864481  1
  Gd  Gd34  1  0.45088911  0.74907003  0.88234019  1
  Gd  Gd35  1  0.55368589  0.86519341  0.61046091  1
  N  N36  1  0.21365533  0.21372403  0.33852691  1
  N  N37  1  0.11086994  0.09498026  0.10498277  1
  N  N38  1  0.89443313  0.19616580  0.87248021  1
  N  N39  1  0.78650690  0.07524273  0.59242614  1
  N  N40  1  0.51732381  0.23400467  0.31390859  1
  N  N41  1  0.43830641  0.08928825  0.10759932  1
  N  N42  1  0.22504992  0.19588822  0.87168910  1
  N  N43  1  0.13100867  0.06077407  0.56751768  1
  N  N44  1  0.89898148  0.22741356  0.33940309  1
  N  N45  1  0.78716861  0.08949920  0.11546920  1
  N  N46  1  0.56005554  0.19518412  0.90888589  1
  N  N47  1  0.44637730  0.11375323  0.55753832  1
  N  N48  1  0.21895458  0.54173094  0.34199262  1
  N  N49  1  0.14478952  0.41623331  0.08646124  1
  N  N50  1  0.89038134  0.53924939  0.85014203  1
  N  N51  1  0.76122476  0.46459368  0.58346667  1
  N  N52  1  0.55813677  0.53533231  0.33685328  1
  N  N53  1  0.43417879  0.44560280  0.09121890  1
  N  N54  1  0.25585118  0.48460868  0.81863710  1
  N  N55  1  0.09825166  0.45057604  0.58040693  1
  N  N56  1  0.88891448  0.54008959  0.34734667  1
  N  N57  1  0.75917853  0.41615964  0.08546524  1
  N  N58  1  0.57924535  0.48041158  0.82658887  1
  N  N59  1  0.43704033  0.44426914  0.57078110  1
  N  N60  1  0.21887678  0.87013418  0.33822437  1
  N  N61  1  0.11144101  0.75904997  0.10569005  1
  N  N62  1  0.86261286  0.89287897  0.83454229  1
  N  N63  1  0.80958379  0.74942531  0.58386401  1
  N  N64  1  0.56255359  0.87073876  0.34837636  1
  N  N65  1  0.44664746  0.76207756  0.13063475  1
  N  N66  1  0.19733556  0.90199443  0.83883309  1
  N  N67  1  0.11051542  0.75675772  0.59604152  1
  N  N68  1  0.90716281  0.83966596  0.33351497  1
  N  N69  1  0.75946140  0.79913907  0.08033265  1
  N  N70  1  0.55559190  0.89677821  0.83830142  1
  N  N71  1  0.42653515  0.74160735  0.64721078  1
