# generated using pymatgen
data_Gd2Al7N9
_symmetry_space_group_name_H-M   'P 1'
_cell_length_a   9.84463391
_cell_length_b   9.93849718
_cell_length_c   10.58183916
_cell_angle_alpha   89.27952591
_cell_angle_beta   89.49468533
_cell_angle_gamma   59.93806665
_symmetry_Int_Tables_number   1
_chemical_formula_structural   Gd2Al7N9
_chemical_formula_sum   'Gd8 Al28 N36'
_cell_volume   895.99281186
_cell_formula_units_Z   4
loop_
 _symmetry_equiv_pos_site_id
 _symmetry_equiv_pos_as_xyz
  1  'x, y, z'
loop_
 _atom_site_type_symbol
 _atom_site_label
 _atom_site_symmetry_multiplicity
 _atom_site_fract_x
 _atom_site_fract_y
 _atom_site_fract_z
 _atom_site_occupancy
  Al  Al0  1  0.10547155  0.10276000  0.33674387  1
  Al  Al1  1  0.22673747  0.20992544  0.15784606  1
  Al  Al2  1  0.76596913  0.09776090  0.92869446  1
  Al  Al3  1  0.44164014  0.10204610  0.38384153  1
  Al  Al4  1  0.53941731  0.21793102  0.13988894  1
  Al  Al5  1  0.12522502  0.08441122  0.84852154  1
  Al  Al6  1  0.89687209  0.20286526  0.08529828  1
  Al  Al7  1  0.43859668  0.09202720  0.91918610  1
  Al  Al8  1  0.10757582  0.43833299  0.36052825  1
  Al  Al9  1  0.23408599  0.53974349  0.15686627  1
  Al  Al10  1  0.77978302  0.41173695  0.89950233  1
  Al  Al11  1  0.89110754  0.54683406  0.66233348  1
  Al  Al12  1  0.44104566  0.43128369  0.39611945  1
  Al  Al13  1  0.56055493  0.52638710  0.15713132  1
  Al  Al14  1  0.12911039  0.41351065  0.84739410  1
  Al  Al15  1  0.22938819  0.53327309  0.63388874  1
  Al  Al16  1  0.78055379  0.45067157  0.41265266  1
  Al  Al17  1  0.44874614  0.41712777  0.90803207  1
  Al  Al18  1  0.54256835  0.53583569  0.65111360  1
  Al  Al19  1  0.11404170  0.75796829  0.34508253  1
  Al  Al20  1  0.21424138  0.88266570  0.10358063  1
  Al  Al21  1  0.77521797  0.78913080  0.83527325  1
  Al  Al22  1  0.90296311  0.85009190  0.56707705  1
  Al  Al23  1  0.43831528  0.75890696  0.32811463  1
  Al  Al24  1  0.54778398  0.88685849  0.15943164  1
  Al  Al25  1  0.22126545  0.85507034  0.57866633  1
  Al  Al26  1  0.78590502  0.75778392  0.32482762  1
  Al  Al27  1  0.89186807  0.87648034  0.09859714  1
  Gd  Gd28  1  0.86243904  0.21669436  0.64408382  1
  Gd  Gd29  1  0.19278186  0.19442978  0.59113866  1
  Gd  Gd30  1  0.78196079  0.10342858  0.36468029  1
  Gd  Gd31  1  0.53742431  0.19600473  0.66938303  1
  Gd  Gd32  1  0.89360994  0.54622612  0.10107014  1
  Gd  Gd33  1  0.10590464  0.78693889  0.82060104  1
  Gd  Gd34  1  0.46553776  0.74342305  0.88284821  1
  Gd  Gd35  1  0.57178066  0.83101209  0.59209615  1
  N  N36  1  0.22075018  0.21177949  0.34730388  1
  N  N37  1  0.10240809  0.10259600  0.15599187  1
  N  N38  1  0.90161909  0.18993601  0.89632648  1
  N  N39  1  0.77567680  0.06740040  0.58699914  1
  N  N40  1  0.52247248  0.22746137  0.32221524  1
  N  N41  1  0.43684553  0.09328961  0.10292386  1
  N  N42  1  0.23151951  0.19887525  0.84663465  1
  N  N43  1  0.10951015  0.03482955  0.67845763  1
  N  N44  1  0.91554433  0.22834003  0.42133577  1
  N  N45  1  0.77671506  0.10315034  0.11751473  1
  N  N46  1  0.55302147  0.19922967  0.89334231  1
  N  N47  1  0.43955132  0.08496660  0.55725818  1
  N  N48  1  0.22905153  0.53789197  0.34115746  1
  N  N49  1  0.14882539  0.41617162  0.11590745  1
  N  N50  1  0.89367411  0.52607628  0.85569096  1
  N  N51  1  0.74301716  0.50127803  0.58812476  1
  N  N52  1  0.56241317  0.53085293  0.33914360  1
  N  N53  1  0.44117075  0.44178481  0.08997977  1
  N  N54  1  0.24901870  0.51236711  0.82403547  1
  N  N55  1  0.10099162  0.44529908  0.61208404  1
  N  N56  1  0.88993791  0.54060509  0.33617614  1
  N  N57  1  0.75850289  0.42064853  0.08026833  1
  N  N58  1  0.58740053  0.47286154  0.82434550  1
  N  N59  1  0.44234154  0.43617904  0.57377248  1
  N  N60  1  0.22277401  0.87861084  0.39154058  1
  N  N61  1  0.10841569  0.77086499  0.15487049  1
  N  N62  1  0.87338068  0.88030305  0.91891612  1
  N  N63  1  0.81588428  0.75762901  0.66352278  1
  N  N64  1  0.55284999  0.87060490  0.35003084  1
  N  N65  1  0.44379801  0.76264745  0.14218204  1
  N  N66  1  0.21711569  0.89586017  0.93159765  1
  N  N67  1  0.11655132  0.74649034  0.60176653  1
  N  N68  1  0.90164936  0.84081168  0.38880999  1
  N  N69  1  0.76323992  0.79967405  0.14979027  1
  N  N70  1  0.56089779  0.89625201  0.84576148  1
  N  N71  1  0.41099854  0.74781050  0.66360493  1
