# generated using pymatgen
data_Gd2Al7N9
_symmetry_space_group_name_H-M   'P 1'
_cell_length_a   9.79715524
_cell_length_b   9.91520764
_cell_length_c   10.69494080
_cell_angle_alpha   89.40630870
_cell_angle_beta   89.17878896
_cell_angle_gamma   59.92198179
_symmetry_Int_Tables_number   1
_chemical_formula_structural   Gd2Al7N9
_chemical_formula_sum   'Gd8 Al28 N36'
_cell_volume   898.92056446
_cell_formula_units_Z   4
loop_
 _symmetry_equiv_pos_site_id
 _symmetry_equiv_pos_as_xyz
  1  'x, y, z'
loop_
 _atom_site_type_symbol
 _atom_site_label
 _atom_site_symmetry_multiplicity
 _atom_site_fract_x
 _atom_site_fract_y
 _atom_site_fract_z
 _atom_site_occupancy
  Al  Al0  1  0.10778295  0.09716077  0.33076085  1
  Al  Al1  1  0.23071136  0.20177263  0.14830248  1
  Al  Al2  1  0.76788733  0.09342983  0.92779926  1
  Al  Al3  1  0.44149629  0.10050360  0.38308843  1
  Al  Al4  1  0.54539755  0.21380546  0.14465700  1
  Al  Al5  1  0.12792527  0.08482172  0.84724876  1
  Al  Al6  1  0.89899121  0.20069179  0.08170271  1
  Al  Al7  1  0.43903909  0.09388768  0.92251231  1
  Al  Al8  1  0.11284802  0.43143423  0.32048071  1
  Al  Al9  1  0.24046659  0.54171835  0.15351377  1
  Al  Al10  1  0.77832716  0.41172363  0.89931286  1
  Al  Al11  1  0.88439677  0.54934958  0.66855265  1
  Al  Al12  1  0.44756294  0.42883534  0.39400052  1
  Al  Al13  1  0.56841069  0.52458689  0.15917958  1
  Al  Al14  1  0.13644141  0.41283520  0.82684379  1
  Al  Al15  1  0.21722294  0.54179591  0.58504569  1
  Al  Al16  1  0.78495303  0.44771145  0.41485863  1
  Al  Al17  1  0.45145383  0.41459935  0.91587040  1
  Al  Al18  1  0.53925106  0.53661975  0.65333241  1
  Al  Al19  1  0.11320684  0.76027324  0.34542323  1
  Al  Al20  1  0.21690081  0.87926962  0.09984695  1
  Al  Al21  1  0.77186224  0.79124500  0.83284503  1
  Al  Al22  1  0.89563606  0.85571127  0.56731154  1
  Al  Al23  1  0.44010502  0.75794910  0.32890865  1
  Al  Al24  1  0.55173861  0.88409713  0.16265706  1
  Al  Al25  1  0.21846891  0.86228957  0.58016870  1
  Al  Al26  1  0.78986175  0.75228441  0.32581885  1
  Al  Al27  1  0.89360195  0.87458380  0.09836763  1
  Gd  Gd28  1  0.85676952  0.21660101  0.65048190  1
  Gd  Gd29  1  0.16859094  0.21352122  0.56376100  1
  Gd  Gd30  1  0.78322127  0.10366352  0.36838467  1
  Gd  Gd31  1  0.52205501  0.20464485  0.67076259  1
  Gd  Gd32  1  0.90093575  0.54771015  0.08474879  1
  Gd  Gd33  1  0.11341750  0.77003300  0.82077926  1
  Gd  Gd34  1  0.46639764  0.74368956  0.88180337  1
  Gd  Gd35  1  0.56146571  0.84278836  0.59653747  1
  N  N36  1  0.22378648  0.20442401  0.33931428  1
  N  N37  1  0.10375082  0.09778898  0.15272569  1
  N  N38  1  0.90051947  0.18852854  0.89450608  1
  N  N39  1  0.76471989  0.07238027  0.58744215  1
  N  N40  1  0.52432183  0.22563147  0.32359996  1
  N  N41  1  0.44504949  0.08921328  0.10403460  1
  N  N42  1  0.22361609  0.20551667  0.87536714  1
  N  N43  1  0.11350508  0.04876181  0.67399138  1
  N  N44  1  0.92218197  0.22401061  0.42391183  1
  N  N45  1  0.77947213  0.10044665  0.11679252  1
  N  N46  1  0.55553509  0.19787122  0.89194778  1
  N  N47  1  0.42277258  0.09555652  0.55536645  1
  N  N48  1  0.22744776  0.53903834  0.35696176  1
  N  N49  1  0.15057419  0.41650966  0.14393082  1
  N  N50  1  0.88277145  0.53391480  0.85572907  1
  N  N51  1  0.74513247  0.49497317  0.59011775  1
  N  N52  1  0.56724523  0.52917003  0.33921402  1
  N  N53  1  0.45097803  0.43560515  0.09742489  1
  N  N54  1  0.24584362  0.51577289  0.85966765  1
  N  N55  1  0.10636457  0.44392010  0.64573203  1
  N  N56  1  0.89401112  0.53644488  0.33930531  1
  N  N57  1  0.76533843  0.42011827  0.07923391  1
  N  N58  1  0.58563924  0.47265667  0.82497582  1
  N  N59  1  0.44001329  0.43925589  0.57067947  1
  N  N60  1  0.22379976  0.87722331  0.39211212  1
  N  N61  1  0.11194817  0.76769546  0.15782975  1
  N  N62  1  0.87482843  0.87491507  0.92028729  1
  N  N63  1  0.81200986  0.75901828  0.66158246  1
  N  N64  1  0.55477063  0.86932160  0.35121591  1
  N  N65  1  0.44606019  0.76118904  0.14306789  1
  N  N66  1  0.21569030  0.89297697  0.92896042  1
  N  N67  1  0.11056858  0.75432457  0.60104575  1
  N  N68  1  0.90039572  0.84221855  0.39000315  1
  N  N69  1  0.76837159  0.79374318  0.15215729  1
  N  N70  1  0.55556596  0.90251939  0.83936820  1
  N  N71  1  0.40762253  0.74872404  0.66543502  1
