# generated using pymatgen
data_Gd2Al7N9
_symmetry_space_group_name_H-M   'P 1'
_cell_length_a   9.85811093
_cell_length_b   9.86571864
_cell_length_c   10.42476026
_cell_angle_alpha   89.60955177
_cell_angle_beta   89.76783005
_cell_angle_gamma   60.01570411
_symmetry_Int_Tables_number   1
_chemical_formula_structural   Gd2Al7N9
_chemical_formula_sum   'Gd8 Al28 N36'
_cell_volume   878.16805078
_cell_formula_units_Z   4
loop_
 _symmetry_equiv_pos_site_id
 _symmetry_equiv_pos_as_xyz
  1  'x, y, z'
loop_
 _atom_site_type_symbol
 _atom_site_label
 _atom_site_symmetry_multiplicity
 _atom_site_fract_x
 _atom_site_fract_y
 _atom_site_fract_z
 _atom_site_occupancy
  Al  Al0  1  0.11308008  0.09541573  0.38993889  1
  Al  Al1  1  0.22592903  0.20392610  0.15587620  1
  Al  Al2  1  0.78055544  0.08958879  0.93054920  1
  Al  Al3  1  0.43361225  0.10761457  0.38540968  1
  Al  Al4  1  0.54455211  0.21339678  0.13844211  1
  Al  Al5  1  0.11344098  0.09329226  0.92052335  1
  Al  Al6  1  0.88933178  0.20832911  0.15124391  1
  Al  Al7  1  0.44521658  0.08953586  0.93168527  1
  Al  Al8  1  0.10774952  0.43281261  0.40182388  1
  Al  Al9  1  0.22738679  0.54010099  0.16106867  1
  Al  Al10  1  0.77537201  0.41521295  0.90611668  1
  Al  Al11  1  0.89150633  0.54622534  0.65055122  1
  Al  Al12  1  0.43522862  0.43331620  0.39509965  1
  Al  Al13  1  0.55102201  0.53754234  0.16244726  1
  Al  Al14  1  0.12942124  0.41235464  0.90789004  1
  Al  Al15  1  0.22461040  0.53634208  0.64010096  1
  Al  Al16  1  0.77676645  0.43907376  0.40304659  1
  Al  Al17  1  0.45021585  0.41737392  0.91497679  1
  Al  Al18  1  0.54879781  0.53757479  0.63838745  1
  Al  Al19  1  0.11277452  0.75428079  0.40445892  1
  Al  Al20  1  0.22112925  0.87088981  0.16520969  1
  Al  Al21  1  0.76865068  0.77900994  0.90507498  1
  Al  Al22  1  0.89266222  0.86820484  0.65200122  1
  Al  Al23  1  0.43895275  0.75529673  0.39690188  1
  Al  Al24  1  0.55488501  0.87551937  0.16803312  1
  Al  Al25  1  0.21830384  0.86744966  0.63844876  1
  Al  Al26  1  0.79205975  0.74985927  0.40527738  1
  Al  Al27  1  0.89465682  0.86724401  0.15782061  1
  Gd  Gd28  1  0.89143650  0.20632052  0.65881616  1
  Gd  Gd29  1  0.21979097  0.20356785  0.65446615  1
  Gd  Gd30  1  0.77021058  0.09706724  0.38165402  1
  Gd  Gd31  1  0.54892287  0.21619335  0.67990532  1
  Gd  Gd32  1  0.88919896  0.53933054  0.14053943  1
  Gd  Gd33  1  0.11406312  0.74940584  0.89036143  1
  Gd  Gd34  1  0.45228064  0.75012779  0.90422098  1
  Gd  Gd35  1  0.55913611  0.86731379  0.63101243  1
  N  N36  1  0.21493897  0.21237439  0.34161741  1
  N  N37  1  0.11452166  0.09060759  0.10577849  1
  N  N38  1  0.89467509  0.19560596  0.87909640  1
  N  N39  1  0.78325677  0.07495461  0.59656557  1
  N  N40  1  0.51836112  0.23066606  0.32194039  1
  N  N41  1  0.44176995  0.08729061  0.11346088  1
  N  N42  1  0.22826172  0.19575324  0.87603225  1
  N  N43  1  0.12173716  0.06813894  0.56772400  1
  N  N44  1  0.89892548  0.22879880  0.33616317  1
  N  N45  1  0.78488316  0.08922528  0.11847703  1
  N  N46  1  0.55945408  0.19757951  0.90796690  1
  N  N47  1  0.44475903  0.10985780  0.56413705  1
  N  N48  1  0.21881167  0.54136610  0.34513223  1
  N  N49  1  0.14567245  0.41591089  0.09028786  1
  N  N50  1  0.89075317  0.53776541  0.85322427  1
  N  N51  1  0.76297804  0.46196630  0.58678902  1
  N  N52  1  0.55717865  0.53532449  0.34452696  1
  N  N53  1  0.43628056  0.44501307  0.09624857  1
  N  N54  1  0.25290910  0.49013850  0.82452882  1
  N  N55  1  0.09988878  0.44946630  0.58468241  1
  N  N56  1  0.88958132  0.53987566  0.35450288  1
  N  N57  1  0.75424344  0.41937152  0.08704066  1
  N  N58  1  0.57226750  0.49426347  0.82422752  1
  N  N59  1  0.43358340  0.44552449  0.57514474  1
  N  N60  1  0.21765694  0.86992148  0.34634044  1
  N  N61  1  0.11418795  0.76062265  0.10809467  1
  N  N62  1  0.86366001  0.89045283  0.83988236  1
  N  N63  1  0.81009975  0.74934468  0.58751208  1
  N  N64  1  0.56055745  0.86878516  0.35641331  1
  N  N65  1  0.44539027  0.76249360  0.12283751  1
  N  N66  1  0.21063045  0.90134063  0.82462445  1
  N  N67  1  0.11003675  0.75731579  0.60082866  1
  N  N68  1  0.90625595  0.83949433  0.33767553  1
  N  N69  1  0.76135114  0.79442671  0.08872593  1
  N  N70  1  0.55904137  0.89178303  0.85063003  1
  N  N71  1  0.42607815  0.74591758  0.58310626  1
