# generated using pymatgen
data_Gd2Al7N9
_symmetry_space_group_name_H-M   'P 1'
_cell_length_a   9.84174775
_cell_length_b   9.86346177
_cell_length_c   10.47270998
_cell_angle_alpha   89.54285450
_cell_angle_beta   89.77147022
_cell_angle_gamma   59.96892426
_symmetry_Int_Tables_number   1
_chemical_formula_structural   Gd2Al7N9
_chemical_formula_sum   'Gd8 Al28 N36'
_cell_volume   880.11900690
_cell_formula_units_Z   4
loop_
 _symmetry_equiv_pos_site_id
 _symmetry_equiv_pos_as_xyz
  1  'x, y, z'
loop_
 _atom_site_type_symbol
 _atom_site_label
 _atom_site_symmetry_multiplicity
 _atom_site_fract_x
 _atom_site_fract_y
 _atom_site_fract_z
 _atom_site_occupancy
  Al  Al0  1  0.11264907  0.09930305  0.28863189  1
  Al  Al1  1  0.22353724  0.20629682  0.05149448  1
  Al  Al2  1  0.77514444  0.08830642  0.81753548  1
  Al  Al3  1  0.43805025  0.09759970  0.27932677  1
  Al  Al4  1  0.55090108  0.21139255  0.04114309  1
  Al  Al5  1  0.11424159  0.09356112  0.81590673  1
  Al  Al6  1  0.88596275  0.20723558  0.03948254  1
  Al  Al7  1  0.44496091  0.09663305  0.81933685  1
  Al  Al8  1  0.11893840  0.42312490  0.29751714  1
  Al  Al9  1  0.22868744  0.53310842  0.05641708  1
  Al  Al10  1  0.77316058  0.43557584  0.80291728  1
  Al  Al11  1  0.89201756  0.54762902  0.56149297  1
  Al  Al12  1  0.43811232  0.42774623  0.29520187  1
  Al  Al13  1  0.55546945  0.52723210  0.05821806  1
  Al  Al14  1  0.11429514  0.42746368  0.80483430  1
  Al  Al15  1  0.22026065  0.54690966  0.54422233  1
  Al  Al16  1  0.77859199  0.42606439  0.30604924  1
  Al  Al17  1  0.44408262  0.42744635  0.81111205  1
  Al  Al18  1  0.54340407  0.54922435  0.54653833  1
  Al  Al19  1  0.11175934  0.75319334  0.30521666  1
  Al  Al20  1  0.21691139  0.87516232  0.06423315  1
  Al  Al21  1  0.78184787  0.76410278  0.80399973  1
  Al  Al22  1  0.90036843  0.85820262  0.54679401  1
  Al  Al23  1  0.44345318  0.75867329  0.29088661  1
  Al  Al24  1  0.55733016  0.87969097  0.05759240  1
  Al  Al25  1  0.22198352  0.86545083  0.53318718  1
  Al  Al26  1  0.77870337  0.76121450  0.29594476  1
  Al  Al27  1  0.88772417  0.87525496  0.04852710  1
  Gd  Gd28  1  0.89068406  0.20575425  0.57742526  1
  Gd  Gd29  1  0.21634577  0.20415239  0.55192313  1
  Gd  Gd30  1  0.78071207  0.09589758  0.28854659  1
  Gd  Gd31  1  0.55032247  0.21432034  0.56548383  1
  Gd  Gd32  1  0.88559207  0.53976485  0.06093640  1
  Gd  Gd33  1  0.10992874  0.76182060  0.79119896  1
  Gd  Gd34  1  0.44468684  0.76183139  0.80815315  1
  Gd  Gd35  1  0.56880929  0.86307793  0.54173696  1
  N  N36  1  0.22623516  0.20024929  0.33441022  1
  N  N37  1  0.10424599  0.10119809  0.10560162  1
  N  N38  1  0.88819133  0.21208204  0.84931769  1
  N  N39  1  0.79477387  0.05546949  0.63085604  1
  N  N40  1  0.52835499  0.21352529  0.34727951  1
  N  N41  1  0.44289990  0.09914847  0.09564237  1
  N  N42  1  0.21790390  0.20934878  0.86376273  1
  N  N43  1  0.13433820  0.05040137  0.63634441  1
  N  N44  1  0.90936025  0.21542693  0.36260052  1
  N  N45  1  0.77653941  0.09794576  0.07420240  1
  N  N46  1  0.55269792  0.20992597  0.85544558  1
  N  N47  1  0.44312820  0.08723277  0.64125417  1
  N  N48  1  0.22538592  0.53283710  0.35829856  1
  N  N49  1  0.13722000  0.41500989  0.11714511  1
  N  N50  1  0.88981837  0.53902784  0.84713067  1
  N  N51  1  0.75224132  0.47194935  0.61913662  1
  N  N52  1  0.55379289  0.53351234  0.35853300  1
  N  N53  1  0.44355964  0.42553634  0.11172256  1
  N  N54  1  0.23431489  0.51470929  0.87533724  1
  N  N55  1  0.10647292  0.45265785  0.61953985  1
  N  N56  1  0.88861999  0.53999299  0.35481311  1
  N  N57  1  0.76452485  0.40698616  0.12323770  1
  N  N58  1  0.57025319  0.50972318  0.87711786  1
  N  N59  1  0.42368113  0.46535322  0.62760263  1
  N  N60  1  0.21909636  0.87617561  0.34437921  1
  N  N61  1  0.10847825  0.75870044  0.11468550  1
  N  N62  1  0.87221900  0.87639035  0.87161234  1
  N  N63  1  0.81048563  0.74992295  0.62343530  1
  N  N64  1  0.55104308  0.87474158  0.32632559  1
  N  N65  1  0.44783686  0.75521923  0.10426613  1
  N  N66  1  0.20601975  0.89494207  0.88833750  1
  N  N67  1  0.11506659  0.76050909  0.57279936  1
  N  N68  1  0.89550425  0.84872048  0.36485620  1
  N  N69  1  0.76796155  0.79146591  0.11841818  1
  N  N70  1  0.57219719  0.88172281  0.87273029  1
  N  N71  1  0.42702591  0.75683612  0.58915227  1
