# generated using pymatgen
data_Gd2Al7N9
_symmetry_space_group_name_H-M   'P 1'
_cell_length_a   9.80454079
_cell_length_b   9.86518491
_cell_length_c   10.72728376
_cell_angle_alpha   89.54113832
_cell_angle_beta   89.35951993
_cell_angle_gamma   60.14942443
_symmetry_Int_Tables_number   1
_chemical_formula_structural   Gd2Al7N9
_chemical_formula_sum   'Gd8 Al28 N36'
_cell_volume   899.86213508
_cell_formula_units_Z   4
loop_
 _symmetry_equiv_pos_site_id
 _symmetry_equiv_pos_as_xyz
  1  'x, y, z'
loop_
 _atom_site_type_symbol
 _atom_site_label
 _atom_site_symmetry_multiplicity
 _atom_site_fract_x
 _atom_site_fract_y
 _atom_site_fract_z
 _atom_site_occupancy
  Al  Al0  1  0.10910124  0.10484530  0.30929533  1
  Al  Al1  1  0.22143781  0.20607153  0.07014808  1
  Al  Al2  1  0.76959279  0.09346629  0.90607013  1
  Al  Al3  1  0.43582363  0.09654565  0.29118674  1
  Al  Al4  1  0.54573458  0.21990816  0.12326727  1
  Al  Al5  1  0.11752343  0.08580387  0.82832088  1
  Al  Al6  1  0.89510337  0.20284170  0.06236898  1
  Al  Al7  1  0.44192590  0.09155368  0.86433454  1
  Al  Al8  1  0.11990400  0.42433532  0.29833020  1
  Al  Al9  1  0.22787278  0.53987668  0.06684091  1
  Al  Al10  1  0.77305308  0.41547292  0.87839189  1
  Al  Al11  1  0.88895984  0.55064188  0.65269503  1
  Al  Al12  1  0.44395183  0.43245180  0.37051277  1
  Al  Al13  1  0.55946664  0.53088255  0.13639666  1
  Al  Al14  1  0.12753025  0.41742793  0.82127928  1
  Al  Al15  1  0.21504436  0.54512498  0.54525457  1
  Al  Al16  1  0.78258024  0.45105614  0.38747627  1
  Al  Al17  1  0.45718393  0.41285606  0.89581118  1
  Al  Al18  1  0.54497290  0.54050640  0.62228995  1
  Al  Al19  1  0.11426933  0.74898875  0.31609155  1
  Al  Al20  1  0.21480675  0.87779351  0.07743302  1
  Al  Al21  1  0.77404713  0.78064505  0.82706533  1
  Al  Al22  1  0.90085304  0.85143465  0.54718253  1
  Al  Al23  1  0.43829196  0.76850259  0.30068011  1
  Al  Al24  1  0.55647024  0.87944413  0.07517185  1
  Al  Al25  1  0.22019001  0.86356204  0.55438278  1
  Al  Al26  1  0.77878362  0.75884481  0.30024158  1
  Al  Al27  1  0.89272766  0.87305584  0.07605923  1
  Gd  Gd28  1  0.87288809  0.21734905  0.61031822  1
  Gd  Gd29  1  0.20866266  0.20494426  0.55887854  1
  Gd  Gd30  1  0.78448993  0.09701837  0.34304893  1
  Gd  Gd31  1  0.54946309  0.21270799  0.64755111  1
  Gd  Gd32  1  0.89185906  0.54355016  0.08271183  1
  Gd  Gd33  1  0.10486361  0.76404927  0.79966775  1
  Gd  Gd34  1  0.45048584  0.74942019  0.84216389  1
  Gd  Gd35  1  0.57338574  0.84518835  0.55686949  1
  N  N36  1  0.22625370  0.20442370  0.34402529  1
  N  N37  1  0.10323513  0.10140829  0.12811789  1
  N  N38  1  0.89594815  0.19256042  0.87178641  1
  N  N39  1  0.77964102  0.06723272  0.55960525  1
  N  N40  1  0.52500252  0.22842442  0.30208093  1
  N  N41  1  0.43950507  0.09635361  0.10594411  1
  N  N42  1  0.21546492  0.20562503  0.88585419  1
  N  N43  1  0.12171033  0.05366203  0.65213522  1
  N  N44  1  0.91311621  0.22788934  0.39162585  1
  N  N45  1  0.77816721  0.10018124  0.09343153  1
  N  N46  1  0.55661475  0.19749598  0.86620059  1
  N  N47  1  0.43576938  0.07608970  0.64701434  1
  N  N48  1  0.21752863  0.53472248  0.36431441  1
  N  N49  1  0.14901719  0.41231272  0.12241757  1
  N  N50  1  0.88473661  0.53240231  0.84075083  1
  N  N51  1  0.75207765  0.49747391  0.56632507  1
  N  N52  1  0.56138904  0.53692318  0.31533958  1
  N  N53  1  0.45090714  0.43505431  0.07338131  1
  N  N54  1  0.23238131  0.51933596  0.88575592  1
  N  N55  1  0.11386291  0.44817293  0.64198779  1
  N  N56  1  0.89202795  0.53754546  0.30920428  1
  N  N57  1  0.75599264  0.42000403  0.05650311  1
  N  N58  1  0.57867796  0.47943185  0.79979636  1
  N  N59  1  0.44020943  0.44651767  0.54753319  1
  N  N60  1  0.21937422  0.87773086  0.36522536  1
  N  N61  1  0.11239321  0.75849548  0.13089658  1
  N  N62  1  0.87520279  0.87656091  0.89943231  1
  N  N63  1  0.80888859  0.76496638  0.65371304  1
  N  N64  1  0.55090065  0.87629815  0.34116939  1
  N  N65  1  0.44221909  0.76446458  0.11636539  1
  N  N66  1  0.20521796  0.89103207  0.90473800  1
  N  N67  1  0.11325961  0.75541299  0.58630089  1
  N  N68  1  0.90210774  0.83332866  0.36989918  1
  N  N69  1  0.76306468  0.79741245  0.12873496  1
  N  N70  1  0.57146294  0.87812773  0.89573205  1
  N  N71  1  0.41749573  0.75469385  0.63019523  1
