# generated using pymatgen
data_Gd2Al7N9
_symmetry_space_group_name_H-M   'P 1'
_cell_length_a   9.79804245
_cell_length_b   9.87421241
_cell_length_c   10.75052571
_cell_angle_alpha   89.38812238
_cell_angle_beta   89.26387350
_cell_angle_gamma   60.05440844
_symmetry_Int_Tables_number   1
_chemical_formula_structural   Gd2Al7N9
_chemical_formula_sum   'Gd8 Al28 N36'
_cell_volume   901.15365859
_cell_formula_units_Z   4
loop_
 _symmetry_equiv_pos_site_id
 _symmetry_equiv_pos_as_xyz
  1  'x, y, z'
loop_
 _atom_site_type_symbol
 _atom_site_label
 _atom_site_symmetry_multiplicity
 _atom_site_fract_x
 _atom_site_fract_y
 _atom_site_fract_z
 _atom_site_occupancy
  Al  Al0  1  0.10861148  0.10312850  0.30694114  1
  Al  Al1  1  0.21901065  0.20736469  0.08055949  1
  Al  Al2  1  0.76812242  0.09456474  0.90444851  1
  Al  Al3  1  0.43958473  0.09595844  0.33794363  1
  Al  Al4  1  0.54386887  0.21833687  0.13034009  1
  Al  Al5  1  0.12046516  0.08628726  0.82958895  1
  Al  Al6  1  0.89403918  0.20192279  0.06121495  1
  Al  Al7  1  0.44543472  0.09778608  0.90957284  1
  Al  Al8  1  0.11948976  0.42702602  0.29583196  1
  Al  Al9  1  0.22890467  0.54047737  0.06562777  1
  Al  Al10  1  0.77383279  0.41582705  0.87959622  1
  Al  Al11  1  0.88879271  0.55238290  0.65563269  1
  Al  Al12  1  0.44515936  0.43187622  0.37313361  1
  Al  Al13  1  0.56038495  0.52782924  0.13635028  1
  Al  Al14  1  0.13004257  0.41623508  0.82239054  1
  Al  Al15  1  0.21578167  0.54499623  0.54699530  1
  Al  Al16  1  0.78433524  0.44973355  0.38913267  1
  Al  Al17  1  0.45901723  0.41091743  0.89455340  1
  Al  Al18  1  0.54495126  0.53924141  0.62650936  1
  Al  Al19  1  0.11463072  0.74883661  0.31728067  1
  Al  Al20  1  0.21430109  0.87704174  0.07709355  1
  Al  Al21  1  0.77250632  0.78365208  0.82790319  1
  Al  Al22  1  0.89939916  0.85282691  0.54856072  1
  Al  Al23  1  0.43787008  0.76609504  0.29820930  1
  Al  Al24  1  0.55705622  0.87769347  0.08358657  1
  Al  Al25  1  0.22015274  0.86530104  0.55603618  1
  Al  Al26  1  0.78164869  0.75735495  0.29850028  1
  Al  Al27  1  0.89337711  0.87388321  0.07519573  1
  Gd  Gd28  1  0.86883529  0.21790355  0.61834381  1
  Gd  Gd29  1  0.18515009  0.21671474  0.54703279  1
  Gd  Gd30  1  0.78747908  0.09758710  0.34604519  1
  Gd  Gd31  1  0.53938335  0.20372442  0.63976251  1
  Gd  Gd32  1  0.89174492  0.54401963  0.08061642  1
  Gd  Gd33  1  0.10657593  0.76484771  0.79928366  1
  Gd  Gd34  1  0.45232406  0.75014072  0.84566935  1
  Gd  Gd35  1  0.57712183  0.83175449  0.54815120  1
  N  N36  1  0.22076787  0.20753494  0.33248834  1
  N  N37  1  0.10138741  0.09990777  0.12772438  1
  N  N38  1  0.89635777  0.19272933  0.87181311  1
  N  N39  1  0.77914470  0.06932815  0.56167454  1
  N  N40  1  0.52652956  0.22670681  0.30606540  1
  N  N41  1  0.44115714  0.09910162  0.09163863  1
  N  N42  1  0.21802054  0.20552762  0.88682239  1
  N  N43  1  0.12223488  0.05378945  0.65431349  1
  N  N44  1  0.91716842  0.22677129  0.39633652  1
  N  N45  1  0.77621361  0.10068815  0.09317714  1
  N  N46  1  0.55619605  0.19684318  0.85894697  1
  N  N47  1  0.43471415  0.08555077  0.55011835  1
  N  N48  1  0.21852152  0.53410055  0.36598694  1
  N  N49  1  0.14763869  0.41594518  0.12136232  1
  N  N50  1  0.88493149  0.53311596  0.84160910  1
  N  N51  1  0.75256386  0.49802671  0.56758553  1
  N  N52  1  0.56228556  0.53468306  0.31547843  1
  N  N53  1  0.45249641  0.43154122  0.07347571  1
  N  N54  1  0.23362123  0.52004621  0.88569405  1
  N  N55  1  0.11511111  0.44929930  0.64375218  1
  N  N56  1  0.89262065  0.53704198  0.30970767  1
  N  N57  1  0.75712598  0.41914234  0.05712165  1
  N  N58  1  0.58020243  0.48025591  0.80217008  1
  N  N59  1  0.44314762  0.44397185  0.55046939  1
  N  N60  1  0.22010951  0.87734959  0.36541340  1
  N  N61  1  0.11289084  0.75831262  0.13181338  1
  N  N62  1  0.87616308  0.87746209  0.89893116  1
  N  N63  1  0.80473614  0.76838308  0.65447196  1
  N  N64  1  0.55470759  0.86853554  0.33288589  1
  N  N65  1  0.44216093  0.76216285  0.11554220  1
  N  N66  1  0.20561608  0.89118078  0.90551991  1
  N  N67  1  0.11303566  0.75622389  0.58593397  1
  N  N68  1  0.90138807  0.83410263  0.37116165  1
  N  N69  1  0.76619871  0.79616129  0.12788667  1
  N  N70  1  0.57100112  0.88056048  0.89689353  1
  N  N71  1  0.41657195  0.75458187  0.63370128  1
