# generated using pymatgen
data_Gd2Al7N9
_symmetry_space_group_name_H-M   'P 1'
_cell_length_a   9.89089579
_cell_length_b   9.95579914
_cell_length_c   10.44481576
_cell_angle_alpha   89.16983868
_cell_angle_beta   89.72231824
_cell_angle_gamma   59.92522254
_symmetry_Int_Tables_number   1
_chemical_formula_structural   Gd2Al7N9
_chemical_formula_sum   'Gd8 Al28 N36'
_cell_volume   889.95521397
_cell_formula_units_Z   4
loop_
 _symmetry_equiv_pos_site_id
 _symmetry_equiv_pos_as_xyz
  1  'x, y, z'
loop_
 _atom_site_type_symbol
 _atom_site_label
 _atom_site_symmetry_multiplicity
 _atom_site_fract_x
 _atom_site_fract_y
 _atom_site_fract_z
 _atom_site_occupancy
  Al  Al0  1  0.11115646  0.09953740  0.38718381  1
  Al  Al1  1  0.22237926  0.21083997  0.15564671  1
  Al  Al2  1  0.78630365  0.08984906  0.93005131  1
  Al  Al3  1  0.42923454  0.11702591  0.37971652  1
  Al  Al4  1  0.54459569  0.21348333  0.12898366  1
  Al  Al5  1  0.10841703  0.10641813  0.93037413  1
  Al  Al6  1  0.88621816  0.21335658  0.15815065  1
  Al  Al7  1  0.44564525  0.08806948  0.92622517  1
  Al  Al8  1  0.10261015  0.43463386  0.39716052  1
  Al  Al9  1  0.22659857  0.53886301  0.15794401  1
  Al  Al10  1  0.77782186  0.40658688  0.90396530  1
  Al  Al11  1  0.89398050  0.54089555  0.65175121  1
  Al  Al12  1  0.43471745  0.43316353  0.39165083  1
  Al  Al13  1  0.55334600  0.52893193  0.15296869  1
  Al  Al14  1  0.13389733  0.40906922  0.90254233  1
  Al  Al15  1  0.22507999  0.53381638  0.63509642  1
  Al  Al16  1  0.77147595  0.44516085  0.39901240  1
  Al  Al17  1  0.45231390  0.41332522  0.91013793  1
  Al  Al18  1  0.54528911  0.53472194  0.64575386  1
  Al  Al19  1  0.11036196  0.74710852  0.39458882  1
  Al  Al20  1  0.21672584  0.87766192  0.10503657  1
  Al  Al21  1  0.77307288  0.77854309  0.83457948  1
  Al  Al22  1  0.90068241  0.87215715  0.65020373  1
  Al  Al23  1  0.43690915  0.75682433  0.32428076  1
  Al  Al24  1  0.55138751  0.88426389  0.15690631  1
  Al  Al25  1  0.22732516  0.85465243  0.56971484  1
  Al  Al26  1  0.78291963  0.75311897  0.34453307  1
  Al  Al27  1  0.89423089  0.87215626  0.15504547  1
  Gd  Gd28  1  0.88990186  0.21360180  0.65172142  1
  Gd  Gd29  1  0.22784271  0.19916859  0.65061692  1
  Gd  Gd30  1  0.76542730  0.09890954  0.38048061  1
  Gd  Gd31  1  0.55392648  0.20613632  0.67988784  1
  Gd  Gd32  1  0.88689441  0.54299094  0.11548258  1
  Gd  Gd33  1  0.11955589  0.74375331  0.89015682  1
  Gd  Gd34  1  0.46190079  0.74889923  0.87623806  1
  Gd  Gd35  1  0.56134909  0.85184318  0.59268734  1
  N  N36  1  0.21255172  0.21600166  0.34045985  1
  N  N37  1  0.10497198  0.10803207  0.11680309  1
  N  N38  1  0.89996794  0.19341553  0.87208892  1
  N  N39  1  0.78743033  0.07673483  0.59433391  1
  N  N40  1  0.51604908  0.23395121  0.31348447  1
  N  N41  1  0.43599873  0.09159852  0.10842131  1
  N  N42  1  0.22731150  0.19623741  0.87157759  1
  N  N43  1  0.12395003  0.07016987  0.56941856  1
  N  N44  1  0.89369824  0.23130489  0.34319405  1
  N  N45  1  0.78744478  0.09224586  0.11809331  1
  N  N46  1  0.56227320  0.19482710  0.91124270  1
  N  N47  1  0.45201488  0.10516352  0.55612979  1
  N  N48  1  0.21808367  0.53733875  0.34121670  1
  N  N49  1  0.14739002  0.41698387  0.08519239  1
  N  N50  1  0.89407350  0.52796514  0.85468230  1
  N  N51  1  0.75401498  0.47531546  0.58147219  1
  N  N52  1  0.55532283  0.53374296  0.33629052  1
  N  N53  1  0.43295069  0.44677287  0.08975803  1
  N  N54  1  0.25627779  0.48482867  0.81788650  1
  N  N55  1  0.09719782  0.44779581  0.57956253  1
  N  N56  1  0.88697617  0.54014866  0.34146040  1
  N  N57  1  0.75455208  0.41618338  0.08450716  1
  N  N58  1  0.58191447  0.47686229  0.82467984  1
  N  N59  1  0.43664501  0.44202179  0.57170500  1
  N  N60  1  0.22447377  0.86232208  0.37472749  1
  N  N61  1  0.11016401  0.75730153  0.11160227  1
  N  N62  1  0.87235461  0.89761671  0.84119289  1
  N  N63  1  0.80909417  0.75079368  0.64603493  1
  N  N64  1  0.55488999  0.87050828  0.34951900  1
  N  N65  1  0.44547065  0.76253968  0.13619083  1
  N  N66  1  0.21635260  0.89453153  0.92099928  1
  N  N67  1  0.10992929  0.75281125  0.58949673  1
  N  N68  1  0.90360140  0.84461007  0.33824115  1
  N  N69  1  0.75931162  0.79757444  0.11501929  1
  N  N70  1  0.55611928  0.90403322  0.83353584  1
  N  N71  1  0.41478259  0.74861748  0.65454022  1
