# generated using pymatgen
data_Gd2Al7N9
_symmetry_space_group_name_H-M   'P 1'
_cell_length_a   9.83137985
_cell_length_b   9.91044340
_cell_length_c   10.63429364
_cell_angle_alpha   89.13341452
_cell_angle_beta   89.59294186
_cell_angle_gamma   59.99988719
_symmetry_Int_Tables_number   1
_chemical_formula_structural   Gd2Al7N9
_chemical_formula_sum   'Gd8 Al28 N36'
_cell_volume   897.21517568
_cell_formula_units_Z   4
loop_
 _symmetry_equiv_pos_site_id
 _symmetry_equiv_pos_as_xyz
  1  'x, y, z'
loop_
 _atom_site_type_symbol
 _atom_site_label
 _atom_site_symmetry_multiplicity
 _atom_site_fract_x
 _atom_site_fract_y
 _atom_site_fract_z
 _atom_site_occupancy
  Al  Al0  1  0.11315873  0.10648955  0.30762858  1
  Al  Al1  1  0.22756217  0.20408119  0.06110655  1
  Al  Al2  1  0.77031344  0.09620693  0.89112028  1
  Al  Al3  1  0.44180297  0.09414878  0.28977220  1
  Al  Al4  1  0.54288246  0.21655220  0.06632902  1
  Al  Al5  1  0.11586897  0.08724387  0.82582907  1
  Al  Al6  1  0.89785671  0.20053416  0.05597977  1
  Al  Al7  1  0.44437070  0.09440998  0.82404756  1
  Al  Al8  1  0.12358266  0.42101367  0.29976509  1
  Al  Al9  1  0.23511280  0.53415422  0.06058044  1
  Al  Al10  1  0.77461995  0.42013259  0.87934081  1
  Al  Al11  1  0.88544396  0.55070372  0.64927522  1
  Al  Al12  1  0.43827336  0.42781850  0.29946999  1
  Al  Al13  1  0.56415635  0.53158778  0.13117176  1
  Al  Al14  1  0.12387770  0.42076138  0.81948788  1
  Al  Al15  1  0.21618624  0.54278596  0.55176588  1
  Al  Al16  1  0.78181323  0.45170492  0.38625898  1
  Al  Al17  1  0.44364164  0.41367333  0.81073956  1
  Al  Al18  1  0.54341067  0.54492116  0.63335950  1
  Al  Al19  1  0.11865281  0.74599014  0.31532455  1
  Al  Al20  1  0.21413592  0.87846540  0.07769239  1
  Al  Al21  1  0.77546474  0.78160183  0.82166100  1
  Al  Al22  1  0.89868223  0.85173808  0.54077088  1
  Al  Al23  1  0.44270808  0.76713796  0.29761166  1
  Al  Al24  1  0.55843427  0.88639988  0.06615824  1
  Al  Al25  1  0.21725298  0.86335960  0.54984463  1
  Al  Al26  1  0.78018506  0.76012773  0.29799124  1
  Al  Al27  1  0.89519554  0.87172392  0.06790425  1
  Gd  Gd28  1  0.86539401  0.21633991  0.61008790  1
  Gd  Gd29  1  0.19940502  0.20359771  0.56418543  1
  Gd  Gd30  1  0.79636234  0.09509179  0.32207475  1
  Gd  Gd31  1  0.52893155  0.20867890  0.55075571  1
  Gd  Gd32  1  0.89411321  0.54209160  0.08440051  1
  Gd  Gd33  1  0.10876628  0.76628956  0.79428086  1
  Gd  Gd34  1  0.44822846  0.75513903  0.85046555  1
  Gd  Gd35  1  0.56860138  0.84125273  0.55907587  1
  N  N36  1  0.23236332  0.20171918  0.34944579  1
  N  N37  1  0.10599883  0.10226934  0.12504789  1
  N  N38  1  0.89442229  0.19787150  0.86539112  1
  N  N39  1  0.78083843  0.06585384  0.55354952  1
  N  N40  1  0.53436578  0.21375556  0.33557985  1
  N  N41  1  0.44187011  0.09760732  0.11032119  1
  N  N42  1  0.21823603  0.20508267  0.87608999  1
  N  N43  1  0.11587696  0.04968597  0.65021939  1
  N  N44  1  0.91613250  0.22869070  0.38933712  1
  N  N45  1  0.77912664  0.09930412  0.08402125  1
  N  N46  1  0.54882576  0.20689668  0.87722216  1
  N  N47  1  0.43536340  0.07619568  0.64919081  1
  N  N48  1  0.23009768  0.52753659  0.36774787  1
  N  N49  1  0.15198855  0.40913377  0.12013497  1
  N  N50  1  0.88549063  0.53610652  0.84126802  1
  N  N51  1  0.74586291  0.49808630  0.56604126  1
  N  N52  1  0.56276586  0.53699343  0.31433216  1
  N  N53  1  0.44500055  0.43086812  0.11702846  1
  N  N54  1  0.23564507  0.51840181  0.88172653  1
  N  N55  1  0.10708656  0.44798300  0.63818017  1
  N  N56  1  0.89533243  0.53823237  0.31157425  1
  N  N57  1  0.76094338  0.41647727  0.05804087  1
  N  N58  1  0.58091272  0.49493386  0.81016258  1
  N  N59  1  0.41898507  0.44824508  0.62909084  1
  N  N60  1  0.22244136  0.87723861  0.36022398  1
  N  N61  1  0.11521854  0.75531804  0.12746176  1
  N  N62  1  0.87651230  0.87950643  0.88947004  1
  N  N63  1  0.80712947  0.76349465  0.64636330  1
  N  N64  1  0.55476896  0.87303733  0.34250625  1
  N  N65  1  0.44657452  0.76498466  0.10963196  1
  N  N66  1  0.19985244  0.89554447  0.90478059  1
  N  N67  1  0.11094505  0.75533436  0.57889215  1
  N  N68  1  0.90542658  0.83449456  0.36257136  1
  N  N69  1  0.76480436  0.79761461  0.12314413  1
  N  N70  1  0.57075965  0.88699499  0.88598388  1
  N  N71  1  0.41087354  0.75707981  0.63176830  1
