# generated using pymatgen
data_Gd2Al7N9
_symmetry_space_group_name_H-M   'P 1'
_cell_length_a   9.85811054
_cell_length_b   9.86572158
_cell_length_c   10.42475264
_cell_angle_alpha   89.60964140
_cell_angle_beta   89.76783726
_cell_angle_gamma   60.01573304
_symmetry_Int_Tables_number   1
_chemical_formula_structural   Gd2Al7N9
_chemical_formula_sum   'Gd8 Al28 N36'
_cell_volume   878.16790091
_cell_formula_units_Z   4
loop_
 _symmetry_equiv_pos_site_id
 _symmetry_equiv_pos_as_xyz
  1  'x, y, z'
loop_
 _atom_site_type_symbol
 _atom_site_label
 _atom_site_symmetry_multiplicity
 _atom_site_fract_x
 _atom_site_fract_y
 _atom_site_fract_z
 _atom_site_occupancy
  Al  Al0  1  0.11308319  0.09539011  0.39221663  1
  Al  Al1  1  0.22593258  0.20389981  0.15815781  1
  Al  Al2  1  0.78055934  0.08956157  0.93282813  1
  Al  Al3  1  0.43361674  0.10758879  0.38768902  1
  Al  Al4  1  0.54455526  0.21337046  0.14071656  1
  Al  Al5  1  0.11344561  0.09326549  0.92280122  1
  Al  Al6  1  0.88933637  0.20830281  0.15351842  1
  Al  Al7  1  0.44521873  0.08950940  0.93396445  1
  Al  Al8  1  0.10775317  0.43278861  0.40409749  1
  Al  Al9  1  0.22738931  0.54007694  0.16334260  1
  Al  Al10  1  0.77537640  0.41518591  0.90839416  1
  Al  Al11  1  0.89150992  0.54619954  0.65282277  1
  Al  Al12  1  0.43523126  0.43329137  0.39737269  1
  Al  Al13  1  0.55102468  0.53751802  0.16472172  1
  Al  Al14  1  0.12942539  0.41232726  0.91016915  1
  Al  Al15  1  0.22461481  0.53631563  0.64237958  1
  Al  Al16  1  0.77676990  0.43904829  0.40531830  1
  Al  Al17  1  0.45021980  0.41734719  0.91725555  1
  Al  Al18  1  0.54880215  0.53754787  0.64066315  1
  Al  Al19  1  0.11277857  0.75425459  0.40673970  1
  Al  Al20  1  0.22113303  0.87086351  0.16748935  1
  Al  Al21  1  0.76865387  0.77898469  0.90735116  1
  Al  Al22  1  0.89266494  0.86818047  0.65427448  1
  Al  Al23  1  0.43895683  0.75527094  0.39918068  1
  Al  Al24  1  0.55488793  0.87549367  0.17030761  1
  Al  Al25  1  0.21830740  0.86742464  0.64072810  1
  Al  Al26  1  0.79206181  0.74983462  0.40755308  1
  Al  Al27  1  0.89466120  0.86721805  0.16010071  1
  Gd  Gd28  1  0.89143928  0.20629636  0.66109325  1
  Gd  Gd29  1  0.21979347  0.20354491  0.65674227  1
  Gd  Gd30  1  0.77021294  0.09704420  0.38392923  1
  Gd  Gd31  1  0.54892729  0.21616896  0.68218360  1
  Gd  Gd32  1  0.88920174  0.53930597  0.14281370  1
  Gd  Gd33  1  0.11406415  0.74938088  0.89263717  1
  Gd  Gd34  1  0.45228437  0.75009975  0.90649625  1
  Gd  Gd35  1  0.55913983  0.86728873  0.63329059  1
  N  N36  1  0.21494301  0.21234844  0.34389757  1
  N  N37  1  0.11452633  0.09058118  0.10805696  1
  N  N38  1  0.89467939  0.19557875  0.88137467  1
  N  N39  1  0.78326009  0.07493056  0.59884075  1
  N  N40  1  0.51836355  0.23064056  0.32421555  1
  N  N41  1  0.44177210  0.08726485  0.11573917  1
  N  N42  1  0.22826519  0.19572690  0.87830871  1
  N  N43  1  0.12174055  0.06811345  0.57000228  1
  N  N44  1  0.89893005  0.22877311  0.33843790  1
  N  N45  1  0.78488744  0.08919874  0.12075514  1
  N  N46  1  0.55945738  0.19755275  0.91024727  1
  N  N47  1  0.44476358  0.10983256  0.56641622  1
  N  N48  1  0.21881458  0.54134215  0.34740642  1
  N  N49  1  0.14567638  0.41588380  0.09256659  1
  N  N50  1  0.89075697  0.53773879  0.85550069  1
  N  N51  1  0.76298164  0.46194057  0.58906168  1
  N  N52  1  0.55718151  0.53529991  0.34680164  1
  N  N53  1  0.43628352  0.44498830  0.09852544  1
  N  N54  1  0.25291327  0.49011143  0.82680713  1
  N  N55  1  0.09989251  0.44944238  0.58695624  1
  N  N56  1  0.88958462  0.53985118  0.35677668  1
  N  N57  1  0.75424657  0.41934576  0.08931759  1
  N  N58  1  0.57227298  0.49423362  0.82650320  1
  N  N59  1  0.43358666  0.44549858  0.57741928  1
  N  N60  1  0.21766104  0.86989523  0.34861988  1
  N  N61  1  0.11419066  0.76059801  0.11037067  1
  N  N62  1  0.86366146  0.89042843  0.84215660  1
  N  N63  1  0.81010259  0.74931963  0.58978737  1
  N  N64  1  0.56056030  0.86875986  0.35868962  1
  N  N65  1  0.44539309  0.76246823  0.12511251  1
  N  N66  1  0.21063393  0.90131393  0.82690282  1
  N  N67  1  0.11004094  0.75728981  0.60310749  1
  N  N68  1  0.90625982  0.83946976  0.33995524  1
  N  N69  1  0.76135493  0.79440246  0.09100258  1
  N  N70  1  0.55904396  0.89175669  0.85290820  1
  N  N71  1  0.42608199  0.74589186  0.58538540  1
