# generated using pymatgen
data_Gd2Al7N9
_symmetry_space_group_name_H-M   'P 1'
_cell_length_a   9.83138061
_cell_length_b   9.91044290
_cell_length_c   10.63429438
_cell_angle_alpha   89.13339965
_cell_angle_beta   89.59287610
_cell_angle_gamma   59.99993244
_symmetry_Int_Tables_number   1
_chemical_formula_structural   Gd2Al7N9
_chemical_formula_sum   'Gd8 Al28 N36'
_cell_volume   897.21566945
_cell_formula_units_Z   4
loop_
 _symmetry_equiv_pos_site_id
 _symmetry_equiv_pos_as_xyz
  1  'x, y, z'
loop_
 _atom_site_type_symbol
 _atom_site_label
 _atom_site_symmetry_multiplicity
 _atom_site_fract_x
 _atom_site_fract_y
 _atom_site_fract_z
 _atom_site_occupancy
  Al  Al0  1  0.11314252  0.10657260  0.30148121  1
  Al  Al1  1  0.22754538  0.20416497  0.05495842  1
  Al  Al2  1  0.77029691  0.09629039  0.88497422  1
  Al  Al3  1  0.44178621  0.09423308  0.28362230  1
  Al  Al4  1  0.54286661  0.21663559  0.06018254  1
  Al  Al5  1  0.11585217  0.08732808  0.81968000  1
  Al  Al6  1  0.89784183  0.20061699  0.04982932  1
  Al  Al7  1  0.44435555  0.09449319  0.81790311  1
  Al  Al8  1  0.12356699  0.42109701  0.29361966  1
  Al  Al9  1  0.23509644  0.53423670  0.05443129  1
  Al  Al10  1  0.77460362  0.42021672  0.87319273  1
  Al  Al11  1  0.88542694  0.55078704  0.64312858  1
  Al  Al12  1  0.43825768  0.42790275  0.29332199  1
  Al  Al13  1  0.56414005  0.53167049  0.12501919  1
  Al  Al14  1  0.12386161  0.42084455  0.81333757  1
  Al  Al15  1  0.21617078  0.54286928  0.54562012  1
  Al  Al16  1  0.78179625  0.45178855  0.38010993  1
  Al  Al17  1  0.44362561  0.41375705  0.80459336  1
  Al  Al18  1  0.54339456  0.54500475  0.62721323  1
  Al  Al19  1  0.11863727  0.74607294  0.30917537  1
  Al  Al20  1  0.21411923  0.87854908  0.07154191  1
  Al  Al21  1  0.77544807  0.78168615  0.81551306  1
  Al  Al22  1  0.89866642  0.85182116  0.53462280  1
  Al  Al23  1  0.44269216  0.76722090  0.29145930  1
  Al  Al24  1  0.55841890  0.88648216  0.06001329  1
  Al  Al25  1  0.21723762  0.86344224  0.54369480  1
  Al  Al26  1  0.78016990  0.76021063  0.29184286  1
  Al  Al27  1  0.89518004  0.87180667  0.06175579  1
  Gd  Gd28  1  0.86537841  0.21642286  0.60393869  1
  Gd  Gd29  1  0.19939169  0.20367944  0.55803851  1
  Gd  Gd30  1  0.79634631  0.09517487  0.31592639  1
  Gd  Gd31  1  0.52891556  0.20876200  0.54460801  1
  Gd  Gd32  1  0.89409851  0.54217370  0.07825350  1
  Gd  Gd33  1  0.10875011  0.76637311  0.78813294  1
  Gd  Gd34  1  0.44821183  0.75522558  0.84431645  1
  Gd  Gd35  1  0.56858565  0.84133593  0.55292589  1
  N  N36  1  0.23234757  0.20180181  0.34329840  1
  N  N37  1  0.10598296  0.10235248  0.11889934  1
  N  N38  1  0.89440541  0.19795532  0.85924151  1
  N  N39  1  0.78082213  0.06593704  0.54740043  1
  N  N40  1  0.53434945  0.21383935  0.32943103  1
  N  N41  1  0.44185357  0.09769083  0.10417181  1
  N  N42  1  0.21821929  0.20516660  0.86994160  1
  N  N43  1  0.11586134  0.04976929  0.64407011  1
  N  N44  1  0.91611569  0.22877425  0.38318835  1
  N  N45  1  0.77911142  0.09938716  0.07787319  1
  N  N46  1  0.54880983  0.20698077  0.87107577  1
  N  N47  1  0.43534970  0.07627746  0.64304525  1
  N  N48  1  0.23008243  0.52762013  0.36160116  1
  N  N49  1  0.15197327  0.40921645  0.11398882  1
  N  N50  1  0.88547477  0.53618971  0.83511960  1
  N  N51  1  0.74584630  0.49816928  0.55989332  1
  N  N52  1  0.56275053  0.53707705  0.30818049  1
  N  N53  1  0.44498381  0.43095160  0.11087955  1
  N  N54  1  0.23562802  0.51848491  0.87557784  1
  N  N55  1  0.10706976  0.44806626  0.63203090  1
  N  N56  1  0.89531660  0.53831562  0.30542673  1
  N  N57  1  0.76092872  0.41655966  0.05189207  1
  N  N58  1  0.58089506  0.49501976  0.80401662  1
  N  N59  1  0.41896978  0.44832773  0.62294447  1
  N  N60  1  0.22242565  0.87732122  0.35407396  1
  N  N61  1  0.11520282  0.75540082  0.12131229  1
  N  N62  1  0.87649632  0.87959016  0.88332185  1
  N  N63  1  0.80711286  0.76357790  0.64021505  1
  N  N64  1  0.55475252  0.87312087  0.33635541  1
  N  N65  1  0.44655803  0.76506765  0.10348083  1
  N  N66  1  0.19983557  0.89562899  0.89863086  1
  N  N67  1  0.11092905  0.75541794  0.57274452  1
  N  N68  1  0.90541132  0.83457739  0.35642315  1
  N  N69  1  0.76478966  0.79769693  0.11699610  1
  N  N70  1  0.57074466  0.88707859  0.87983885  1
  N  N71  1  0.41085791  0.75716332  0.62561888  1
