# generated using pymatgen
data_Gd2Al7N9
_symmetry_space_group_name_H-M   'P 1'
_cell_length_a   9.88207030
_cell_length_b   9.91907182
_cell_length_c   10.52767870
_cell_angle_alpha   89.70901924
_cell_angle_beta   90.05768015
_cell_angle_gamma   60.17788596
_symmetry_Int_Tables_number   1
_chemical_formula_structural   Gd2Al7N9
_chemical_formula_sum   'Gd8 Al28 N36'
_cell_volume   895.25903245
_cell_formula_units_Z   4
loop_
 _symmetry_equiv_pos_site_id
 _symmetry_equiv_pos_as_xyz
  1  'x, y, z'
loop_
 _atom_site_type_symbol
 _atom_site_label
 _atom_site_symmetry_multiplicity
 _atom_site_fract_x
 _atom_site_fract_y
 _atom_site_fract_z
 _atom_site_occupancy
  Al  Al0  1  0.10533103  0.10574406  0.33910005  1
  Al  Al1  1  0.22415437  0.21329595  0.15680835  1
  Al  Al2  1  0.77135266  0.09995430  0.93006010  1
  Al  Al3  1  0.43275394  0.11049934  0.38532886  1
  Al  Al4  1  0.53819154  0.21872228  0.13780442  1
  Al  Al5  1  0.11794722  0.08371796  0.85048026  1
  Al  Al6  1  0.88887585  0.20975576  0.11363012  1
  Al  Al7  1  0.44380376  0.08903214  0.92191281  1
  Al  Al8  1  0.09963393  0.44281049  0.39604950  1
  Al  Al9  1  0.22916963  0.53664301  0.15417025  1
  Al  Al10  1  0.77968093  0.40783717  0.89876809  1
  Al  Al11  1  0.89909151  0.54242514  0.66176055  1
  Al  Al12  1  0.43603565  0.43316756  0.39312561  1
  Al  Al13  1  0.55203856  0.53178296  0.15549352  1
  Al  Al14  1  0.13474148  0.40760783  0.90064009  1
  Al  Al15  1  0.23048517  0.53026111  0.63356226  1
  Al  Al16  1  0.77275998  0.45240246  0.40434571  1
  Al  Al17  1  0.44879086  0.41568744  0.90697673  1
  Al  Al18  1  0.54663058  0.53503259  0.64702685  1
  Al  Al19  1  0.11326948  0.75658936  0.33872246  1
  Al  Al20  1  0.21058121  0.88454151  0.10013892  1
  Al  Al21  1  0.77427355  0.78721205  0.83775239  1
  Al  Al22  1  0.91271941  0.84453904  0.57063613  1
  Al  Al23  1  0.43194147  0.76273556  0.32912478  1
  Al  Al24  1  0.54331215  0.88926451  0.16213326  1
  Al  Al25  1  0.22480192  0.85703196  0.57981565  1
  Al  Al26  1  0.78413170  0.75669401  0.32716746  1
  Al  Al27  1  0.88727157  0.87715480  0.09938527  1
  Gd  Gd28  1  0.87928745  0.21661780  0.63055860  1
  Gd  Gd29  1  0.22489766  0.20182514  0.63817231  1
  Gd  Gd30  1  0.77419337  0.09571848  0.36573270  1
  Gd  Gd31  1  0.56067415  0.19481834  0.67100198  1
  Gd  Gd32  1  0.88660130  0.54612945  0.11027457  1
  Gd  Gd33  1  0.10387909  0.76831017  0.83212267  1
  Gd  Gd34  1  0.46048541  0.74682673  0.87574929  1
  Gd  Gd35  1  0.57945082  0.83214742  0.58976249  1
  N  N36  1  0.21584235  0.21916875  0.34486899  1
  N  N37  1  0.10399280  0.10252371  0.15387917  1
  N  N38  1  0.89741175  0.19028143  0.88297622  1
  N  N39  1  0.79219033  0.06238975  0.58767098  1
  N  N40  1  0.51759659  0.23052008  0.31984799  1
  N  N41  1  0.43520891  0.09468142  0.10469330  1
  N  N42  1  0.23083904  0.19518148  0.86004865  1
  N  N43  1  0.12435198  0.04753467  0.66635116  1
  N  N44  1  0.89774888  0.23200428  0.39075970  1
  N  N45  1  0.77606114  0.10306701  0.12091257  1
  N  N46  1  0.55692155  0.19750039  0.89755676  1
  N  N47  1  0.45505809  0.08802899  0.55940564  1
  N  N48  1  0.22340974  0.53573240  0.33684952  1
  N  N49  1  0.14727396  0.41538419  0.08330970  1
  N  N50  1  0.89908810  0.51907672  0.85742354  1
  N  N51  1  0.74860665  0.49615962  0.58443756  1
  N  N52  1  0.55419712  0.53681218  0.33783555  1
  N  N53  1  0.43552670  0.44373946  0.08898303  1
  N  N54  1  0.24882642  0.49650894  0.82284296  1
  N  N55  1  0.09480540  0.45467235  0.57725201  1
  N  N56  1  0.88814840  0.53946561  0.33414669  1
  N  N57  1  0.75218001  0.42160134  0.08140997  1
  N  N58  1  0.58283476  0.47682114  0.82415583  1
  N  N59  1  0.44183356  0.43620054  0.57248071  1
  N  N60  1  0.21808785  0.87814190  0.39037298  1
  N  N61  1  0.10514044  0.76970688  0.14970810  1
  N  N62  1  0.86846653  0.88262678  0.92115061  1
  N  N63  1  0.82357423  0.75362708  0.66711853  1
  N  N64  1  0.54941196  0.87305547  0.35165556  1
  N  N65  1  0.43833885  0.76638730  0.14051837  1
  N  N66  1  0.21175607  0.89163322  0.92597829  1
  N  N67  1  0.12232352  0.74718538  0.61464655  1
  N  N68  1  0.90697007  0.83160826  0.39201052  1
  N  N69  1  0.75836810  0.80116237  0.15124133  1
  N  N70  1  0.56106897  0.89634759  0.84344405  1
  N  N71  1  0.42004665  0.74774087  0.65511993  1
