# generated using pymatgen
data_Gd2Al7N9
_symmetry_space_group_name_H-M   'P 1'
_cell_length_a   9.89748261
_cell_length_b   9.91737615
_cell_length_c   10.49960972
_cell_angle_alpha   88.99923439
_cell_angle_beta   89.98866557
_cell_angle_gamma   60.07939267
_symmetry_Int_Tables_number   1
_chemical_formula_structural   Gd2Al7N9
_chemical_formula_sum   'Gd8 Al28 N36'
_cell_volume   893.06895609
_cell_formula_units_Z   4
loop_
 _symmetry_equiv_pos_site_id
 _symmetry_equiv_pos_as_xyz
  1  'x, y, z'
loop_
 _atom_site_type_symbol
 _atom_site_label
 _atom_site_symmetry_multiplicity
 _atom_site_fract_x
 _atom_site_fract_y
 _atom_site_fract_z
 _atom_site_occupancy
  Al  Al0  1  0.11084668  0.10016887  0.38810032  1
  Al  Al1  1  0.22048269  0.21235753  0.15688715  1
  Al  Al2  1  0.77377862  0.10704807  0.93799049  1
  Al  Al3  1  0.42777528  0.11385555  0.38259351  1
  Al  Al4  1  0.53805086  0.21962340  0.13452816  1
  Al  Al5  1  0.10558849  0.10865023  0.93142342  1
  Al  Al6  1  0.88608909  0.21800470  0.16102672  1
  Al  Al7  1  0.44327334  0.09304483  0.92639517  1
  Al  Al8  1  0.10071898  0.43538573  0.39778795  1
  Al  Al9  1  0.22603387  0.53929480  0.15512816  1
  Al  Al10  1  0.77745070  0.40844348  0.90295387  1
  Al  Al11  1  0.90064788  0.53661104  0.66147478  1
  Al  Al12  1  0.43580107  0.43077331  0.39387999  1
  Al  Al13  1  0.55305639  0.52990795  0.15265345  1
  Al  Al14  1  0.13289808  0.41054153  0.90349149  1
  Al  Al15  1  0.23100245  0.52727094  0.63618606  1
  Al  Al16  1  0.77354293  0.44692025  0.39948900  1
  Al  Al17  1  0.44738239  0.41981627  0.90903499  1
  Al  Al18  1  0.54859255  0.53259041  0.64679142  1
  Al  Al19  1  0.11666704  0.74608457  0.36664053  1
  Al  Al20  1  0.21472359  0.87602110  0.10248910  1
  Al  Al21  1  0.77023913  0.79563661  0.83232673  1
  Al  Al22  1  0.90998803  0.84731693  0.57281244  1
  Al  Al23  1  0.43645132  0.75583127  0.32403540  1
  Al  Al24  1  0.54352312  0.88925132  0.16256968  1
  Al  Al25  1  0.23207014  0.85066190  0.56496023  1
  Al  Al26  1  0.78478793  0.75539750  0.32685576  1
  Al  Al27  1  0.88639911  0.87835003  0.10101853  1
  Gd  Gd28  1  0.89078083  0.20769039  0.64879827  1
  Gd  Gd29  1  0.23275082  0.19063957  0.65171898  1
  Gd  Gd30  1  0.76587043  0.09829775  0.37109663  1
  Gd  Gd31  1  0.56299928  0.19210749  0.67744313  1
  Gd  Gd32  1  0.88566522  0.54700511  0.10916385  1
  Gd  Gd33  1  0.10586655  0.76398645  0.85189928  1
  Gd  Gd34  1  0.45918554  0.75558813  0.87027361  1
  Gd  Gd35  1  0.57792374  0.83795950  0.58270353  1
  N  N36  1  0.21229663  0.21529190  0.34090411  1
  N  N37  1  0.10289939  0.10957057  0.11601503  1
  N  N38  1  0.89654280  0.19290385  0.87085639  1
  N  N39  1  0.79410598  0.06473391  0.59250311  1
  N  N40  1  0.51333920  0.23231781  0.31705491  1
  N  N41  1  0.43430077  0.09478080  0.10742979  1
  N  N42  1  0.22590437  0.19689487  0.87150460  1
  N  N43  1  0.12369672  0.06735970  0.56878019  1
  N  N44  1  0.89459400  0.23207066  0.34507227  1
  N  N45  1  0.77959138  0.10296165  0.12554436  1
  N  N46  1  0.55713755  0.20173752  0.90676847  1
  N  N47  1  0.45552135  0.09430361  0.55722464  1
  N  N48  1  0.22158587  0.53224858  0.33949627  1
  N  N49  1  0.14574181  0.41736559  0.08553089  1
  N  N50  1  0.89722474  0.52033599  0.85831869  1
  N  N51  1  0.75693116  0.47686360  0.58304571  1
  N  N52  1  0.55594755  0.53206759  0.33652562  1
  N  N53  1  0.43258576  0.44694606  0.08991201  1
  N  N54  1  0.24949248  0.49404126  0.82250249  1
  N  N55  1  0.10028249  0.44356434  0.58131602  1
  N  N56  1  0.88821802  0.53902366  0.33725094  1
  N  N57  1  0.75412039  0.41872399  0.08398146  1
  N  N58  1  0.57903435  0.48407154  0.82695144  1
  N  N59  1  0.44274523  0.43452171  0.57448990  1
  N  N60  1  0.22472297  0.86259899  0.37346483  1
  N  N61  1  0.10667606  0.76134604  0.12766129  1
  N  N62  1  0.86211252  0.89038978  0.91861774  1
  N  N63  1  0.82316909  0.74928391  0.66265834  1
  N  N64  1  0.54854906  0.87129543  0.35121707  1
  N  N65  1  0.44347787  0.76366043  0.13610291  1
  N  N66  1  0.21354723  0.89467873  0.92100622  1
  N  N67  1  0.12449683  0.74543383  0.60212772  1
  N  N68  1  0.90266908  0.83528816  0.39193681  1
  N  N69  1  0.75751532  0.80124588  0.15068098  1
  N  N70  1  0.55562000  0.91100553  0.83214798  1
  N  N71  1  0.42179854  0.74939213  0.64872538  1
