# generated using pymatgen
data_Gd2Al7N9
_symmetry_space_group_name_H-M   'P 1'
_cell_length_a   9.86330679
_cell_length_b   9.89937355
_cell_length_c   10.57976660
_cell_angle_alpha   89.02008431
_cell_angle_beta   89.53246754
_cell_angle_gamma   59.99598609
_symmetry_Int_Tables_number   1
_chemical_formula_structural   Gd2Al7N9
_chemical_formula_sum   'Gd8 Al28 N36'
_cell_volume   894.44953175
_cell_formula_units_Z   4
loop_
 _symmetry_equiv_pos_site_id
 _symmetry_equiv_pos_as_xyz
  1  'x, y, z'
loop_
 _atom_site_type_symbol
 _atom_site_label
 _atom_site_symmetry_multiplicity
 _atom_site_fract_x
 _atom_site_fract_y
 _atom_site_fract_z
 _atom_site_occupancy
  Al  Al0  1  0.11298131  0.10416487  0.29577324  1
  Al  Al1  1  0.22829330  0.20241136  0.05220753  1
  Al  Al2  1  0.76786030  0.09940089  0.88085063  1
  Al  Al3  1  0.44146348  0.09424846  0.28035490  1
  Al  Al4  1  0.54191935  0.21689254  0.05574037  1
  Al  Al5  1  0.11314743  0.08914644  0.81909078  1
  Al  Al6  1  0.89760056  0.20032862  0.04842895  1
  Al  Al7  1  0.44582400  0.09469828  0.81783249  1
  Al  Al8  1  0.12488190  0.41931729  0.29123421  1
  Al  Al9  1  0.23436070  0.53327584  0.05145351  1
  Al  Al10  1  0.76695973  0.42759134  0.87392950  1
  Al  Al11  1  0.88887499  0.54779493  0.64188242  1
  Al  Al12  1  0.43919128  0.42793990  0.29386271  1
  Al  Al13  1  0.55414997  0.53710280  0.09148809  1
  Al  Al14  1  0.12554319  0.41877553  0.81119168  1
  Al  Al15  1  0.21744858  0.54206700  0.54330516  1
  Al  Al16  1  0.78851615  0.44647972  0.37567325  1
  Al  Al17  1  0.44349987  0.42562937  0.80297141  1
  Al  Al18  1  0.53665248  0.55166881  0.55659070  1
  Al  Al19  1  0.11690293  0.74567910  0.30310164  1
  Al  Al20  1  0.21791152  0.87436208  0.06717553  1
  Al  Al21  1  0.77456447  0.78071860  0.81431758  1
  Al  Al22  1  0.90268302  0.84949321  0.53251762  1
  Al  Al23  1  0.44198416  0.76351485  0.29373206  1
  Al  Al24  1  0.55685173  0.88194065  0.05742622  1
  Al  Al25  1  0.21392015  0.86547898  0.53330483  1
  Al  Al26  1  0.78109209  0.75892715  0.28661010  1
  Al  Al27  1  0.89293860  0.87256997  0.05824921  1
  Gd  Gd28  1  0.87020149  0.21361460  0.60100199  1
  Gd  Gd29  1  0.20473031  0.19896530  0.55550065  1
  Gd  Gd30  1  0.79335994  0.09544889  0.31361117  1
  Gd  Gd31  1  0.53245395  0.20842177  0.54910844  1
  Gd  Gd32  1  0.89672567  0.54011807  0.07470872  1
  Gd  Gd33  1  0.10407010  0.76692382  0.78840583  1
  Gd  Gd34  1  0.43808087  0.77212194  0.80671371  1
  Gd  Gd35  1  0.58001157  0.84516711  0.54191692  1
  N  N36  1  0.23203671  0.19894560  0.33937884  1
  N  N37  1  0.10701928  0.10046403  0.11282045  1
  N  N38  1  0.88950320  0.20316822  0.85448593  1
  N  N39  1  0.78336678  0.06383448  0.54653598  1
  N  N40  1  0.53198666  0.21325123  0.33275581  1
  N  N41  1  0.44284572  0.09649350  0.09975793  1
  N  N42  1  0.21905674  0.20355222  0.86682262  1
  N  N43  1  0.12046394  0.04535978  0.64250183  1
  N  N44  1  0.91745681  0.22515401  0.37810984  1
  N  N45  1  0.77733986  0.10028530  0.07512686  1
  N  N46  1  0.54734673  0.21173138  0.86490302  1
  N  N47  1  0.43920046  0.07155657  0.64206565  1
  N  N48  1  0.22900905  0.52764211  0.35880111  1
  N  N49  1  0.15365252  0.40704048  0.11135974  1
  N  N50  1  0.88653208  0.53465181  0.83341795  1
  N  N51  1  0.75387095  0.49185309  0.55785418  1
  N  N52  1  0.55567542  0.53663910  0.33665440  1
  N  N53  1  0.44401900  0.43043647  0.11168720  1
  N  N54  1  0.23424255  0.51776118  0.87206972  1
  N  N55  1  0.11098387  0.44439654  0.62898106  1
  N  N56  1  0.89712915  0.53742760  0.30282371  1
  N  N57  1  0.76509941  0.41413656  0.05720678  1
  N  N58  1  0.55925983  0.51931160  0.84115448  1
  N  N59  1  0.42547351  0.45355630  0.61855146  1
  N  N60  1  0.21639457  0.87800265  0.34624181  1
  N  N61  1  0.11365568  0.75423075  0.11559528  1
  N  N62  1  0.87234822  0.88307987  0.87986750  1
  N  N63  1  0.81378153  0.75978478  0.63902461  1
  N  N64  1  0.55579137  0.87253245  0.32889846  1
  N  N65  1  0.44570270  0.76223769  0.10770246  1
  N  N66  1  0.20171137  0.89382467  0.89386505  1
  N  N67  1  0.11342857  0.75427149  0.57176436  1
  N  N68  1  0.90481355  0.83390881  0.35333350  1
  N  N69  1  0.76467544  0.79590277  0.11191730  1
  N  N70  1  0.56998627  0.88505638  0.87771356  1
  N  N71  1  0.41890166  0.75855550  0.58909369  1
