# generated using pymatgen
data_Gd2Al7N9
_symmetry_space_group_name_H-M   'P 1'
_cell_length_a   9.87788875
_cell_length_b   9.89362089
_cell_length_c   10.56777417
_cell_angle_alpha   89.50913902
_cell_angle_beta   90.18635678
_cell_angle_gamma   60.16759193
_symmetry_Int_Tables_number   1
_chemical_formula_structural   Gd2Al7N9
_chemical_formula_sum   'Gd8 Al28 N36'
_cell_volume   895.84374556
_cell_formula_units_Z   4
loop_
 _symmetry_equiv_pos_site_id
 _symmetry_equiv_pos_as_xyz
  1  'x, y, z'
loop_
 _atom_site_type_symbol
 _atom_site_label
 _atom_site_symmetry_multiplicity
 _atom_site_fract_x
 _atom_site_fract_y
 _atom_site_fract_z
 _atom_site_occupancy
  Al  Al0  1  0.11108935  0.10041211  0.36113032  1
  Al  Al1  1  0.22414962  0.21293818  0.15498911  1
  Al  Al2  1  0.77208668  0.10446456  0.93602932  1
  Al  Al3  1  0.42911693  0.11234574  0.38579358  1
  Al  Al4  1  0.53946028  0.21875189  0.14040575  1
  Al  Al5  1  0.10681208  0.10411031  0.92526869  1
  Al  Al6  1  0.88068793  0.21948018  0.15900124  1
  Al  Al7  1  0.44660271  0.09024334  0.92538226  1
  Al  Al8  1  0.10118775  0.43874531  0.39714478  1
  Al  Al9  1  0.22904387  0.53518825  0.15471207  1
  Al  Al10  1  0.77762517  0.40740551  0.90304642  1
  Al  Al11  1  0.90127956  0.53854645  0.66038071  1
  Al  Al12  1  0.43492786  0.43333724  0.39391352  1
  Al  Al13  1  0.55151311  0.53179804  0.15346142  1
  Al  Al14  1  0.13244616  0.41126545  0.90372517  1
  Al  Al15  1  0.23108820  0.52910919  0.63478728  1
  Al  Al16  1  0.77262989  0.44862826  0.39939396  1
  Al  Al17  1  0.44784738  0.41750459  0.90745084  1
  Al  Al18  1  0.54902892  0.53341142  0.64602616  1
  Al  Al19  1  0.11214417  0.75433294  0.33462702  1
  Al  Al20  1  0.21390888  0.87664965  0.10229910  1
  Al  Al21  1  0.77319671  0.78901540  0.83624794  1
  Al  Al22  1  0.91517102  0.84331438  0.57089368  1
  Al  Al23  1  0.43461910  0.75906971  0.32592340  1
  Al  Al24  1  0.54365346  0.88931920  0.16291232  1
  Al  Al25  1  0.22839066  0.85350031  0.56691369  1
  Al  Al26  1  0.78505439  0.75505527  0.32738458  1
  Al  Al27  1  0.88526038  0.87862819  0.09989811  1
  Gd  Gd28  1  0.88775193  0.21055930  0.64909076  1
  Gd  Gd29  1  0.23134840  0.19532040  0.65306099  1
  Gd  Gd30  1  0.76867605  0.09445011  0.37289686  1
  Gd  Gd31  1  0.56378089  0.19420911  0.67235406  1
  Gd  Gd32  1  0.88574717  0.54602704  0.11090820  1
  Gd  Gd33  1  0.10104428  0.76984300  0.83316289  1
  Gd  Gd34  1  0.45610176  0.75276721  0.86893729  1
  Gd  Gd35  1  0.58003278  0.83521009  0.58522389  1
  N  N36  1  0.21472651  0.21708790  0.33918658  1
  N  N37  1  0.10427902  0.10605668  0.12716576  1
  N  N38  1  0.89607568  0.19082179  0.87267118  1
  N  N39  1  0.79591720  0.06255074  0.58966078  1
  N  N40  1  0.51531619  0.23116039  0.32077068  1
  N  N41  1  0.43748169  0.09486970  0.10609987  1
  N  N42  1  0.22704220  0.19497591  0.87386243  1
  N  N43  1  0.12357261  0.06514427  0.59117690  1
  N  N44  1  0.89172815  0.23315563  0.34313833  1
  N  N45  1  0.77542848  0.10408475  0.12348210  1
  N  N46  1  0.55762714  0.19955543  0.89739991  1
  N  N47  1  0.45551439  0.09118355  0.55896004  1
  N  N48  1  0.22276233  0.53376084  0.33712234  1
  N  N49  1  0.14561539  0.41762015  0.08443668  1
  N  N50  1  0.89804500  0.51899899  0.85804248  1
  N  N51  1  0.75534740  0.48271800  0.58097036  1
  N  N52  1  0.55447154  0.53469420  0.33628984  1
  N  N53  1  0.43441421  0.44394619  0.08898130  1
  N  N54  1  0.24749313  0.49670680  0.82318547  1
  N  N55  1  0.09920979  0.44796284  0.57865362  1
  N  N56  1  0.88871644  0.53814498  0.33566140  1
  N  N57  1  0.75221214  0.41978253  0.08311013  1
  N  N58  1  0.58056411  0.48151026  0.82517859  1
  N  N59  1  0.44184279  0.43668033  0.57297386  1
  N  N60  1  0.22142251  0.86844500  0.37743946  1
  N  N61  1  0.10371412  0.76727227  0.14830516  1
  N  N62  1  0.86590100  0.88518381  0.92191196  1
  N  N63  1  0.82528398  0.75111584  0.66622319  1
  N  N64  1  0.54914703  0.87229138  0.35162899  1
  N  N65  1  0.44063182  0.76508439  0.13888134  1
  N  N66  1  0.21013547  0.89043920  0.92557353  1
  N  N67  1  0.12419521  0.74871770  0.61603859  1
  N  N68  1  0.90751445  0.83042038  0.39282571  1
  N  N69  1  0.75829191  0.80058852  0.15250820  1
  N  N70  1  0.55914722  0.90182703  0.83958168  1
  N  N71  1  0.42149059  0.74918143  0.64929749  1
