# generated using pymatgen
data_Gd2Al7N9
_symmetry_space_group_name_H-M   'P 1'
_cell_length_a   9.81817531
_cell_length_b   9.95649243
_cell_length_c   10.62952352
_cell_angle_alpha   89.20700109
_cell_angle_beta   89.41546575
_cell_angle_gamma   59.76730441
_symmetry_Int_Tables_number   1
_chemical_formula_structural   Gd2Al7N9
_chemical_formula_sum   'Gd8 Al28 N36'
_cell_volume   897.66403498
_cell_formula_units_Z   4
loop_
 _symmetry_equiv_pos_site_id
 _symmetry_equiv_pos_as_xyz
  1  'x, y, z'
loop_
 _atom_site_type_symbol
 _atom_site_label
 _atom_site_symmetry_multiplicity
 _atom_site_fract_x
 _atom_site_fract_y
 _atom_site_fract_z
 _atom_site_occupancy
  Al  Al0  1  0.11318706  0.10920123  0.31076414  1
  Al  Al1  1  0.22977833  0.20477340  0.06281656  1
  Al  Al2  1  0.75916044  0.10005417  0.89652546  1
  Al  Al3  1  0.43990692  0.08874347  0.29692917  1
  Al  Al4  1  0.54915228  0.21354118  0.12710687  1
  Al  Al5  1  0.11509414  0.08661142  0.83073523  1
  Al  Al6  1  0.89534024  0.20162824  0.05961743  1
  Al  Al7  1  0.44423431  0.09168599  0.81848531  1
  Al  Al8  1  0.12398758  0.42248939  0.30153596  1
  Al  Al9  1  0.23973945  0.53128705  0.06235464  1
  Al  Al10  1  0.77496137  0.41896183  0.88341741  1
  Al  Al11  1  0.88673860  0.55200919  0.65520852  1
  Al  Al12  1  0.43804273  0.43557006  0.30992904  1
  Al  Al13  1  0.56456841  0.53393066  0.13763799  1
  Al  Al14  1  0.12735167  0.41935447  0.82294085  1
  Al  Al15  1  0.21628114  0.54385482  0.55456470  1
  Al  Al16  1  0.78491763  0.45227454  0.39251533  1
  Al  Al17  1  0.44784592  0.40883043  0.80496821  1
  Al  Al18  1  0.54331890  0.54600418  0.63351691  1
  Al  Al19  1  0.11894642  0.74493871  0.31708731  1
  Al  Al20  1  0.21360526  0.87958614  0.08162812  1
  Al  Al21  1  0.77426840  0.78484056  0.82616090  1
  Al  Al22  1  0.89894428  0.85004981  0.54480236  1
  Al  Al23  1  0.44088269  0.76935154  0.30203342  1
  Al  Al24  1  0.55790961  0.88817373  0.06796875  1
  Al  Al25  1  0.21371447  0.86573983  0.55570271  1
  Al  Al26  1  0.78036129  0.75964638  0.30098726  1
  Al  Al27  1  0.89403036  0.87290373  0.07244962  1
  Gd  Gd28  1  0.85584509  0.21862876  0.62274666  1
  Gd  Gd29  1  0.18818409  0.20718725  0.56574606  1
  Gd  Gd30  1  0.80858085  0.09025456  0.33397753  1
  Gd  Gd31  1  0.52851246  0.20234263  0.55767689  1
  Gd  Gd32  1  0.89463658  0.54284299  0.08590107  1
  Gd  Gd33  1  0.10865266  0.76660907  0.80002848  1
  Gd  Gd34  1  0.45066413  0.75015566  0.85577039  1
  Gd  Gd35  1  0.56861805  0.83564510  0.56281569  1
  N  N36  1  0.23163803  0.20452951  0.35295086  1
  N  N37  1  0.10482769  0.10380733  0.12888219  1
  N  N38  1  0.89277572  0.19665393  0.87255712  1
  N  N39  1  0.78240980  0.06495393  0.55033014  1
  N  N40  1  0.53887056  0.21259836  0.32350877  1
  N  N41  1  0.44250584  0.09680457  0.11696783  1
  N  N42  1  0.21904012  0.20423422  0.87855800  1
  N  N43  1  0.10851223  0.05161093  0.65577009  1
  N  N44  1  0.91950435  0.23075952  0.39855534  1
  N  N45  1  0.77510963  0.10164724  0.09092725  1
  N  N46  1  0.55704241  0.19723537  0.83520425  1
  N  N47  1  0.42651940  0.07132861  0.64387832  1
  N  N48  1  0.22886466  0.52857867  0.37135924  1
  N  N49  1  0.15372658  0.40943467  0.12202883  1
  N  N50  1  0.88639515  0.53559442  0.84547264  1
  N  N51  1  0.74793700  0.50026867  0.57051584  1
  N  N52  1  0.56291833  0.54044740  0.32165374  1
  N  N53  1  0.44534209  0.43463387  0.12637697  1
  N  N54  1  0.24139734  0.51566558  0.88321011  1
  N  N55  1  0.10946681  0.44837815  0.64201171  1
  N  N56  1  0.89577175  0.53851994  0.31385196  1
  N  N57  1  0.76025958  0.41834699  0.06232411  1
  N  N58  1  0.58416170  0.49087702  0.80891338  1
  N  N59  1  0.42304280  0.44767808  0.62134380  1
  N  N60  1  0.21962816  0.87997185  0.36457168  1
  N  N61  1  0.11550074  0.75584830  0.13029971  1
  N  N62  1  0.87490403  0.88171996  0.89536754  1
  N  N63  1  0.80651826  0.76491227  0.65135199  1
  N  N64  1  0.55431775  0.87234231  0.34753669  1
  N  N65  1  0.44652359  0.76595340  0.11460016  1
  N  N66  1  0.20142375  0.89499905  0.90884204  1
  N  N67  1  0.11046990  0.75543167  0.58449408  1
  N  N68  1  0.90699019  0.83093317  0.36630515  1
  N  N69  1  0.76407857  0.79792146  0.12651262  1
  N  N70  1  0.56789851  0.88742764  0.88811070  1
  N  N71  1  0.40768542  0.75714749  0.63781913  1
