# generated using pymatgen
data_Gd2Al7N9
_symmetry_space_group_name_H-M   'P 1'
_cell_length_a   9.79708686
_cell_length_b   9.87367822
_cell_length_c   10.75083081
_cell_angle_alpha   89.38526591
_cell_angle_beta   89.26422230
_cell_angle_gamma   60.05213030
_symmetry_Int_Tables_number   1
_chemical_formula_structural   Gd2Al7N9
_chemical_formula_sum   'Gd8 Al28 N36'
_cell_volume   901.02175332
_cell_formula_units_Z   4
loop_
 _symmetry_equiv_pos_site_id
 _symmetry_equiv_pos_as_xyz
  1  'x, y, z'
loop_
 _atom_site_type_symbol
 _atom_site_label
 _atom_site_symmetry_multiplicity
 _atom_site_fract_x
 _atom_site_fract_y
 _atom_site_fract_z
 _atom_site_occupancy
  Al  Al0  1  0.10887643  0.10311508  0.30683932  1
  Al  Al1  1  0.21957453  0.20715499  0.08116286  1
  Al  Al2  1  0.76784472  0.09464442  0.90437027  1
  Al  Al3  1  0.43996630  0.09618256  0.34562108  1
  Al  Al4  1  0.54311958  0.21784740  0.13112585  1
  Al  Al5  1  0.12049669  0.08636717  0.82963380  1
  Al  Al6  1  0.89398334  0.20184831  0.06113983  1
  Al  Al7  1  0.44545306  0.09792431  0.90946467  1
  Al  Al8  1  0.11968234  0.42693469  0.29571931  1
  Al  Al9  1  0.22899605  0.54042487  0.06557270  1
  Al  Al10  1  0.77392014  0.41577967  0.87964133  1
  Al  Al11  1  0.88882302  0.55247147  0.65576541  1
  Al  Al12  1  0.44531538  0.43180471  0.37315939  1
  Al  Al13  1  0.56039460  0.52759393  0.13633572  1
  Al  Al14  1  0.13005568  0.41621436  0.82246829  1
  Al  Al15  1  0.21573416  0.54509337  0.54696548  1
  Al  Al16  1  0.78435759  0.44980148  0.38910758  1
  Al  Al17  1  0.45916422  0.41055513  0.89447350  1
  Al  Al18  1  0.54486327  0.53921529  0.62680392  1
  Al  Al19  1  0.11466082  0.74886099  0.31723791  1
  Al  Al20  1  0.21423228  0.87710501  0.07712397  1
  Al  Al21  1  0.77253178  0.78363161  0.82794083  1
  Al  Al22  1  0.89935502  0.85294827  0.54849456  1
  Al  Al23  1  0.43803878  0.76612316  0.29811995  1
  Al  Al24  1  0.55676287  0.87833306  0.08391985  1
  Al  Al25  1  0.22010505  0.86533120  0.55596760  1
  Al  Al26  1  0.78155784  0.75742139  0.29850401  1
  Al  Al27  1  0.89331167  0.87394245  0.07517797  1
  Gd  Gd28  1  0.86851001  0.21799834  0.61868372  1
  Gd  Gd29  1  0.18376355  0.21736348  0.54666126  1
  Gd  Gd30  1  0.78779331  0.09769139  0.34572277  1
  Gd  Gd31  1  0.53883414  0.20332406  0.63889021  1
  Gd  Gd32  1  0.89169883  0.54404381  0.08068339  1
  Gd  Gd33  1  0.10663506  0.76488546  0.79936380  1
  Gd  Gd34  1  0.45241189  0.74984671  0.84626309  1
  Gd  Gd35  1  0.57742432  0.83073496  0.54827060  1
  N  N36  1  0.22078506  0.20764523  0.33223737  1
  N  N37  1  0.10133622  0.09990984  0.12769986  1
  N  N38  1  0.89632866  0.19268407  0.87174526  1
  N  N39  1  0.77887067  0.06955304  0.56175842  1
  N  N40  1  0.52665352  0.22640619  0.30676391  1
  N  N41  1  0.44130033  0.09940151  0.08995146  1
  N  N42  1  0.21799231  0.20555998  0.88623881  1
  N  N43  1  0.12236153  0.05388600  0.65423398  1
  N  N44  1  0.91751649  0.22680034  0.39677652  1
  N  N45  1  0.77600119  0.10074521  0.09321972  1
  N  N46  1  0.55624751  0.19674662  0.85782758  1
  N  N47  1  0.43491536  0.08639984  0.54395157  1
  N  N48  1  0.21861992  0.53413992  0.36604746  1
  N  N49  1  0.14758542  0.41606597  0.12125666  1
  N  N50  1  0.88497824  0.53315168  0.84154913  1
  N  N51  1  0.75240661  0.49835907  0.56760898  1
  N  N52  1  0.56237069  0.53455370  0.31547304  1
  N  N53  1  0.45261505  0.43110609  0.07352463  1
  N  N54  1  0.23369751  0.52005040  0.88563008  1
  N  N55  1  0.11521797  0.44922006  0.64367360  1
  N  N56  1  0.89275404  0.53702114  0.30974098  1
  N  N57  1  0.75715260  0.41910465  0.05709435  1
  N  N58  1  0.58036659  0.48011819  0.80220510  1
  N  N59  1  0.44328715  0.44378578  0.55069160  1
  N  N60  1  0.22018027  0.87732316  0.36543200  1
  N  N61  1  0.11290086  0.75830597  0.13181141  1
  N  N62  1  0.87616372  0.87748503  0.89890153  1
  N  N63  1  0.80459121  0.76856179  0.65439804  1
  N  N64  1  0.55512083  0.86790345  0.33322395  1
  N  N65  1  0.44217660  0.76214959  0.11544355  1
  N  N66  1  0.20552354  0.89127944  0.90554394  1
  N  N67  1  0.11298464  0.75629803  0.58598005  1
  N  N68  1  0.90136024  0.83424287  0.37117717  1
  N  N69  1  0.76614997  0.79619449  0.12783149  1
  N  N70  1  0.57092285  0.88055614  0.89632558  1
  N  N71  1  0.41644071  0.75466224  0.63395721  1
