# generated using pymatgen
data_Gd2Al7N9
_symmetry_space_group_name_H-M   'P 1'
_cell_length_a   9.86130387
_cell_length_b   9.89485078
_cell_length_c   10.57802962
_cell_angle_alpha   89.02838854
_cell_angle_beta   89.53378615
_cell_angle_gamma   60.00040598
_symmetry_Int_Tables_number   1
_chemical_formula_structural   Gd2Al7N9
_chemical_formula_sum   'Gd8 Al28 N36'
_cell_volume   893.75461289
_cell_formula_units_Z   4
loop_
 _symmetry_equiv_pos_site_id
 _symmetry_equiv_pos_as_xyz
  1  'x, y, z'
loop_
 _atom_site_type_symbol
 _atom_site_label
 _atom_site_symmetry_multiplicity
 _atom_site_fract_x
 _atom_site_fract_y
 _atom_site_fract_z
 _atom_site_occupancy
  Al  Al0  1  0.11329280  0.10377562  0.29578576  1
  Al  Al1  1  0.22829416  0.20232983  0.05228347  1
  Al  Al2  1  0.76770291  0.09935993  0.88092408  1
  Al  Al3  1  0.44155078  0.09414713  0.28039944  1
  Al  Al4  1  0.54188725  0.21685362  0.05622926  1
  Al  Al5  1  0.11324399  0.08918401  0.81892597  1
  Al  Al6  1  0.89778339  0.20018583  0.04888755  1
  Al  Al7  1  0.44578163  0.09480086  0.81780316  1
  Al  Al8  1  0.12522137  0.41923820  0.29149149  1
  Al  Al9  1  0.23404469  0.53321205  0.05187447  1
  Al  Al10  1  0.76890057  0.42689681  0.87413353  1
  Al  Al11  1  0.88907428  0.54780320  0.64180812  1
  Al  Al12  1  0.44027733  0.42892795  0.29367297  1
  Al  Al13  1  0.55043562  0.53767228  0.06871211  1
  Al  Al14  1  0.12566271  0.41876243  0.81125644  1
  Al  Al15  1  0.21805671  0.54208073  0.54382638  1
  Al  Al16  1  0.78943125  0.44603853  0.37657893  1
  Al  Al17  1  0.44318427  0.42646431  0.80359922  1
  Al  Al18  1  0.53508532  0.55276514  0.54486006  1
  Al  Al19  1  0.11698675  0.74567103  0.30324233  1
  Al  Al20  1  0.21824458  0.87412487  0.06733918  1
  Al  Al21  1  0.77445090  0.78076493  0.81431725  1
  Al  Al22  1  0.90266361  0.84954972  0.53252378  1
  Al  Al23  1  0.44298338  0.76131606  0.29328371  1
  Al  Al24  1  0.55674065  0.88152798  0.05757588  1
  Al  Al25  1  0.21429562  0.86541771  0.53325457  1
  Al  Al26  1  0.78092620  0.75907899  0.28666697  1
  Al  Al27  1  0.89291549  0.87249716  0.05832084  1
  Gd  Gd28  1  0.87023401  0.21363416  0.60074656  1
  Gd  Gd29  1  0.20474858  0.19900497  0.55548164  1
  Gd  Gd30  1  0.79326027  0.09549061  0.31362281  1
  Gd  Gd31  1  0.53213708  0.20930426  0.54916880  1
  Gd  Gd32  1  0.89656068  0.54000668  0.07540762  1
  Gd  Gd33  1  0.10390733  0.76700746  0.78836822  1
  Gd  Gd34  1  0.43771293  0.77241354  0.80495531  1
  Gd  Gd35  1  0.58012975  0.84520868  0.54176904  1
  N  N36  1  0.23210943  0.19883395  0.33942213  1
  N  N37  1  0.10730984  0.10009532  0.11273823  1
  N  N38  1  0.88901849  0.20334164  0.85381231  1
  N  N39  1  0.78292632  0.06396984  0.54650274  1
  N  N40  1  0.53192513  0.21355121  0.33253095  1
  N  N41  1  0.44284002  0.09631813  0.09967975  1
  N  N42  1  0.21894379  0.20363939  0.86686471  1
  N  N43  1  0.12068069  0.04523536  0.64258046  1
  N  N44  1  0.91775170  0.22490816  0.37815186  1
  N  N45  1  0.77740366  0.10021538  0.07503420  1
  N  N46  1  0.54729256  0.21205181  0.86483909  1
  N  N47  1  0.43928135  0.07174473  0.64203573  1
  N  N48  1  0.22945241  0.52746934  0.35906822  1
  N  N49  1  0.15370870  0.40686673  0.11159649  1
  N  N50  1  0.88636761  0.53480950  0.83341524  1
  N  N51  1  0.75434697  0.49142774  0.55949199  1
  N  N52  1  0.55311485  0.53715178  0.34873543  1
  N  N53  1  0.44425494  0.43098893  0.11207908  1
  N  N54  1  0.23402103  0.51789084  0.87233733  1
  N  N55  1  0.11141534  0.44444840  0.62918231  1
  N  N56  1  0.89713817  0.53750138  0.30323644  1
  N  N57  1  0.76672061  0.41329831  0.05806450  1
  N  N58  1  0.55540754  0.52124296  0.85736998  1
  N  N59  1  0.42736761  0.45469839  0.61998096  1
  N  N60  1  0.21652664  0.87773566  0.34604103  1
  N  N61  1  0.11354210  0.75424364  0.11553323  1
  N  N62  1  0.87227822  0.88309096  0.87989083  1
  N  N63  1  0.81396093  0.75985346  0.63916052  1
  N  N64  1  0.55573443  0.87213864  0.32865741  1
  N  N65  1  0.44636733  0.76033945  0.10765802  1
  N  N66  1  0.20252293  0.89365611  0.89368136  1
  N  N67  1  0.11348186  0.75440144  0.57183823  1
  N  N68  1  0.90482784  0.83391160  0.35334883  1
  N  N69  1  0.76452902  0.79606741  0.11192968  1
  N  N70  1  0.56956071  0.88480505  0.87755220  1
  N  N71  1  0.41947260  0.75797720  0.58896950  1
