# generated using pymatgen
data_Gd2Al7N9
_symmetry_space_group_name_H-M   'P 1'
_cell_length_a   9.79882724
_cell_length_b   9.85526520
_cell_length_c   10.72029279
_cell_angle_alpha   89.78801339
_cell_angle_beta   89.48101836
_cell_angle_gamma   60.27476261
_symmetry_Int_Tables_number   1
_chemical_formula_structural   Gd2Al7N9
_chemical_formula_sum   'Gd8 Al28 N36'
_cell_volume   898.99541981
_cell_formula_units_Z   4
loop_
 _symmetry_equiv_pos_site_id
 _symmetry_equiv_pos_as_xyz
  1  'x, y, z'
loop_
 _atom_site_type_symbol
 _atom_site_label
 _atom_site_symmetry_multiplicity
 _atom_site_fract_x
 _atom_site_fract_y
 _atom_site_fract_z
 _atom_site_occupancy
  Al  Al0  1  0.11026711  0.10663318  0.31019061  1
  Al  Al1  1  0.22667894  0.20345101  0.06549509  1
  Al  Al2  1  0.76722770  0.09163037  0.90667829  1
  Al  Al3  1  0.43607700  0.09640156  0.29501195  1
  Al  Al4  1  0.54396120  0.21837928  0.12486686  1
  Al  Al5  1  0.11698168  0.08401715  0.82783978  1
  Al  Al6  1  0.89552112  0.20194808  0.06214147  1
  Al  Al7  1  0.44068412  0.08590352  0.83602755  1
  Al  Al8  1  0.12055082  0.42343832  0.29877153  1
  Al  Al9  1  0.22743927  0.53906709  0.06735550  1
  Al  Al10  1  0.77390606  0.41164396  0.87722152  1
  Al  Al11  1  0.88912276  0.55122249  0.65157497  1
  Al  Al12  1  0.44340552  0.43468575  0.36989273  1
  Al  Al13  1  0.55914086  0.53081891  0.13630413  1
  Al  Al14  1  0.12644060  0.41681394  0.82138289  1
  Al  Al15  1  0.21373202  0.54731404  0.54392878  1
  Al  Al16  1  0.78102940  0.45375093  0.38632620  1
  Al  Al17  1  0.45696076  0.40714520  0.89626024  1
  Al  Al18  1  0.54379030  0.54331761  0.62279553  1
  Al  Al19  1  0.11412694  0.74996330  0.31562754  1
  Al  Al20  1  0.21325571  0.87927756  0.07799533  1
  Al  Al21  1  0.77374722  0.77844126  0.82757713  1
  Al  Al22  1  0.90091034  0.85322588  0.54645247  1
  Al  Al23  1  0.43901716  0.77046162  0.30103783  1
  Al  Al24  1  0.55457113  0.88410460  0.07041899  1
  Al  Al25  1  0.22105730  0.86380929  0.55556179  1
  Al  Al26  1  0.77658053  0.76061619  0.30158032  1
  Al  Al27  1  0.89147324  0.87242717  0.07718927  1
  Gd  Gd28  1  0.87607771  0.21967710  0.60648034  1
  Gd  Gd29  1  0.21530847  0.20402048  0.56330894  1
  Gd  Gd30  1  0.78550013  0.09768038  0.34060313  1
  Gd  Gd31  1  0.55465737  0.22018654  0.64710710  1
  Gd  Gd32  1  0.89132160  0.54283719  0.08450592  1
  Gd  Gd33  1  0.10323359  0.76241711  0.80004697  1
  Gd  Gd34  1  0.45158425  0.73987966  0.85144221  1
  Gd  Gd35  1  0.57285758  0.84581197  0.56432691  1
  N  N36  1  0.22696370  0.20569707  0.35018805  1
  N  N37  1  0.10421916  0.10237367  0.12814672  1
  N  N38  1  0.89619856  0.18937556  0.87220733  1
  N  N39  1  0.78163937  0.06911056  0.55880119  1
  N  N40  1  0.52565323  0.22931607  0.30502783  1
  N  N41  1  0.43897359  0.09489734  0.11452648  1
  N  N42  1  0.21703202  0.20319994  0.88175615  1
  N  N43  1  0.12338260  0.05586640  0.65056945  1
  N  N44  1  0.91212257  0.23062765  0.38964047  1
  N  N45  1  0.77741510  0.09995374  0.09438751  1
  N  N46  1  0.55526006  0.19303941  0.86520048  1
  N  N47  1  0.44106549  0.07950337  0.65716452  1
  N  N48  1  0.21710169  0.53606790  0.36314522  1
  N  N49  1  0.14964143  0.40995043  0.12201331  1
  N  N50  1  0.88398507  0.53084531  0.83953586  1
  N  N51  1  0.74952257  0.50151150  0.56510263  1
  N  N52  1  0.56091538  0.53902157  0.31465497  1
  N  N53  1  0.45067443  0.43374536  0.07374723  1
  N  N54  1  0.23212466  0.51826061  0.88610987  1
  N  N55  1  0.11330229  0.44934007  0.64139984  1
  N  N56  1  0.89211619  0.53876150  0.30889925  1
  N  N57  1  0.75505733  0.41967441  0.05536281  1
  N  N58  1  0.58067148  0.47079646  0.79683150  1
  N  N59  1  0.43787856  0.45146397  0.54632604  1
  N  N60  1  0.22021128  0.87843087  0.36574928  1
  N  N61  1  0.11172443  0.75856882  0.13088666  1
  N  N62  1  0.87420978  0.87448017  0.90100654  1
  N  N63  1  0.81114143  0.76517317  0.65406236  1
  N  N64  1  0.55110526  0.87678318  0.34929324  1
  N  N65  1  0.44218589  0.76552780  0.11528744  1
  N  N66  1  0.20399767  0.89003107  0.90462010  1
  N  N67  1  0.11274635  0.75697382  0.58641807  1
  N  N68  1  0.90212928  0.83444311  0.36929321  1
  N  N69  1  0.75976982  0.79818712  0.12913617  1
  N  N70  1  0.56810612  0.87767954  0.89074918  1
  N  N71  1  0.41570152  0.75674101  0.63738644  1
