# generated using pymatgen
data_Gd2Al7N9
_symmetry_space_group_name_H-M   'P 1'
_cell_length_a   9.79864645
_cell_length_b   9.87455250
_cell_length_c   10.75105691
_cell_angle_alpha   89.39112832
_cell_angle_beta   89.26417784
_cell_angle_gamma   60.05576312
_symmetry_Int_Tables_number   1
_chemical_formula_structural   Gd2Al7N9
_chemical_formula_sum   'Gd8 Al28 N36'
_cell_volume   901.29737286
_cell_formula_units_Z   4
loop_
 _symmetry_equiv_pos_site_id
 _symmetry_equiv_pos_as_xyz
  1  'x, y, z'
loop_
 _atom_site_type_symbol
 _atom_site_label
 _atom_site_symmetry_multiplicity
 _atom_site_fract_x
 _atom_site_fract_y
 _atom_site_fract_z
 _atom_site_occupancy
  Al  Al0  1  0.10842844  0.10314497  0.30705091  1
  Al  Al1  1  0.21845658  0.20757669  0.08001652  1
  Al  Al2  1  0.76836095  0.09449309  0.90451102  1
  Al  Al3  1  0.43920462  0.09581255  0.33011465  1
  Al  Al4  1  0.54457685  0.21883654  0.12967419  1
  Al  Al5  1  0.12044150  0.08621557  0.82952296  1
  Al  Al6  1  0.89408907  0.20198554  0.06126863  1
  Al  Al7  1  0.44539270  0.09765752  0.90946924  1
  Al  Al8  1  0.11936263  0.42706939  0.29594350  1
  Al  Al9  1  0.22882471  0.54052691  0.06566541  1
  Al  Al10  1  0.77376531  0.41586945  0.87955563  1
  Al  Al11  1  0.88876912  0.55231001  0.65551091  1
  Al  Al12  1  0.44503563  0.43191517  0.37311061  1
  Al  Al13  1  0.56037831  0.52802981  0.13637441  1
  Al  Al14  1  0.13003440  0.41625300  0.82230056  1
  Al  Al15  1  0.21581779  0.54492167  0.54700952  1
  Al  Al16  1  0.78431943  0.44968642  0.38915719  1
  Al  Al17  1  0.45889385  0.41122576  0.89461380  1
  Al  Al18  1  0.54500900  0.53926378  0.62625698  1
  Al  Al19  1  0.11460673  0.74881757  0.31731306  1
  Al  Al20  1  0.21435618  0.87698775  0.07706452  1
  Al  Al21  1  0.77248583  0.78367098  0.82785149  1
  Al  Al22  1  0.89943122  0.85272419  0.54860524  1
  Al  Al23  1  0.43775095  0.76609063  0.29831128  1
  Al  Al24  1  0.55734543  0.87707104  0.08324721  1
  Al  Al25  1  0.22018564  0.86527380  0.55608921  1
  Al  Al26  1  0.78169140  0.75732320  0.29852124  1
  Al  Al27  1  0.89343237  0.87382986  0.07520668  1
  Gd  Gd28  1  0.86907712  0.21782715  0.61804089  1
  Gd  Gd29  1  0.18642242  0.21611184  0.54733769  1
  Gd  Gd30  1  0.78720614  0.09750407  0.34631641  1
  Gd  Gd31  1  0.53987199  0.20409615  0.64055302  1
  Gd  Gd32  1  0.89178343  0.54399935  0.08058911  1
  Gd  Gd33  1  0.10652414  0.76481632  0.79920575  1
  Gd  Gd34  1  0.45224698  0.75039368  0.84515007  1
  Gd  Gd35  1  0.57681655  0.83269276  0.54807690  1
  N  N36  1  0.22092153  0.20735789  0.33272300  1
  N  N37  1  0.10143611  0.09991185  0.12775340  1
  N  N38  1  0.89638382  0.19276401  0.87187496  1
  N  N39  1  0.77935440  0.06912341  0.56157385  1
  N  N40  1  0.52642401  0.22694559  0.30546315  1
  N  N41  1  0.44103547  0.09882341  0.09329359  1
  N  N42  1  0.21805370  0.20549509  0.88734374  1
  N  N43  1  0.12209490  0.05373451  0.65436522  1
  N  N44  1  0.91690183  0.22674922  0.39598597  1
  N  N45  1  0.77639331  0.10064013  0.09313197  1
  N  N46  1  0.55615380  0.19692670  0.85991243  1
  N  N47  1  0.43441923  0.08466297  0.55665323  1
  N  N48  1  0.21843996  0.53407148  0.36592822  1
  N  N49  1  0.14770840  0.41582287  0.12145509  1
  N  N50  1  0.88489455  0.53308668  0.84166046  1
  N  N51  1  0.75267814  0.49777067  0.56756320  1
  N  N52  1  0.56222109  0.53478640  0.31547195  1
  N  N53  1  0.45239493  0.43191436  0.07342128  1
  N  N54  1  0.23355887  0.52003768  0.88574907  1
  N  N55  1  0.11501256  0.44935610  0.64380603  1
  N  N56  1  0.89252247  0.53705503  0.30966507  1
  N  N57  1  0.75710189  0.41917646  0.05713740  1
  N  N58  1  0.58006469  0.48037005  0.80214411  1
  N  N59  1  0.44300977  0.44413700  0.55026261  1
  N  N60  1  0.22005104  0.87736707  0.36539444  1
  N  N61  1  0.11288243  0.75831702  0.13180752  1
  N  N62  1  0.87615718  0.87744161  0.89896231  1
  N  N63  1  0.80487357  0.76821947  0.65453543  1
  N  N64  1  0.55431098  0.86917093  0.33266225  1
  N  N65  1  0.44214976  0.76218727  0.11563062  1
  N  N66  1  0.20569167  0.89110493  0.90550267  1
  N  N67  1  0.11306989  0.75616485  0.58590353  1
  N  N68  1  0.90141664  0.83398807  0.37113679  1
  N  N69  1  0.76622075  0.79615121  0.12794502  1
  N  N70  1  0.57105744  0.88057937  0.89740466  1
  N  N71  1  0.41666822  0.75449979  0.63349115  1
