# generated using pymatgen
data_Gd2Al7N9
_symmetry_space_group_name_H-M   'P 1'
_cell_length_a   9.88516502
_cell_length_b   9.91668369
_cell_length_c   10.52287030
_cell_angle_alpha   89.75879273
_cell_angle_beta   90.11507667
_cell_angle_gamma   60.18338021
_symmetry_Int_Tables_number   1
_chemical_formula_structural   Gd2Al7N9
_chemical_formula_sum   'Gd8 Al28 N36'
_cell_volume   894.96507001
_cell_formula_units_Z   4
loop_
 _symmetry_equiv_pos_site_id
 _symmetry_equiv_pos_as_xyz
  1  'x, y, z'
loop_
 _atom_site_type_symbol
 _atom_site_label
 _atom_site_symmetry_multiplicity
 _atom_site_fract_x
 _atom_site_fract_y
 _atom_site_fract_z
 _atom_site_occupancy
  Al  Al0  1  0.10947511  0.10225447  0.33786028  1
  Al  Al1  1  0.22402006  0.21288970  0.15620861  1
  Al  Al2  1  0.77411160  0.10279925  0.93240033  1
  Al  Al3  1  0.43201061  0.11094230  0.38532385  1
  Al  Al4  1  0.53849418  0.21866240  0.13688183  1
  Al  Al5  1  0.11692555  0.08463643  0.85024805  1
  Al  Al6  1  0.88338454  0.21686989  0.14896239  1
  Al  Al7  1  0.44428602  0.08918241  0.92227720  1
  Al  Al8  1  0.09937147  0.44333227  0.39599803  1
  Al  Al9  1  0.22914354  0.53670044  0.15411823  1
  Al  Al10  1  0.78099357  0.40410526  0.90067315  1
  Al  Al11  1  0.89937720  0.54168551  0.66190040  1
  Al  Al12  1  0.43560608  0.43331293  0.39301871  1
  Al  Al13  1  0.55151351  0.53238320  0.15481463  1
  Al  Al14  1  0.13481392  0.40731594  0.90083174  1
  Al  Al15  1  0.23081700  0.53013071  0.63383548  1
  Al  Al16  1  0.77140174  0.45263734  0.40154002  1
  Al  Al17  1  0.44890463  0.41585716  0.90723515  1
  Al  Al18  1  0.54739359  0.53411512  0.64704723  1
  Al  Al19  1  0.11311938  0.75668087  0.33810209  1
  Al  Al20  1  0.20957439  0.88582666  0.09902793  1
  Al  Al21  1  0.77398312  0.78846688  0.83800170  1
  Al  Al22  1  0.91354562  0.84363813  0.57103151  1
  Al  Al23  1  0.43184892  0.76277924  0.32867888  1
  Al  Al24  1  0.54327794  0.88935778  0.16202466  1
  Al  Al25  1  0.22563372  0.85648649  0.57961971  1
  Al  Al26  1  0.78434086  0.75595022  0.32695723  1
  Al  Al27  1  0.88681048  0.87837749  0.09974521  1
  Gd  Gd28  1  0.87897029  0.21591725  0.63728318  1
  Gd  Gd29  1  0.22657286  0.20244494  0.63892220  1
  Gd  Gd30  1  0.76980734  0.09334074  0.36842520  1
  Gd  Gd31  1  0.56205727  0.19430628  0.67263845  1
  Gd  Gd32  1  0.88647375  0.54663101  0.10864498  1
  Gd  Gd33  1  0.10337220  0.76758615  0.83326190  1
  Gd  Gd34  1  0.46052734  0.74708558  0.87546876  1
  Gd  Gd35  1  0.57939457  0.83286556  0.58963597  1
  N  N36  1  0.21526782  0.21928006  0.34597879  1
  N  N37  1  0.10615698  0.10141829  0.15303877  1
  N  N38  1  0.89503348  0.19045044  0.86852655  1
  N  N39  1  0.79329032  0.06226565  0.58729781  1
  N  N40  1  0.51571671  0.23121541  0.31912717  1
  N  N41  1  0.43519469  0.09460948  0.10487634  1
  N  N42  1  0.23099814  0.19486879  0.86044707  1
  N  N43  1  0.12577224  0.04884753  0.66254089  1
  N  N44  1  0.89243357  0.23338575  0.36405438  1
  N  N45  1  0.77682173  0.10399012  0.12240056  1
  N  N46  1  0.55801461  0.19750612  0.89932793  1
  N  N47  1  0.45657614  0.08832840  0.55936835  1
  N  N48  1  0.22317490  0.53597385  0.33691157  1
  N  N49  1  0.14726314  0.41537972  0.08355583  1
  N  N50  1  0.89913706  0.51863954  0.85786446  1
  N  N51  1  0.75114482  0.49167196  0.58248976  1
  N  N52  1  0.55322544  0.53747092  0.33750182  1
  N  N53  1  0.43507221  0.44432094  0.08900205  1
  N  N54  1  0.24916125  0.49568519  0.82276786  1
  N  N55  1  0.09470133  0.45495604  0.57718792  1
  N  N56  1  0.88812233  0.53923277  0.33382849  1
  N  N57  1  0.75349162  0.41938970  0.08295716  1
  N  N58  1  0.58267494  0.47755376  0.82489879  1
  N  N59  1  0.44220254  0.43550702  0.57264627  1
  N  N60  1  0.21836596  0.87757388  0.39040610  1
  N  N61  1  0.10516066  0.76985923  0.14937839  1
  N  N62  1  0.86789909  0.88421347  0.92158272  1
  N  N63  1  0.82362587  0.75318444  0.66722087  1
  N  N64  1  0.54927375  0.87315946  0.35167520  1
  N  N65  1  0.43824422  0.76658478  0.13993669  1
  N  N66  1  0.21134771  0.89185569  0.92457934  1
  N  N67  1  0.12271773  0.74731774  0.61550164  1
  N  N68  1  0.90759182  0.83014662  0.39236963  1
  N  N69  1  0.75827508  0.80148713  0.15134248  1
  N  N70  1  0.56089838  0.89696908  0.84278896  1
  N  N71  1  0.42134557  0.74696254  0.65433456  1
