# generated using pymatgen
data_Gd2Al7N9
_symmetry_space_group_name_H-M   'P 1'
_cell_length_a   9.90507050
_cell_length_b   9.92267449
_cell_length_c   10.51930740
_cell_angle_alpha   88.69282875
_cell_angle_beta   89.74885691
_cell_angle_gamma   59.93786750
_symmetry_Int_Tables_number   1
_chemical_formula_structural   Gd2Al7N9
_chemical_formula_sum   'Gd8 Al28 N36'
_cell_volume   894.54958514
_cell_formula_units_Z   4
loop_
 _symmetry_equiv_pos_site_id
 _symmetry_equiv_pos_as_xyz
  1  'x, y, z'
loop_
 _atom_site_type_symbol
 _atom_site_label
 _atom_site_symmetry_multiplicity
 _atom_site_fract_x
 _atom_site_fract_y
 _atom_site_fract_z
 _atom_site_occupancy
  Al  Al0  1  0.11020886  0.10033795  0.38783404  1
  Al  Al1  1  0.22003294  0.21317162  0.15662873  1
  Al  Al2  1  0.78281074  0.09381818  0.93620481  1
  Al  Al3  1  0.42772848  0.11584385  0.38046882  1
  Al  Al4  1  0.54051586  0.21726190  0.13029391  1
  Al  Al5  1  0.10520826  0.10930389  0.93130451  1
  Al  Al6  1  0.88555924  0.21708560  0.15975090  1
  Al  Al7  1  0.44349597  0.09125141  0.92739312  1
  Al  Al8  1  0.10060225  0.43514002  0.39786970  1
  Al  Al9  1  0.22695785  0.53869431  0.15908481  1
  Al  Al10  1  0.77575719  0.40877802  0.90430662  1
  Al  Al11  1  0.89932915  0.53489698  0.65585807  1
  Al  Al12  1  0.43492628  0.43096692  0.39386133  1
  Al  Al13  1  0.55219342  0.53049874  0.15276535  1
  Al  Al14  1  0.13377751  0.40919477  0.90177918  1
  Al  Al15  1  0.23016133  0.52724603  0.63674778  1
  Al  Al16  1  0.77331367  0.44625551  0.39868593  1
  Al  Al17  1  0.44992396  0.41672105  0.90912932  1
  Al  Al18  1  0.54793569  0.53071327  0.64623435  1
  Al  Al19  1  0.11410272  0.74567050  0.39066568  1
  Al  Al20  1  0.21665303  0.87889734  0.10380170  1
  Al  Al21  1  0.77047326  0.78732908  0.82605783  1
  Al  Al22  1  0.90951974  0.86103209  0.62580243  1
  Al  Al23  1  0.43519288  0.75608810  0.32344536  1
  Al  Al24  1  0.54351269  0.88864265  0.15967613  1
  Al  Al25  1  0.23088596  0.85235113  0.56565065  1
  Al  Al26  1  0.78110061  0.75650127  0.32467018  1
  Al  Al27  1  0.89504934  0.87831875  0.16024457  1
  Gd  Gd28  1  0.89172429  0.20911911  0.65381439  1
  Gd  Gd29  1  0.23461660  0.18950307  0.65142083  1
  Gd  Gd30  1  0.76193332  0.10434605  0.37965795  1
  Gd  Gd31  1  0.56276194  0.18992495  0.68281517  1
  Gd  Gd32  1  0.88515644  0.54751766  0.10819849  1
  Gd  Gd33  1  0.11353973  0.74658717  0.89407943  1
  Gd  Gd34  1  0.45708064  0.75508765  0.86800065  1
  Gd  Gd35  1  0.57292998  0.83909407  0.57859161  1
  N  N36  1  0.21166132  0.21619617  0.34047152  1
  N  N37  1  0.10329329  0.11024827  0.11611376  1
  N  N38  1  0.89673615  0.19544372  0.87354855  1
  N  N39  1  0.79221714  0.07047733  0.59228437  1
  N  N40  1  0.51242043  0.23432850  0.31321447  1
  N  N41  1  0.43272018  0.09476955  0.10765875  1
  N  N42  1  0.22605790  0.19673462  0.87102269  1
  N  N43  1  0.12311166  0.06857225  0.56913221  1
  N  N44  1  0.89428569  0.23265413  0.34294012  1
  N  N45  1  0.78395852  0.09791088  0.12264663  1
  N  N46  1  0.55984908  0.19840280  0.91333393  1
  N  N47  1  0.45751813  0.09598886  0.55526820  1
  N  N48  1  0.21925792  0.53548917  0.34132701  1
  N  N49  1  0.14600687  0.41939127  0.08424150  1
  N  N50  1  0.89503719  0.52535743  0.85651686  1
  N  N51  1  0.75668160  0.47363577  0.58193203  1
  N  N52  1  0.55545153  0.53211953  0.33643625  1
  N  N53  1  0.43120140  0.44939447  0.08892478  1
  N  N54  1  0.25353324  0.48836142  0.81875534  1
  N  N55  1  0.10070240  0.44183479  0.58092418  1
  N  N56  1  0.88741139  0.54090736  0.33824119  1
  N  N57  1  0.75309959  0.41968734  0.08445125  1
  N  N58  1  0.57958962  0.48197716  0.82584182  1
  N  N59  1  0.44282444  0.43254319  0.57443684  1
  N  N60  1  0.22462823  0.86326764  0.37400479  1
  N  N61  1  0.10895031  0.76000233  0.11651164  1
  N  N62  1  0.86724231  0.90033553  0.85720734  1
  N  N63  1  0.81534955  0.74636883  0.65098483  1
  N  N64  1  0.54912950  0.87137650  0.34890760  1
  N  N65  1  0.44318175  0.76403438  0.13642212  1
  N  N66  1  0.21348832  0.89637020  0.92093520  1
  N  N67  1  0.11938342  0.74455649  0.58416535  1
  N  N68  1  0.90354684  0.84801345  0.34613961  1
  N  N69  1  0.75666054  0.80132570  0.14151151  1
  N  N70  1  0.55470417  0.90968650  0.83235946  1
  N  N71  1  0.41953533  0.74749998  0.64834033  1
