# generated using pymatgen
data_Gd2Al7N9
_symmetry_space_group_name_H-M   'P 1'
_cell_length_a   9.75530080
_cell_length_b   9.87660962
_cell_length_c   10.81268996
_cell_angle_alpha   89.28390022
_cell_angle_beta   88.91592482
_cell_angle_gamma   59.86746882
_symmetry_Int_Tables_number   1
_chemical_formula_structural   Gd2Al7N9
_chemical_formula_sum   'Gd8 Al28 N36'
_cell_volume   900.84700939
_cell_formula_units_Z   4
loop_
 _symmetry_equiv_pos_site_id
 _symmetry_equiv_pos_as_xyz
  1  'x, y, z'
loop_
 _atom_site_type_symbol
 _atom_site_label
 _atom_site_symmetry_multiplicity
 _atom_site_fract_x
 _atom_site_fract_y
 _atom_site_fract_z
 _atom_site_occupancy
  Al  Al0  1  0.10819723  0.09651280  0.32272324  1
  Al  Al1  1  0.23274302  0.20123392  0.14800765  1
  Al  Al2  1  0.76915346  0.09351401  0.91526447  1
  Al  Al3  1  0.44469506  0.09355606  0.37113714  1
  Al  Al4  1  0.54484054  0.21549829  0.14270581  1
  Al  Al5  1  0.12564231  0.08607334  0.83275620  1
  Al  Al6  1  0.89951384  0.19909218  0.07011240  1
  Al  Al7  1  0.43605231  0.10321157  0.91710729  1
  Al  Al8  1  0.11642903  0.43691458  0.30958734  1
  Al  Al9  1  0.23257733  0.53875249  0.07447068  1
  Al  Al10  1  0.77852907  0.41361034  0.89045303  1
  Al  Al11  1  0.88383222  0.55667749  0.66526205  1
  Al  Al12  1  0.44679600  0.43101754  0.38529868  1
  Al  Al13  1  0.56444680  0.52439075  0.14665569  1
  Al  Al14  1  0.13342225  0.41522427  0.82311041  1
  Al  Al15  1  0.21175194  0.54880071  0.55622828  1
  Al  Al16  1  0.78437592  0.45057509  0.40185480  1
  Al  Al17  1  0.46319772  0.40569781  0.90402285  1
  Al  Al18  1  0.54056317  0.53927774  0.64110409  1
  Al  Al19  1  0.11496584  0.75042700  0.32617255  1
  Al  Al20  1  0.21603720  0.87833190  0.08726860  1
  Al  Al21  1  0.77206242  0.78597653  0.83752280  1
  Al  Al22  1  0.89324280  0.85628307  0.55877049  1
  Al  Al23  1  0.44161745  0.76434947  0.30733565  1
  Al  Al24  1  0.55954252  0.87891565  0.08961263  1
  Al  Al25  1  0.21550121  0.86563564  0.56698236  1
  Al  Al26  1  0.78084883  0.75833981  0.30882308  1
  Al  Al27  1  0.89529266  0.87314741  0.08511111  1
  Gd  Gd28  1  0.85620761  0.22046440  0.63560660  1
  Gd  Gd29  1  0.17006328  0.22154089  0.55594149  1
  Gd  Gd30  1  0.78832189  0.10022321  0.35751129  1
  Gd  Gd31  1  0.52574857  0.20263481  0.64994899  1
  Gd  Gd32  1  0.89879872  0.54179636  0.08696420  1
  Gd  Gd33  1  0.11214435  0.76562342  0.80965186  1
  Gd  Gd34  1  0.45726242  0.74490581  0.86346712  1
  Gd  Gd35  1  0.57004075  0.82826309  0.56180219  1
  N  N36  1  0.22410151  0.20477852  0.33163546  1
  N  N37  1  0.10364877  0.09742984  0.14431360  1
  N  N38  1  0.90032528  0.19060478  0.88289187  1
  N  N39  1  0.76815768  0.07374227  0.57079901  1
  N  N40  1  0.52644435  0.22512182  0.31829165  1
  N  N41  1  0.44216307  0.10024492  0.09555466  1
  N  N42  1  0.22955206  0.20147370  0.85503128  1
  N  N43  1  0.11273019  0.05437030  0.66005367  1
  N  N44  1  0.92116282  0.22705970  0.41458245  1
  N  N45  1  0.77826736  0.09987603  0.10329548  1
  N  N46  1  0.55904596  0.19334803  0.86579365  1
  N  N47  1  0.42500901  0.08818816  0.54493996  1
  N  N48  1  0.21959807  0.53723253  0.37750384  1
  N  N49  1  0.15247581  0.41632341  0.13707438  1
  N  N50  1  0.88541348  0.53426462  0.84980154  1
  N  N51  1  0.74709583  0.50242053  0.57812241  1
  N  N52  1  0.56462123  0.53174102  0.32524190  1
  N  N53  1  0.45689138  0.42820682  0.08252394  1
  N  N54  1  0.23541822  0.51827982  0.89463420  1
  N  N55  1  0.10906245  0.45477709  0.64614620  1
  N  N56  1  0.89273270  0.53785790  0.32202781  1
  N  N57  1  0.76277280  0.41779397  0.06743924  1
  N  N58  1  0.58560576  0.47501735  0.81252331  1
  N  N59  1  0.44180464  0.44275977  0.56269789  1
  N  N60  1  0.22243991  0.87444468  0.37771072  1
  N  N61  1  0.11580513  0.75753932  0.14163431  1
  N  N62  1  0.87943021  0.87545567  0.90909856  1
  N  N63  1  0.79551422  0.77371686  0.66401572  1
  N  N64  1  0.55681990  0.86502880  0.34793980  1
  N  N65  1  0.44551057  0.76101458  0.12578509  1
  N  N66  1  0.20748692  0.89470046  0.91676032  1
  N  N67  1  0.10703512  0.75882495  0.59741239  1
  N  N68  1  0.90036134  0.83692796  0.38082473  1
  N  N69  1  0.76830697  0.79428453  0.13830610  1
  N  N70  1  0.57017437  0.88207418  0.90643490  1
  N  N71  1  0.40825533  0.75463532  0.65248089  1
