# generated using pymatgen
data_Gd2Al7N9
_symmetry_space_group_name_H-M   'P 1'
_cell_length_a   9.86248650
_cell_length_b   9.90303428
_cell_length_c   10.58972227
_cell_angle_alpha   89.00741168
_cell_angle_beta   89.55259349
_cell_angle_gamma   59.99339295
_symmetry_Int_Tables_number   1
_chemical_formula_structural   Gd2Al7N9
_chemical_formula_sum   'Gd8 Al28 N36'
_cell_volume   895.52064720
_cell_formula_units_Z   4
loop_
 _symmetry_equiv_pos_site_id
 _symmetry_equiv_pos_as_xyz
  1  'x, y, z'
loop_
 _atom_site_type_symbol
 _atom_site_label
 _atom_site_symmetry_multiplicity
 _atom_site_fract_x
 _atom_site_fract_y
 _atom_site_fract_z
 _atom_site_occupancy
  Al  Al0  1  0.11255174  0.10471675  0.29575245  1
  Al  Al1  1  0.22820700  0.20259008  0.05225470  1
  Al  Al2  1  0.76825963  0.09914604  0.88096574  1
  Al  Al3  1  0.44133651  0.09438030  0.28018432  1
  Al  Al4  1  0.54176154  0.21739511  0.05570241  1
  Al  Al5  1  0.11246807  0.08961573  0.81907266  1
  Al  Al6  1  0.89665605  0.20136465  0.04779164  1
  Al  Al7  1  0.44590660  0.09510103  0.81769631  1
  Al  Al8  1  0.12435597  0.41945403  0.29087818  1
  Al  Al9  1  0.23493528  0.53316743  0.05144692  1
  Al  Al10  1  0.76585841  0.42794272  0.87259277  1
  Al  Al11  1  0.88886558  0.54777019  0.64153406  1
  Al  Al12  1  0.43809230  0.42695670  0.29300605  1
  Al  Al13  1  0.55951242  0.53493557  0.11815243  1
  Al  Al14  1  0.12531369  0.41891262  0.81100560  1
  Al  Al15  1  0.21695958  0.54210906  0.54256029  1
  Al  Al16  1  0.78561903  0.44792411  0.37492570  1
  Al  Al17  1  0.44258401  0.42349002  0.80227849  1
  Al  Al18  1  0.54209293  0.54843423  0.59600667  1
  Al  Al19  1  0.11691514  0.74565006  0.30286218  1
  Al  Al20  1  0.21791055  0.87461285  0.06719608  1
  Al  Al21  1  0.77474695  0.78071184  0.81404910  1
  Al  Al22  1  0.90259068  0.84947094  0.53234283  1
  Al  Al23  1  0.44119700  0.76563283  0.29270673  1
  Al  Al24  1  0.55649627  0.88232281  0.05763986  1
  Al  Al25  1  0.21444502  0.86466316  0.53349574  1
  Al  Al26  1  0.78128678  0.75870398  0.28643835  1
  Al  Al27  1  0.89306588  0.87252173  0.05823704  1
  Gd  Gd28  1  0.87065700  0.21313661  0.60059919  1
  Gd  Gd29  1  0.20474868  0.19898161  0.55547064  1
  Gd  Gd30  1  0.79348400  0.09535550  0.31345042  1
  Gd  Gd31  1  0.53266317  0.20760909  0.54860198  1
  Gd  Gd32  1  0.89601911  0.54010312  0.07419340  1
  Gd  Gd33  1  0.10395869  0.76701918  0.78801048  1
  Gd  Gd34  1  0.43694366  0.77496921  0.81059626  1
  Gd  Gd35  1  0.57969470  0.84413929  0.54178158  1
  N  N36  1  0.23197673  0.19908915  0.33938008  1
  N  N37  1  0.10620162  0.10133653  0.11288142  1
  N  N38  1  0.88967027  0.20302486  0.85466977  1
  N  N39  1  0.78372863  0.06364269  0.54643766  1
  N  N40  1  0.53207851  0.21306238  0.33274447  1
  N  N41  1  0.44282942  0.09681463  0.09982063  1
  N  N42  1  0.21920725  0.20349408  0.86676595  1
  N  N43  1  0.12056158  0.04528200  0.64244469  1
  N  N44  1  0.91682492  0.22572756  0.37800590  1
  N  N45  1  0.77740845  0.10029656  0.07510362  1
  N  N46  1  0.54770241  0.21175655  0.86528525  1
  N  N47  1  0.43937104  0.07110963  0.64215919  1
  N  N48  1  0.22878792  0.52776024  0.35843173  1
  N  N49  1  0.15310401  0.40737359  0.11103648  1
  N  N50  1  0.88659538  0.53471395  0.83308457  1
  N  N51  1  0.75272056  0.49247002  0.55627650  1
  N  N52  1  0.56079029  0.53533337  0.31303135  1
  N  N53  1  0.44407968  0.43017002  0.10996028  1
  N  N54  1  0.23453478  0.51793024  0.87200991  1
  N  N55  1  0.11051900  0.44434232  0.62880413  1
  N  N56  1  0.89682931  0.53719191  0.30249124  1
  N  N57  1  0.76089746  0.41639930  0.05336911  1
  N  N58  1  0.56618344  0.51615923  0.81261747  1
  N  N59  1  0.42188302  0.45146213  0.61808577  1
  N  N60  1  0.21673686  0.87802254  0.34660523  1
  N  N61  1  0.11369186  0.75439368  0.11567562  1
  N  N62  1  0.87245851  0.88294445  0.87984695  1
  N  N63  1  0.81342316  0.75983757  0.63876964  1
  N  N64  1  0.55577706  0.87282497  0.32900487  1
  N  N65  1  0.44472839  0.76463697  0.10580778  1
  N  N66  1  0.20016530  0.89449694  0.89402973  1
  N  N67  1  0.11328165  0.75416234  0.57160553  1
  N  N68  1  0.90484005  0.83383058  0.35329470  1
  N  N69  1  0.76477689  0.79573647  0.11182507  1
  N  N70  1  0.57046118  0.88590872  0.87787197  1
  N  N71  1  0.41842599  0.75868875  0.59139440  1
