# generated using pymatgen
data_Gd2Al7N9
_symmetry_space_group_name_H-M   'P 1'
_cell_length_a   9.85310379
_cell_length_b   9.89624852
_cell_length_c   10.56252776
_cell_angle_alpha   88.92638168
_cell_angle_beta   89.59259396
_cell_angle_gamma   60.07968089
_symmetry_Int_Tables_number   1
_chemical_formula_structural   Gd2Al7N9
_chemical_formula_sum   'Gd8 Al28 N36'
_cell_volume   892.50898014
_cell_formula_units_Z   4
loop_
 _symmetry_equiv_pos_site_id
 _symmetry_equiv_pos_as_xyz
  1  'x, y, z'
loop_
 _atom_site_type_symbol
 _atom_site_label
 _atom_site_symmetry_multiplicity
 _atom_site_fract_x
 _atom_site_fract_y
 _atom_site_fract_z
 _atom_site_occupancy
  Al  Al0  1  0.11469832  0.09970545  0.29307609  1
  Al  Al1  1  0.22744634  0.20202168  0.05205419  1
  Al  Al2  1  0.76641887  0.10205005  0.88099871  1
  Al  Al3  1  0.43986780  0.09331202  0.27978594  1
  Al  Al4  1  0.54079725  0.21739608  0.05715488  1
  Al  Al5  1  0.11303613  0.09028759  0.81805777  1
  Al  Al6  1  0.89553119  0.20350874  0.04822146  1
  Al  Al7  1  0.44507222  0.09725954  0.81822392  1
  Al  Al8  1  0.12490794  0.41816232  0.29219398  1
  Al  Al9  1  0.23293332  0.53324691  0.05416292  1
  Al  Al10  1  0.76910998  0.43008229  0.85308171  1
  Al  Al11  1  0.88968702  0.54804690  0.64716679  1
  Al  Al12  1  0.44139164  0.42840340  0.29279229  1
  Al  Al13  1  0.54857913  0.53638631  0.05169814  1
  Al  Al14  1  0.12732105  0.42039322  0.81322307  1
  Al  Al15  1  0.21928883  0.54504387  0.54650916  1
  Al  Al16  1  0.78636017  0.43363136  0.33907986  1
  Al  Al17  1  0.44170746  0.42962698  0.80720430  1
  Al  Al18  1  0.54252219  0.55149768  0.54765144  1
  Al  Al19  1  0.11776998  0.74422923  0.30252674  1
  Al  Al20  1  0.21991308  0.87268399  0.06571003  1
  Al  Al21  1  0.77346559  0.78325031  0.81443117  1
  Al  Al22  1  0.90403455  0.84826211  0.53234804  1
  Al  Al23  1  0.44523552  0.75839154  0.29267177  1
  Al  Al24  1  0.55507095  0.87990363  0.05718399  1
  Al  Al25  1  0.21782575  0.86531661  0.53129251  1
  Al  Al26  1  0.78089239  0.75601833  0.28564083  1
  Al  Al27  1  0.89194528  0.87263814  0.05707144  1
  Gd  Gd28  1  0.87456847  0.20869740  0.59276421  1
  Gd  Gd29  1  0.20498940  0.20331246  0.55665320  1
  Gd  Gd30  1  0.78996240  0.08862992  0.31067764  1
  Gd  Gd31  1  0.53047295  0.21807806  0.54943451  1
  Gd  Gd32  1  0.89576896  0.53996696  0.06975377  1
  Gd  Gd33  1  0.10304029  0.76743389  0.78927116  1
  Gd  Gd34  1  0.43798760  0.77236516  0.79890994  1
  Gd  Gd35  1  0.58061638  0.85456281  0.54076817  1
  N  N36  1  0.23057919  0.19704364  0.33997512  1
  N  N37  1  0.10778942  0.09866089  0.11034700  1
  N  N38  1  0.88811601  0.20544972  0.85319840  1
  N  N39  1  0.77898562  0.06206353  0.54340932  1
  N  N40  1  0.52935260  0.21360073  0.33185467  1
  N  N41  1  0.44218257  0.09537013  0.09889352  1
  N  N42  1  0.21848828  0.20513023  0.86639330  1
  N  N43  1  0.12492473  0.04528725  0.64091742  1
  N  N44  1  0.91417831  0.22093796  0.36951475  1
  N  N45  1  0.77671812  0.10024570  0.07425980  1
  N  N46  1  0.54611827  0.21465600  0.86573834  1
  N  N47  1  0.43935350  0.07904266  0.64143053  1
  N  N48  1  0.23131129  0.52627251  0.36065353  1
  N  N49  1  0.15277857  0.40606169  0.11297853  1
  N  N50  1  0.89013051  0.53918420  0.83835193  1
  N  N51  1  0.75077025  0.47877218  0.60734205  1
  N  N52  1  0.55807484  0.53238126  0.35742534  1
  N  N53  1  0.44392717  0.43194375  0.11243501  1
  N  N54  1  0.23384769  0.51959196  0.87505748  1
  N  N55  1  0.11206717  0.44789401  0.63143062  1
  N  N56  1  0.89590903  0.53549681  0.30554224  1
  N  N57  1  0.76603881  0.41367481  0.06849171  1
  N  N58  1  0.55174034  0.52453513  0.87087934  1
  N  N59  1  0.42648040  0.46257532  0.62548392  1
  N  N60  1  0.21782159  0.87489386  0.34401670  1
  N  N61  1  0.11258816  0.75439287  0.11461702  1
  N  N62  1  0.87058890  0.88635809  0.87870687  1
  N  N63  1  0.81482852  0.75956156  0.63915667  1
  N  N64  1  0.55634679  0.87066091  0.32666971  1
  N  N65  1  0.44697880  0.75688260  0.10712947  1
  N  N66  1  0.20525541  0.89323517  0.89112018  1
  N  N67  1  0.11438912  0.75734907  0.57251359  1
  N  N68  1  0.90662344  0.82829135  0.35353701  1
  N  N69  1  0.76395716  0.79539173  0.11083859  1
  N  N70  1  0.56731680  0.88552992  0.87564260  1
  N  N71  1  0.42455733  0.76054591  0.58205956  1
