# generated using pymatgen
data_Gd2Al7N9
_symmetry_space_group_name_H-M   'P 1'
_cell_length_a   9.75530228
_cell_length_b   9.87660486
_cell_length_c   10.81269073
_cell_angle_alpha   89.28387590
_cell_angle_beta   88.91599117
_cell_angle_gamma   59.86747955
_symmetry_Int_Tables_number   1
_chemical_formula_structural   Gd2Al7N9
_chemical_formula_sum   'Gd8 Al28 N36'
_cell_volume   900.84689001
_cell_formula_units_Z   4
loop_
 _symmetry_equiv_pos_site_id
 _symmetry_equiv_pos_as_xyz
  1  'x, y, z'
loop_
 _atom_site_type_symbol
 _atom_site_label
 _atom_site_symmetry_multiplicity
 _atom_site_fract_x
 _atom_site_fract_y
 _atom_site_fract_z
 _atom_site_occupancy
  Al  Al0  1  0.10820780  0.09644789  0.32837693  1
  Al  Al1  1  0.23275208  0.20116970  0.15365879  1
  Al  Al2  1  0.76916306  0.09344937  0.92092189  1
  Al  Al3  1  0.44470459  0.09349195  0.37678952  1
  Al  Al4  1  0.54485061  0.21543444  0.14836010  1
  Al  Al5  1  0.12565259  0.08600954  0.83841142  1
  Al  Al6  1  0.89952376  0.19902801  0.07576746  1
  Al  Al7  1  0.43606255  0.10314748  0.92276435  1
  Al  Al8  1  0.11643993  0.43684986  0.31523984  1
  Al  Al9  1  0.23258739  0.53868864  0.08012365  1
  Al  Al10  1  0.77853896  0.41354573  0.89610778  1
  Al  Al11  1  0.88384284  0.55661261  0.67091951  1
  Al  Al12  1  0.44680547  0.43095309  0.39095321  1
  Al  Al13  1  0.56445668  0.52432678  0.15231148  1
  Al  Al14  1  0.13343280  0.41515937  0.82876702  1
  Al  Al15  1  0.21176256  0.54873580  0.56188526  1
  Al  Al16  1  0.78438731  0.45051014  0.40751109  1
  Al  Al17  1  0.46320821  0.40563390  0.90967725  1
  Al  Al18  1  0.54057420  0.53921317  0.64675795  1
  Al  Al19  1  0.11497651  0.75036217  0.33182709  1
  Al  Al20  1  0.21604783  0.87826688  0.09292198  1
  Al  Al21  1  0.77207179  0.78591355  0.84317744  1
  Al  Al22  1  0.89325383  0.85621813  0.56442495  1
  Al  Al23  1  0.44162753  0.76428483  0.31299264  1
  Al  Al24  1  0.55955235  0.87885042  0.09526664  1
  Al  Al25  1  0.21551158  0.86557185  0.57263814  1
  Al  Al26  1  0.78085901  0.75827477  0.31447778  1
  Al  Al27  1  0.89530236  0.87308306  0.09076890  1
  Gd  Gd28  1  0.85621788  0.22039930  0.64126299  1
  Gd  Gd29  1  0.17007112  0.22147880  0.56159301  1
  Gd  Gd30  1  0.78833139  0.10015967  0.36316720  1
  Gd  Gd31  1  0.52575827  0.20257031  0.65560432  1
  Gd  Gd32  1  0.89880768  0.54173251  0.09261866  1
  Gd  Gd33  1  0.11215201  0.76556020  0.81530758  1
  Gd  Gd34  1  0.45727259  0.74484104  0.86912061  1
  Gd  Gd35  1  0.57005079  0.82820118  0.56745766  1
  N  N36  1  0.22411146  0.20471420  0.33728754  1
  N  N37  1  0.10365885  0.09736463  0.14996747  1
  N  N38  1  0.90033517  0.19053985  0.88854723  1
  N  N39  1  0.76816767  0.07367732  0.57645468  1
  N  N40  1  0.52645426  0.22505792  0.32394579  1
  N  N41  1  0.44217404  0.10017961  0.10121076  1
  N  N42  1  0.22956073  0.20141008  0.86069219  1
  N  N43  1  0.11274128  0.05430745  0.66570875  1
  N  N44  1  0.92117443  0.22699449  0.42023805  1
  N  N45  1  0.77827748  0.09981186  0.10895186  1
  N  N46  1  0.55905589  0.19328373  0.87144985  1
  N  N47  1  0.42501743  0.08812602  0.55059324  1
  N  N48  1  0.21960758  0.53716782  0.38315981  1
  N  N49  1  0.15248558  0.41625962  0.14272696  1
  N  N50  1  0.88542338  0.53420032  0.85545764  1
  N  N51  1  0.74710764  0.50235495  0.58377843  1
  N  N52  1  0.56463170  0.53167623  0.33089777  1
  N  N53  1  0.45690127  0.42814314  0.08817846  1
  N  N54  1  0.23542898  0.51821607  0.90028805  1
  N  N55  1  0.10907331  0.45471150  0.65180306  1
  N  N56  1  0.89274367  0.53779268  0.32768270  1
  N  N57  1  0.76278219  0.41772965  0.07309397  1
  N  N58  1  0.58561620  0.47495280  0.81817752  1
  N  N59  1  0.44181530  0.44269482  0.56835289  1
  N  N60  1  0.22245000  0.87438029  0.38336641  1
  N  N61  1  0.11581568  0.75747465  0.14728902  1
  N  N62  1  0.87943942  0.87539122  0.91475593  1
  N  N63  1  0.79552577  0.77365203  0.66967101  1
  N  N64  1  0.55683064  0.86496371  0.35359579  1
  N  N65  1  0.44552034  0.76095039  0.13144114  1
  N  N66  1  0.20749762  0.89463537  0.92241396  1
  N  N67  1  0.10704571  0.75876067  0.60306831  1
  N  N68  1  0.90037173  0.83686372  0.38647906  1
  N  N69  1  0.76831613  0.79422012  0.14396128  1
  N  N70  1  0.57018382  0.88201013  0.91208932  1
  N  N71  1  0.40826684  0.75457088  0.65813481  1
