# generated using pymatgen
data_Gd2Al7N9
_symmetry_space_group_name_H-M   'P 1'
_cell_length_a   9.83182276
_cell_length_b   9.97875589
_cell_length_c   10.58807865
_cell_angle_alpha   89.31250528
_cell_angle_beta   89.39734459
_cell_angle_gamma   59.77294704
_symmetry_Int_Tables_number   1
_chemical_formula_structural   Gd2Al7N9
_chemical_formula_sum   'Gd8 Al28 N36'
_cell_volume   897.47620080
_cell_formula_units_Z   4
loop_
 _symmetry_equiv_pos_site_id
 _symmetry_equiv_pos_as_xyz
  1  'x, y, z'
loop_
 _atom_site_type_symbol
 _atom_site_label
 _atom_site_symmetry_multiplicity
 _atom_site_fract_x
 _atom_site_fract_y
 _atom_site_fract_z
 _atom_site_occupancy
  Al  Al0  1  0.11188153  0.11001861  0.31029767  1
  Al  Al1  1  0.22904393  0.20524906  0.06385466  1
  Al  Al2  1  0.75959971  0.09917240  0.89574782  1
  Al  Al3  1  0.43916763  0.08981799  0.29984279  1
  Al  Al4  1  0.54735982  0.21591313  0.13465237  1
  Al  Al5  1  0.11563331  0.08617316  0.82975703  1
  Al  Al6  1  0.89336296  0.20268526  0.05967934  1
  Al  Al7  1  0.44178225  0.08925984  0.81909751  1
  Al  Al8  1  0.12202858  0.42371823  0.30001254  1
  Al  Al9  1  0.23858637  0.53223192  0.06686302  1
  Al  Al10  1  0.77455122  0.41796251  0.88158959  1
  Al  Al11  1  0.88861728  0.55258717  0.65417538  1
  Al  Al12  1  0.44040525  0.43588611  0.32820470  1
  Al  Al13  1  0.56247031  0.53283515  0.14004473  1
  Al  Al14  1  0.12793258  0.41873287  0.82310705  1
  Al  Al15  1  0.21765815  0.54398406  0.54915505  1
  Al  Al16  1  0.78439339  0.45395355  0.39230892  1
  Al  Al17  1  0.45185340  0.40577939  0.82285768  1
  Al  Al18  1  0.54285258  0.54507100  0.62825907  1
  Al  Al19  1  0.11701731  0.74619158  0.31478243  1
  Al  Al20  1  0.21275776  0.88060323  0.08114633  1
  Al  Al21  1  0.77343412  0.78517378  0.82617194  1
  Al  Al22  1  0.90162892  0.84821180  0.54487714  1
  Al  Al23  1  0.43989677  0.77061650  0.30176162  1
  Al  Al24  1  0.55646494  0.88936921  0.06935674  1
  Al  Al25  1  0.21435443  0.86536566  0.55590086  1
  Al  Al26  1  0.77933851  0.76043230  0.30115046  1
  Al  Al27  1  0.89201180  0.87410841  0.07273997  1
  Gd  Gd28  1  0.85922692  0.22023600  0.62058861  1
  Gd  Gd29  1  0.19087950  0.20761450  0.56500942  1
  Gd  Gd30  1  0.80794762  0.09033701  0.33595744  1
  Gd  Gd31  1  0.53918484  0.19453054  0.57233134  1
  Gd  Gd32  1  0.89143732  0.54354616  0.08575965  1
  Gd  Gd33  1  0.10855600  0.76604516  0.80052429  1
  Gd  Gd34  1  0.45169996  0.74768529  0.85669356  1
  Gd  Gd35  1  0.56894195  0.83278380  0.56313443  1
  N  N36  1  0.22939426  0.20598357  0.35130144  1
  N  N37  1  0.10335947  0.10446103  0.12792612  1
  N  N38  1  0.89259468  0.19606136  0.87170467  1
  N  N39  1  0.79150788  0.06159616  0.55227078  1
  N  N40  1  0.53890662  0.21209386  0.32810909  1
  N  N41  1  0.44194707  0.09832501  0.11814686  1
  N  N42  1  0.21884403  0.20433021  0.87875626  1
  N  N43  1  0.11016411  0.05252779  0.65421272  1
  N  N44  1  0.91783096  0.23285606  0.39699909  1
  N  N45  1  0.77260769  0.10309219  0.09073922  1
  N  N46  1  0.55828799  0.19408929  0.82808803  1
  N  N47  1  0.42523226  0.06736804  0.64469951  1
  N  N48  1  0.22247530  0.53241159  0.36626100  1
  N  N49  1  0.15039738  0.41072046  0.11988919  1
  N  N50  1  0.88606173  0.53504905  0.84463808  1
  N  N51  1  0.74887751  0.50243946  0.57070762  1
  N  N52  1  0.56345181  0.54280627  0.32285804  1
  N  N53  1  0.44454733  0.43434794  0.12854374  1
  N  N54  1  0.24296232  0.51479464  0.88452787  1
  N  N55  1  0.11217001  0.44929570  0.64204923  1
  N  N56  1  0.89434693  0.53990161  0.31326031  1
  N  N57  1  0.75701597  0.41927552  0.06079281  1
  N  N58  1  0.58352798  0.48693673  0.80509372  1
  N  N59  1  0.43338804  0.44719654  0.58530048  1
  N  N60  1  0.21872199  0.88060700  0.36410076  1
  N  N61  1  0.11360729  0.75783833  0.12848452  1
  N  N62  1  0.87397484  0.88206284  0.89500059  1
  N  N63  1  0.80679938  0.76545341  0.65102633  1
  N  N64  1  0.55321305  0.87317801  0.34768542  1
  N  N65  1  0.44509843  0.76642450  0.11451423  1
  N  N66  1  0.20255253  0.89476903  0.90741818  1
  N  N67  1  0.11244337  0.75389212  0.58527914  1
  N  N68  1  0.90592187  0.83169419  0.36579421  1
  N  N69  1  0.76301269  0.79837533  0.12612737  1
  N  N70  1  0.56714106  0.88681787  0.88858697  1
  N  N71  1  0.40759758  0.75594266  0.63973018  1
