# generated using pymatgen
data_Gd2Al7N9
_symmetry_space_group_name_H-M   'P 1'
_cell_length_a   9.83151059
_cell_length_b   9.97820533
_cell_length_c   10.58990226
_cell_angle_alpha   89.30308060
_cell_angle_beta   89.39835267
_cell_angle_gamma   59.76716689
_symmetry_Int_Tables_number   1
_chemical_formula_structural   Gd2Al7N9
_chemical_formula_sum   'Gd8 Al28 N36'
_cell_volume   897.49874311
_cell_formula_units_Z   4
loop_
 _symmetry_equiv_pos_site_id
 _symmetry_equiv_pos_as_xyz
  1  'x, y, z'
loop_
 _atom_site_type_symbol
 _atom_site_label
 _atom_site_symmetry_multiplicity
 _atom_site_fract_x
 _atom_site_fract_y
 _atom_site_fract_z
 _atom_site_occupancy
  Al  Al0  1  0.11190985  0.11003933  0.31031004  1
  Al  Al1  1  0.22905057  0.20526925  0.06375853  1
  Al  Al2  1  0.75927192  0.09944504  0.89561154  1
  Al  Al3  1  0.43913448  0.08975787  0.29968695  1
  Al  Al4  1  0.54766961  0.21543856  0.13384966  1
  Al  Al5  1  0.11560848  0.08619531  0.82986587  1
  Al  Al6  1  0.89345584  0.20259906  0.05964368  1
  Al  Al7  1  0.44208536  0.08950567  0.81907640  1
  Al  Al8  1  0.12212148  0.42367650  0.30019413  1
  Al  Al9  1  0.23893480  0.53194371  0.06606754  1
  Al  Al10  1  0.77458217  0.41804894  0.88179507  1
  Al  Al11  1  0.88852842  0.55256551  0.65432437  1
  Al  Al12  1  0.43972320  0.43581130  0.32361822  1
  Al  Al13  1  0.56270111  0.53311393  0.13980859  1
  Al  Al14  1  0.12799129  0.41883076  0.82319606  1
  Al  Al15  1  0.21778245  0.54374983  0.55003128  1
  Al  Al16  1  0.78443353  0.45385659  0.39231796  1
  Al  Al17  1  0.45076644  0.40659873  0.81616703  1
  Al  Al18  1  0.54327285  0.54536558  0.62898258  1
  Al  Al19  1  0.11720298  0.74612795  0.31504593  1
  Al  Al20  1  0.21273713  0.88055030  0.08115406  1
  Al  Al21  1  0.77348138  0.78522710  0.82620569  1
  Al  Al22  1  0.90156750  0.84827417  0.54488427  1
  Al  Al23  1  0.43982789  0.77060428  0.30188009  1
  Al  Al24  1  0.55656847  0.88929364  0.06924952  1
  Al  Al25  1  0.21423116  0.86551263  0.55590608  1
  Al  Al26  1  0.77940125  0.76040555  0.30112247  1
  Al  Al27  1  0.89213144  0.87403733  0.07267679  1
  Gd  Gd28  1  0.85899305  0.22018409  0.62087464  1
  Gd  Gd29  1  0.19071140  0.20760616  0.56511941  1
  Gd  Gd30  1  0.80812001  0.09032167  0.33584430  1
  Gd  Gd31  1  0.53857405  0.19449493  0.57088568  1
  Gd  Gd32  1  0.89168449  0.54352970  0.08567448  1
  Gd  Gd33  1  0.10862679  0.76594827  0.80053287  1
  Gd  Gd34  1  0.45168055  0.74777692  0.85664399  1
  Gd  Gd35  1  0.56901267  0.83290356  0.56308494  1
  N  N36  1  0.22947845  0.20595601  0.35140507  1
  N  N37  1  0.10343645  0.10443039  0.12798653  1
  N  N38  1  0.89264107  0.19609650  0.87181601  1
  N  N39  1  0.79116803  0.06176676  0.55212700  1
  N  N40  1  0.53888296  0.21214727  0.32807855  1
  N  N41  1  0.44197229  0.09824294  0.11812964  1
  N  N42  1  0.21886337  0.20430233  0.87876686  1
  N  N43  1  0.11006553  0.05255103  0.65430117  1
  N  N44  1  0.91788781  0.23280087  0.39705807  1
  N  N45  1  0.77269409  0.10304009  0.09078636  1
  N  N46  1  0.55822184  0.19435880  0.82823583  1
  N  N47  1  0.42538290  0.06746397  0.64464052  1
  N  N48  1  0.22353166  0.53190665  0.36711850  1
  N  N49  1  0.15067774  0.41070484  0.12009161  1
  N  N50  1  0.88615698  0.53509341  0.84477191  1
  N  N51  1  0.74884587  0.50239184  0.57057332  1
  N  N52  1  0.56311867  0.54260121  0.32308898  1
  N  N53  1  0.44435714  0.43445819  0.12963492  1
  N  N54  1  0.24330813  0.51464258  0.88425523  1
  N  N55  1  0.11186333  0.44921227  0.64205588  1
  N  N56  1  0.89443331  0.53986495  0.31330843  1
  N  N57  1  0.75724353  0.41919225  0.06105972  1
  N  N58  1  0.58395557  0.48754043  0.80555151  1
  N  N59  1  0.43161707  0.44661606  0.59445569  1
  N  N60  1  0.21868562  0.88066771  0.36411050  1
  N  N61  1  0.11379589  0.75761305  0.12864269  1
  N  N62  1  0.87402904  0.88210864  0.89503215  1
  N  N63  1  0.80682381  0.76543176  0.65105268  1
  N  N64  1  0.55323623  0.87315116  0.34765424  1
  N  N65  1  0.44522332  0.76631137  0.11458084  1
  N  N66  1  0.20244862  0.89476113  0.90750722  1
  N  N67  1  0.11241735  0.75395713  0.58511492  1
  N  N68  1  0.90604704  0.83157547  0.36580354  1
  N  N69  1  0.76306432  0.79835920  0.12615828  1
  N  N70  1  0.56718365  0.88684678  0.88860193  1
  N  N71  1  0.40760754  0.75612290  0.63936992  1
