# generated using pymatgen
data_Gd2Al7N9
_symmetry_space_group_name_H-M   'P 1'
_cell_length_a   9.84086502
_cell_length_b   9.86349261
_cell_length_c   10.48319348
_cell_angle_alpha   89.52522574
_cell_angle_beta   89.74086608
_cell_angle_gamma   59.96585987
_symmetry_Int_Tables_number   1
_chemical_formula_structural   Gd2Al7N9
_chemical_formula_sum   'Gd8 Al28 N36'
_cell_volume   880.89424382
_cell_formula_units_Z   4
loop_
 _symmetry_equiv_pos_site_id
 _symmetry_equiv_pos_as_xyz
  1  'x, y, z'
loop_
 _atom_site_type_symbol
 _atom_site_label
 _atom_site_symmetry_multiplicity
 _atom_site_fract_x
 _atom_site_fract_y
 _atom_site_fract_z
 _atom_site_occupancy
  Al  Al0  1  0.11244839  0.09909763  0.28829309  1
  Al  Al1  1  0.22385719  0.20581264  0.05146215  1
  Al  Al2  1  0.77541327  0.08867470  0.81707665  1
  Al  Al3  1  0.43771970  0.09762951  0.27918965  1
  Al  Al4  1  0.55093941  0.21127706  0.04100937  1
  Al  Al5  1  0.11430897  0.09345876  0.81543676  1
  Al  Al6  1  0.88604721  0.20685228  0.03957349  1
  Al  Al7  1  0.44513419  0.09637105  0.81899096  1
  Al  Al8  1  0.11766865  0.42344010  0.29657641  1
  Al  Al9  1  0.22900350  0.53295224  0.05654870  1
  Al  Al10  1  0.77284100  0.43486292  0.80434960  1
  Al  Al11  1  0.89222820  0.54776096  0.57129719  1
  Al  Al12  1  0.43789518  0.42752845  0.29534650  1
  Al  Al13  1  0.55512379  0.52724181  0.05811181  1
  Al  Al14  1  0.11561646  0.42662002  0.80645096  1
  Al  Al15  1  0.22029569  0.54714089  0.54401916  1
  Al  Al16  1  0.77883314  0.42607210  0.30465771  1
  Al  Al17  1  0.44416214  0.42741838  0.81097081  1
  Al  Al18  1  0.54317643  0.54947886  0.54620612  1
  Al  Al19  1  0.11151819  0.75305288  0.30515245  1
  Al  Al20  1  0.21700632  0.87496075  0.06368390  1
  Al  Al21  1  0.78110992  0.76558119  0.80565779  1
  Al  Al22  1  0.90052026  0.85857661  0.54675277  1
  Al  Al23  1  0.44330476  0.75858879  0.29063928  1
  Al  Al24  1  0.55704331  0.87985632  0.05785082  1
  Al  Al25  1  0.22193679  0.86584327  0.53286473  1
  Al  Al26  1  0.77909698  0.76030634  0.29494924  1
  Al  Al27  1  0.88770151  0.87567311  0.04852576  1
  Gd  Gd28  1  0.89051687  0.20666868  0.57639773  1
  Gd  Gd29  1  0.21669223  0.20466565  0.55132379  1
  Gd  Gd30  1  0.78017440  0.09556681  0.28861593  1
  Gd  Gd31  1  0.55038959  0.21420811  0.56561642  1
  Gd  Gd32  1  0.88570121  0.53975833  0.06134945  1
  Gd  Gd33  1  0.10995392  0.76135745  0.79106908  1
  Gd  Gd34  1  0.44503393  0.76177257  0.80749811  1
  Gd  Gd35  1  0.56980801  0.86249768  0.54071890  1
  N  N36  1  0.22575978  0.20029326  0.33398093  1
  N  N37  1  0.10441859  0.10078100  0.10534007  1
  N  N38  1  0.88838068  0.21170618  0.84956623  1
  N  N39  1  0.79515538  0.05614390  0.63051023  1
  N  N40  1  0.52786190  0.21341872  0.34780216  1
  N  N41  1  0.44296118  0.09919948  0.09576557  1
  N  N42  1  0.21841877  0.20866949  0.86391379  1
  N  N43  1  0.13408475  0.05140340  0.63564251  1
  N  N44  1  0.90878560  0.21531815  0.36180160  1
  N  N45  1  0.77633051  0.09807258  0.07456937  1
  N  N46  1  0.55282185  0.20981488  0.85516560  1
  N  N47  1  0.44352505  0.08631947  0.64091405  1
  N  N48  1  0.22494626  0.53261104  0.35831374  1
  N  N49  1  0.13774360  0.41452807  0.11623423  1
  N  N50  1  0.88992066  0.53901140  0.84658814  1
  N  N51  1  0.75149860  0.47236549  0.62089482  1
  N  N52  1  0.55397960  0.53319441  0.35844649  1
  N  N53  1  0.44364773  0.42528753  0.11201610  1
  N  N54  1  0.23486876  0.51467576  0.87573945  1
  N  N55  1  0.10766631  0.45248727  0.62150786  1
  N  N56  1  0.88876634  0.53950752  0.34962090  1
  N  N57  1  0.76427983  0.40680670  0.12205079  1
  N  N58  1  0.56958000  0.50997441  0.87724915  1
  N  N59  1  0.42372586  0.46548851  0.62748405  1
  N  N60  1  0.21888101  0.87605413  0.34432462  1
  N  N61  1  0.10845741  0.75867880  0.11466570  1
  N  N62  1  0.87239079  0.87722116  0.87184604  1
  N  N63  1  0.81014556  0.75179755  0.62548593  1
  N  N64  1  0.55100875  0.87457692  0.32559371  1
  N  N65  1  0.44762591  0.75512213  0.10419419  1
  N  N66  1  0.20625055  0.89461692  0.88768945  1
  N  N67  1  0.11519465  0.76069642  0.57282446  1
  N  N68  1  0.89512293  0.84832604  0.36511686  1
  N  N69  1  0.76780410  0.79194081  0.11759779  1
  N  N70  1  0.57168717  0.88203261  0.87326129  1
  N  N71  1  0.42720181  0.75724755  0.58854327  1
