# generated using pymatgen
data_Gd2Al7N9
_symmetry_space_group_name_H-M   'P 1'
_cell_length_a   9.80490008
_cell_length_b   9.92757304
_cell_length_c   10.64238893
_cell_angle_alpha   89.14028655
_cell_angle_beta   89.55886786
_cell_angle_gamma   59.84846616
_symmetry_Int_Tables_number   1
_chemical_formula_structural   Gd2Al7N9
_chemical_formula_sum   'Gd8 Al28 N36'
_cell_volume   895.65745846
_cell_formula_units_Z   4
loop_
 _symmetry_equiv_pos_site_id
 _symmetry_equiv_pos_as_xyz
  1  'x, y, z'
loop_
 _atom_site_type_symbol
 _atom_site_label
 _atom_site_symmetry_multiplicity
 _atom_site_fract_x
 _atom_site_fract_y
 _atom_site_fract_z
 _atom_site_occupancy
  Al  Al0  1  0.11579456  0.10686371  0.31234702  1
  Al  Al1  1  0.22903093  0.20397771  0.06246962  1
  Al  Al2  1  0.76423046  0.09802071  0.90011983  1
  Al  Al3  1  0.44281870  0.08886335  0.29149324  1
  Al  Al4  1  0.54650743  0.21459798  0.09733457  1
  Al  Al5  1  0.11440586  0.08700443  0.83077194  1
  Al  Al6  1  0.89849647  0.20056850  0.06019660  1
  Al  Al7  1  0.44405697  0.09547696  0.82405258  1
  Al  Al8  1  0.12688229  0.42024895  0.30289068  1
  Al  Al9  1  0.23790549  0.53362998  0.06173279  1
  Al  Al10  1  0.77548633  0.41929297  0.88363004  1
  Al  Al11  1  0.88453001  0.55208115  0.65404168  1
  Al  Al12  1  0.43946827  0.43252474  0.30140048  1
  Al  Al13  1  0.56632913  0.53381978  0.13545720  1
  Al  Al14  1  0.12479933  0.42122883  0.82228617  1
  Al  Al15  1  0.21553493  0.54400420  0.55628993  1
  Al  Al16  1  0.78571139  0.45025161  0.39225616  1
  Al  Al17  1  0.44680472  0.40896459  0.81157400  1
  Al  Al18  1  0.54317330  0.54508844  0.63580243  1
  Al  Al19  1  0.12063402  0.74431886  0.31890553  1
  Al  Al20  1  0.21507993  0.87875586  0.08258381  1
  Al  Al21  1  0.77504546  0.78268588  0.82585029  1
  Al  Al22  1  0.89560824  0.85292534  0.54397993  1
  Al  Al23  1  0.44410862  0.76717101  0.30243145  1
  Al  Al24  1  0.55919021  0.88574706  0.06693849  1
  Al  Al25  1  0.21452871  0.86477722  0.55500174  1
  Al  Al26  1  0.78148985  0.75858826  0.30175381  1
  Al  Al27  1  0.89637942  0.87095798  0.07306439  1
  Gd  Gd28  1  0.85413686  0.21659385  0.62043885  1
  Gd  Gd29  1  0.18713960  0.20709948  0.56815371  1
  Gd  Gd30  1  0.80474437  0.09194388  0.32820738  1
  Gd  Gd31  1  0.51654376  0.21169417  0.54047917  1
  Gd  Gd32  1  0.89704039  0.54158420  0.08708479  1
  Gd  Gd33  1  0.10744036  0.76897031  0.79873791  1
  Gd  Gd34  1  0.44939543  0.75131197  0.85558217  1
  Gd  Gd35  1  0.56523979  0.84375626  0.56511426  1
  N  N36  1  0.23609941  0.20164369  0.35570350  1
  N  N37  1  0.10689255  0.10301450  0.13028269  1
  N  N38  1  0.89292811  0.19695200  0.87198317  1
  N  N39  1  0.77037423  0.06888389  0.55041523  1
  N  N40  1  0.53877599  0.21275488  0.31800877  1
  N  N41  1  0.44176966  0.09422398  0.11378679  1
  N  N42  1  0.21656022  0.20589766  0.87859673  1
  N  N43  1  0.10804270  0.04947769  0.65642092  1
  N  N44  1  0.92105107  0.22756280  0.39890777  1
  N  N45  1  0.78101270  0.09847096  0.09097370  1
  N  N46  1  0.54837175  0.20468206  0.87506633  1
  N  N47  1  0.42788574  0.08076308  0.64872455  1
  N  N48  1  0.23321051  0.52595881  0.37258947  1
  N  N49  1  0.15627282  0.40787937  0.12356000  1
  N  N50  1  0.88545461  0.53659457  0.84517174  1
  N  N51  1  0.74764623  0.49683743  0.57065357  1
  N  N52  1  0.56522237  0.53757444  0.31908861  1
  N  N53  1  0.44567394  0.43612928  0.12035981  1
  N  N54  1  0.23663814  0.51924617  0.88309836  1
  N  N55  1  0.10688987  0.44925339  0.64145209  1
  N  N56  1  0.89813635  0.53649111  0.31488088  1
  N  N57  1  0.76289483  0.41706899  0.06227280  1
  N  N58  1  0.58333042  0.49168221  0.81115985  1
  N  N59  1  0.42277624  0.44446360  0.62827972  1
  N  N60  1  0.22280052  0.87769137  0.36490709  1
  N  N61  1  0.11689177  0.75473074  0.13171747  1
  N  N62  1  0.87535978  0.88034732  0.89529931  1
  N  N63  1  0.80550112  0.76499457  0.65075511  1
  N  N64  1  0.55637921  0.87186981  0.34841337  1
  N  N65  1  0.44815162  0.76535980  0.11434450  1
  N  N66  1  0.20058586  0.89567301  0.91014255  1
  N  N67  1  0.10869326  0.75652005  0.58323963  1
  N  N68  1  0.90751259  0.83196292  0.36605087  1
  N  N69  1  0.76516366  0.79681974  0.12689408  1
  N  N70  1  0.56867685  0.88682186  0.88694449  1
  N  N71  1  0.40860400  0.75720973  0.63741678  1
