# generated using pymatgen
data_Gd2Al7N9
_symmetry_space_group_name_H-M   'P 1'
_cell_length_a   9.78775510
_cell_length_b   9.89579976
_cell_length_c   10.71885538
_cell_angle_alpha   89.42462155
_cell_angle_beta   89.48579235
_cell_angle_gamma   59.88364147
_symmetry_Int_Tables_number   1
_chemical_formula_structural   Gd2Al7N9
_chemical_formula_sum   'Gd8 Al28 N36'
_cell_volume   897.99978686
_cell_formula_units_Z   4
loop_
 _symmetry_equiv_pos_site_id
 _symmetry_equiv_pos_as_xyz
  1  'x, y, z'
loop_
 _atom_site_type_symbol
 _atom_site_label
 _atom_site_symmetry_multiplicity
 _atom_site_fract_x
 _atom_site_fract_y
 _atom_site_fract_z
 _atom_site_occupancy
  Al  Al0  1  0.11127833  0.09876656  0.32422159  1
  Al  Al1  1  0.22373758  0.20497772  0.11132208  1
  Al  Al2  1  0.76515256  0.09539097  0.92374755  1
  Al  Al3  1  0.43826677  0.10178239  0.37885300  1
  Al  Al4  1  0.54308229  0.21542283  0.14828082  1
  Al  Al5  1  0.12517449  0.08689612  0.84826561  1
  Al  Al6  1  0.89593828  0.19982779  0.07915599  1
  Al  Al7  1  0.44473021  0.09288189  0.92077036  1
  Al  Al8  1  0.12146630  0.42831755  0.31199187  1
  Al  Al9  1  0.23020817  0.54118907  0.08296977  1
  Al  Al10  1  0.77675759  0.41379987  0.89853400  1
  Al  Al11  1  0.89073955  0.54809722  0.67203549  1
  Al  Al12  1  0.44681802  0.42820060  0.39448255  1
  Al  Al13  1  0.56415200  0.52411994  0.15782654  1
  Al  Al14  1  0.13226918  0.41516910  0.84071381  1
  Al  Al15  1  0.21567808  0.54398442  0.56759966  1
  Al  Al16  1  0.78739002  0.44698648  0.41176012  1
  Al  Al17  1  0.46016117  0.41137484  0.91370995  1
  Al  Al18  1  0.54301849  0.53751208  0.65013410  1
  Al  Al19  1  0.11785021  0.74797505  0.33473224  1
  Al  Al20  1  0.21556371  0.87663165  0.09649027  1
  Al  Al21  1  0.77059980  0.79209684  0.83068839  1
  Al  Al22  1  0.90147606  0.85235375  0.56389416  1
  Al  Al23  1  0.43830573  0.75792095  0.32648764  1
  Al  Al24  1  0.54863953  0.88637928  0.16177428  1
  Al  Al25  1  0.21892969  0.86514802  0.57793042  1
  Al  Al26  1  0.79049468  0.75196845  0.32368159  1
  Al  Al27  1  0.89112367  0.87448086  0.09455089  1
  Gd  Gd28  1  0.86054917  0.21593177  0.64592816  1
  Gd  Gd29  1  0.16510535  0.22458675  0.55636387  1
  Gd  Gd30  1  0.78876496  0.10028505  0.36489396  1
  Gd  Gd31  1  0.52935192  0.20019995  0.66034640  1
  Gd  Gd32  1  0.89160764  0.54821418  0.09309560  1
  Gd  Gd33  1  0.11007515  0.76749810  0.81984273  1
  Gd  Gd34  1  0.46361344  0.74809931  0.87635740  1
  Gd  Gd35  1  0.56470231  0.84259457  0.59059884  1
  N  N36  1  0.22338812  0.20560118  0.33683896  1
  N  N37  1  0.10209824  0.09608094  0.14683167  1
  N  N38  1  0.89765404  0.19018726  0.89081677  1
  N  N39  1  0.77153997  0.06886044  0.58129406  1
  N  N40  1  0.52680434  0.22466011  0.32499410  1
  N  N41  1  0.44761675  0.09043059  0.10085315  1
  N  N42  1  0.21585090  0.20864465  0.90513733  1
  N  N43  1  0.11949230  0.05651087  0.67228954  1
  N  N44  1  0.92461425  0.22346052  0.42032872  1
  N  N45  1  0.77639789  0.10038547  0.11252653  1
  N  N46  1  0.55377162  0.19999246  0.87916466  1
  N  N47  1  0.42031473  0.09597188  0.55183298  1
  N  N48  1  0.22011150  0.53386742  0.38536571  1
  N  N49  1  0.14778008  0.41857133  0.13808551  1
  N  N50  1  0.88182735  0.53583570  0.85862039  1
  N  N51  1  0.75224697  0.49344028  0.58885502  1
  N  N52  1  0.56569476  0.52928693  0.33763235  1
  N  N53  1  0.45398907  0.43083462  0.09382129  1
  N  N54  1  0.23405642  0.52192776  0.90289661  1
  N  N55  1  0.11810874  0.44340258  0.66113530  1
  N  N56  1  0.89649927  0.53421991  0.33311993  1
  N  N57  1  0.76111335  0.41820705  0.07748024  1
  N  N58  1  0.58304775  0.47848519  0.82335803  1
  N  N59  1  0.44452230  0.43917484  0.57255236  1
  N  N60  1  0.22217826  0.87455356  0.38691903  1
  N  N61  1  0.11394990  0.75808123  0.14899361  1
  N  N62  1  0.87242327  0.87739320  0.91695450  1
  N  N63  1  0.81583285  0.75823806  0.66051291  1
  N  N64  1  0.55466941  0.86861633  0.34893917  1
  N  N65  1  0.44446424  0.76156965  0.14014912  1
  N  N66  1  0.21222341  0.89162224  0.92489528  1
  N  N67  1  0.11363775  0.75547286  0.60620296  1
  N  N68  1  0.90540290  0.83770177  0.38660021  1
  N  N69  1  0.76495396  0.79662334  0.15037731  1
  N  N70  1  0.55411678  0.90581424  0.83419354  1
  N  N71  1  0.41155486  0.75034075  0.66027690  1
