# generated using pymatgen
data_Gd2Al7N9
_symmetry_space_group_name_H-M   'P 1'
_cell_length_a   9.80587613
_cell_length_b   9.92446306
_cell_length_c   10.64130867
_cell_angle_alpha   89.14205036
_cell_angle_beta   89.58529283
_cell_angle_gamma   59.85752787
_symmetry_Int_Tables_number   1
_chemical_formula_structural   Gd2Al7N9
_chemical_formula_sum   'Gd8 Al28 N36'
_cell_volume   895.45774564
_cell_formula_units_Z   4
loop_
 _symmetry_equiv_pos_site_id
 _symmetry_equiv_pos_as_xyz
  1  'x, y, z'
loop_
 _atom_site_type_symbol
 _atom_site_label
 _atom_site_symmetry_multiplicity
 _atom_site_fract_x
 _atom_site_fract_y
 _atom_site_fract_z
 _atom_site_occupancy
  Al  Al0  1  0.11582168  0.10666305  0.31247260  1
  Al  Al1  1  0.22869436  0.20394003  0.06276383  1
  Al  Al2  1  0.76560520  0.09750773  0.89985596  1
  Al  Al3  1  0.44322719  0.08958619  0.29113236  1
  Al  Al4  1  0.54544269  0.21514716  0.08959294  1
  Al  Al5  1  0.11453827  0.08697794  0.83063911  1
  Al  Al6  1  0.89865857  0.20048151  0.06026105  1
  Al  Al7  1  0.44382028  0.09568248  0.82510737  1
  Al  Al8  1  0.12697908  0.42013193  0.30307405  1
  Al  Al9  1  0.23745743  0.53402752  0.06195697  1
  Al  Al10  1  0.77557603  0.41932372  0.88357769  1
  Al  Al11  1  0.88438908  0.55204624  0.65378047  1
  Al  Al12  1  0.43973107  0.43145219  0.30077449  1
  Al  Al13  1  0.56630987  0.53355961  0.13531951  1
  Al  Al14  1  0.12444911  0.42141482  0.82230034  1
  Al  Al15  1  0.21560548  0.54383423  0.55631660  1
  Al  Al16  1  0.78549996  0.45024557  0.39205206  1
  Al  Al17  1  0.44647345  0.40932840  0.81245096  1
  Al  Al18  1  0.54320187  0.54490022  0.63604762  1
  Al  Al19  1  0.12063890  0.74441598  0.31907973  1
  Al  Al20  1  0.21512576  0.87869457  0.08261872  1
  Al  Al21  1  0.77509734  0.78238290  0.82575874  1
  Al  Al22  1  0.89558239  0.85306523  0.54390420  1
  Al  Al23  1  0.44432294  0.76700024  0.30244118  1
  Al  Al24  1  0.55916741  0.88558068  0.06719574  1
  Al  Al25  1  0.21478211  0.86456294  0.55483995  1
  Al  Al26  1  0.78145827  0.75866983  0.30185991  1
  Al  Al27  1  0.89639501  0.87092435  0.07303209  1
  Gd  Gd28  1  0.85493404  0.21645619  0.61956856  1
  Gd  Gd29  1  0.18795453  0.20685842  0.56834377  1
  Gd  Gd30  1  0.80345808  0.09253424  0.32737165  1
  Gd  Gd31  1  0.51667807  0.21197077  0.54058020  1
  Gd  Gd32  1  0.89697594  0.54152074  0.08735327  1
  Gd  Gd33  1  0.10748626  0.76895351  0.79852643  1
  Gd  Gd34  1  0.44934403  0.75144172  0.85563099  1
  Gd  Gd35  1  0.56504427  0.84430276  0.56522700  1
  N  N36  1  0.23624032  0.20140521  0.35572651  1
  N  N37  1  0.10694812  0.10292329  0.13031185  1
  N  N38  1  0.89309589  0.19700075  0.87163097  1
  N  N39  1  0.77034009  0.06887313  0.55118468  1
  N  N40  1  0.53849561  0.21281409  0.32021705  1
  N  N41  1  0.44166617  0.09436702  0.11345343  1
  N  N42  1  0.21638021  0.20606739  0.87877460  1
  N  N43  1  0.10861504  0.04927410  0.65627690  1
  N  N44  1  0.92081162  0.22743590  0.39855924  1
  N  N45  1  0.78128888  0.09831635  0.09050975  1
  N  N46  1  0.54761446  0.20558406  0.88009349  1
  N  N47  1  0.42841698  0.08123401  0.64982572  1
  N  N48  1  0.23338783  0.52591941  0.37254100  1
  N  N49  1  0.15614628  0.40791791  0.12365776  1
  N  N50  1  0.88533309  0.53668087  0.84511406  1
  N  N51  1  0.74741728  0.49678673  0.57059065  1
  N  N52  1  0.56525773  0.53728014  0.31880928  1
  N  N53  1  0.44569437  0.43572053  0.11978966  1
  N  N54  1  0.23626117  0.51940584  0.88325217  1
  N  N55  1  0.10667417  0.44928192  0.64143645  1
  N  N56  1  0.89817250  0.53647191  0.31501567  1
  N  N57  1  0.76295628  0.41691648  0.06219438  1
  N  N58  1  0.58322394  0.49165952  0.81151994  1
  N  N59  1  0.42258241  0.44427589  0.62928979  1
  N  N60  1  0.22307595  0.87747448  0.36488617  1
  N  N61  1  0.11684868  0.75474771  0.13174053  1
  N  N62  1  0.87543324  0.88015436  0.89502816  1
  N  N63  1  0.80545873  0.76494541  0.65060507  1
  N  N64  1  0.55643237  0.87198921  0.34835636  1
  N  N65  1  0.44817619  0.76526329  0.11425927  1
  N  N66  1  0.20055799  0.89567556  0.91012224  1
  N  N67  1  0.10877465  0.75642604  0.58308918  1
  N  N68  1  0.90736755  0.83233217  0.36598524  1
  N  N69  1  0.76522056  0.79678584  0.12689357  1
  N  N70  1  0.56884266  0.88681223  0.88708273  1
  N  N71  1  0.40880724  0.75709330  0.63738530  1
