# generated using pymatgen
data_Gd2Al7N9
_symmetry_space_group_name_H-M   'P 1'
_cell_length_a   9.90840265
_cell_length_b   9.92457095
_cell_length_c   10.51364031
_cell_angle_alpha   88.67875420
_cell_angle_beta   89.78510946
_cell_angle_gamma   59.95660980
_symmetry_Int_Tables_number   1
_chemical_formula_structural   Gd2Al7N9
_chemical_formula_sum   'Gd8 Al28 N36'
_cell_volume   894.69701489
_cell_formula_units_Z   4
loop_
 _symmetry_equiv_pos_site_id
 _symmetry_equiv_pos_as_xyz
  1  'x, y, z'
loop_
 _atom_site_type_symbol
 _atom_site_label
 _atom_site_symmetry_multiplicity
 _atom_site_fract_x
 _atom_site_fract_y
 _atom_site_fract_z
 _atom_site_occupancy
  Al  Al0  1  0.11032491  0.10050603  0.38772171  1
  Al  Al1  1  0.21996131  0.21327577  0.15658390  1
  Al  Al2  1  0.78179023  0.09479335  0.93826872  1
  Al  Al3  1  0.42753529  0.11587805  0.38072030  1
  Al  Al4  1  0.53969431  0.21789185  0.13031245  1
  Al  Al5  1  0.10500657  0.10938082  0.93146919  1
  Al  Al6  1  0.88575631  0.21777182  0.15998599  1
  Al  Al7  1  0.44342828  0.09132097  0.92722322  1
  Al  Al8  1  0.10060069  0.43509007  0.39785456  1
  Al  Al9  1  0.22716869  0.53852120  0.15874650  1
  Al  Al10  1  0.77583748  0.40881432  0.90407370  1
  Al  Al11  1  0.89949469  0.53454684  0.65676324  1
  Al  Al12  1  0.43492683  0.43084505  0.39397062  1
  Al  Al13  1  0.55236878  0.53052263  0.15271371  1
  Al  Al14  1  0.13362292  0.40930889  0.90162229  1
  Al  Al15  1  0.23072015  0.52657536  0.63668271  1
  Al  Al16  1  0.77356020  0.44636458  0.39899640  1
  Al  Al17  1  0.44934033  0.41731357  0.90894987  1
  Al  Al18  1  0.54817627  0.53042161  0.64640612  1
  Al  Al19  1  0.11641662  0.74486852  0.38807623  1
  Al  Al20  1  0.21679864  0.87886945  0.10404408  1
  Al  Al21  1  0.77046631  0.78992917  0.82574382  1
  Al  Al22  1  0.90966967  0.85727084  0.60884982  1
  Al  Al23  1  0.43569772  0.75592241  0.32350155  1
  Al  Al24  1  0.54348096  0.88885460  0.16019761  1
  Al  Al25  1  0.23125543  0.85211522  0.56515702  1
  Al  Al26  1  0.78092233  0.75631244  0.32520834  1
  Al  Al27  1  0.89454885  0.87866945  0.15886562  1
  Gd  Gd28  1  0.89196218  0.20770814  0.65382468  1
  Gd  Gd29  1  0.23439258  0.18963584  0.65153246  1
  Gd  Gd30  1  0.76108043  0.10614729  0.37805044  1
  Gd  Gd31  1  0.56372733  0.18881553  0.68293302  1
  Gd  Gd32  1  0.88496723  0.54835282  0.10760809  1
  Gd  Gd33  1  0.11213448  0.74813467  0.89300621  1
  Gd  Gd34  1  0.45702886  0.75531010  0.86822075  1
  Gd  Gd35  1  0.57242410  0.83937121  0.57935071  1
  N  N36  1  0.21167994  0.21624847  0.34054813  1
  N  N37  1  0.10322061  0.11036162  0.11635787  1
  N  N38  1  0.89633637  0.19527593  0.87383620  1
  N  N39  1  0.79279987  0.06877665  0.59159901  1
  N  N40  1  0.51165267  0.23461497  0.31327050  1
  N  N41  1  0.43265904  0.09470575  0.10767079  1
  N  N42  1  0.22587582  0.19679175  0.87112378  1
  N  N43  1  0.12322389  0.06820715  0.56912320  1
  N  N44  1  0.89455394  0.23310910  0.34323568  1
  N  N45  1  0.78330272  0.09910603  0.12471883  1
  N  N46  1  0.55916651  0.19915347  0.91368008  1
  N  N47  1  0.45722670  0.09609135  0.55557284  1
  N  N48  1  0.21972188  0.53477194  0.34093668  1
  N  N49  1  0.14584293  0.41947029  0.08423096  1
  N  N50  1  0.89528485  0.52465657  0.85617983  1
  N  N51  1  0.75701695  0.47318552  0.58235547  1
  N  N52  1  0.55560785  0.53192835  0.33656058  1
  N  N53  1  0.43121055  0.44959775  0.08893209  1
  N  N54  1  0.25304798  0.48868563  0.81870752  1
  N  N55  1  0.10052936  0.44198294  0.58097061  1
  N  N56  1  0.88753945  0.54084213  0.33828558  1
  N  N57  1  0.75325526  0.42005899  0.08445187  1
  N  N58  1  0.57935948  0.48233305  0.82607664  1
  N  N59  1  0.44345099  0.43178504  0.57462607  1
  N  N60  1  0.22508905  0.86356577  0.37336485  1
  N  N61  1  0.10921703  0.76011091  0.11806133  1
  N  N62  1  0.86546341  0.89922641  0.86893704  1
  N  N63  1  0.81613806  0.74652670  0.65119523  1
  N  N64  1  0.54893247  0.87141567  0.34955985  1
  N  N65  1  0.44359375  0.76399348  0.13642190  1
  N  N66  1  0.21360334  0.89658135  0.92122544  1
  N  N67  1  0.12156791  0.74284755  0.58230458  1
  N  N68  1  0.90335650  0.84784531  0.35004379  1
  N  N69  1  0.75651902  0.80161002  0.14339921  1
  N  N70  1  0.55419719  0.91036073  0.83093281  1
  N  N71  1  0.41956748  0.74719934  0.64821588  1
