# generated using pymatgen
data_Gd2Al7N9
_symmetry_space_group_name_H-M   'P 1'
_cell_length_a   9.83173787
_cell_length_b   9.97805004
_cell_length_c   10.58554284
_cell_angle_alpha   89.33040077
_cell_angle_beta   89.39734106
_cell_angle_gamma   59.78323105
_symmetry_Int_Tables_number   1
_chemical_formula_structural   Gd2Al7N9
_chemical_formula_sum   'Gd8 Al28 N36'
_cell_volume   897.28630669
_cell_formula_units_Z   4
loop_
 _symmetry_equiv_pos_site_id
 _symmetry_equiv_pos_as_xyz
  1  'x, y, z'
loop_
 _atom_site_type_symbol
 _atom_site_label
 _atom_site_symmetry_multiplicity
 _atom_site_fract_x
 _atom_site_fract_y
 _atom_site_fract_z
 _atom_site_occupancy
  Al  Al0  1  0.11185338  0.10995165  0.31024991  1
  Al  Al1  1  0.22906618  0.20520072  0.06401740  1
  Al  Al2  1  0.76002554  0.09879183  0.89596081  1
  Al  Al3  1  0.43925480  0.09001999  0.30007432  1
  Al  Al4  1  0.54664284  0.21709252  0.13595094  1
  Al  Al5  1  0.11567753  0.08613410  0.82962212  1
  Al  Al6  1  0.89321781  0.20282538  0.05972689  1
  Al  Al7  1  0.44131420  0.08891738  0.81917854  1
  Al  Al8  1  0.12198052  0.42375077  0.29966476  1
  Al  Al9  1  0.23786764  0.53276025  0.06792731  1
  Al  Al10  1  0.77443444  0.41781135  0.88121951  1
  Al  Al11  1  0.88872923  0.55258850  0.65395174  1
  Al  Al12  1  0.44203322  0.43619370  0.34045007  1
  Al  Al13  1  0.56194387  0.53209629  0.14036330  1
  Al  Al14  1  0.12783436  0.41862477  0.82296467  1
  Al  Al15  1  0.21711221  0.54444214  0.54773686  1
  Al  Al16  1  0.78438553  0.45407138  0.39220035  1
  Al  Al17  1  0.45385051  0.40447538  0.83607091  1
  Al  Al18  1  0.54211200  0.54434727  0.62702175  1
  Al  Al19  1  0.11678154  0.74623154  0.31429154  1
  Al  Al20  1  0.21282432  0.88066102  0.08113976  1
  Al  Al21  1  0.77336012  0.78505992  0.82611810  1
  Al  Al22  1  0.90172088  0.84807192  0.54483647  1
  Al  Al23  1  0.44004062  0.77060172  0.30146480  1
  Al  Al24  1  0.55627447  0.88950077  0.06954526  1
  Al  Al25  1  0.21455992  0.86511540  0.55583534  1
  Al  Al26  1  0.77925086  0.76047263  0.30117803  1
  Al  Al27  1  0.89180610  0.87425814  0.07284225  1
  Gd  Gd28  1  0.85968117  0.22024160  0.62015255  1
  Gd  Gd29  1  0.19116887  0.20757165  0.56475490  1
  Gd  Gd30  1  0.80753737  0.09041798  0.33602111  1
  Gd  Gd31  1  0.54020921  0.19482747  0.57535009  1
  Gd  Gd32  1  0.89106416  0.54356772  0.08588002  1
  Gd  Gd33  1  0.10838744  0.76623084  0.80059167  1
  Gd  Gd34  1  0.45177626  0.74738362  0.85685829  1
  Gd  Gd35  1  0.56887103  0.83246183  0.56316195  1
  N  N36  1  0.22926232  0.20600199  0.35115742  1
  N  N37  1  0.10324674  0.10449992  0.12782709  1
  N  N38  1  0.89253573  0.19597558  0.87148502  1
  N  N39  1  0.79178354  0.06135102  0.55251429  1
  N  N40  1  0.53878467  0.21241460  0.32805110  1
  N  N41  1  0.44192156  0.09846156  0.11817823  1
  N  N42  1  0.21883669  0.20435085  0.87868300  1
  N  N43  1  0.11036725  0.05245721  0.65407004  1
  N  N44  1  0.91775345  0.23288205  0.39694923  1
  N  N45  1  0.77252514  0.10313535  0.09069155  1
  N  N46  1  0.55822233  0.19399308  0.82757130  1
  N  N47  1  0.42520787  0.06724002  0.64464870  1
  N  N48  1  0.22074377  0.53318826  0.36480898  1
  N  N49  1  0.14995318  0.41071697  0.11957196  1
  N  N50  1  0.88587044  0.53496327  0.84434185  1
  N  N51  1  0.74886350  0.50245389  0.57086765  1
  N  N52  1  0.56399771  0.54304137  0.32224775  1
  N  N53  1  0.44540238  0.43387520  0.12346377  1
  N  N54  1  0.24188478  0.51527798  0.88465479  1
  N  N55  1  0.11272548  0.44935792  0.64196116  1
  N  N56  1  0.89425065  0.53994278  0.31319077  1
  N  N57  1  0.75676704  0.41941558  0.06033054  1
  N  N58  1  0.58267419  0.48568692  0.80410255  1
  N  N59  1  0.43635164  0.44844136  0.56837571  1
  N  N60  1  0.21880576  0.88048066  0.36411292  1
  N  N61  1  0.11328542  0.75822052  0.12823395  1
  N  N62  1  0.87381220  0.88203245  0.89494233  1
  N  N63  1  0.80676874  0.76545921  0.65095701  1
  N  N64  1  0.55319986  0.87322386  0.34776967  1
  N  N65  1  0.44488414  0.76665238  0.11440162  1
  N  N66  1  0.20277061  0.89475610  0.90727216  1
  N  N67  1  0.11256336  0.75370029  0.58558482  1
  N  N68  1  0.90574427  0.83189517  0.36580479  1
  N  N69  1  0.76291845  0.79842037  0.12608168  1
  N  N70  1  0.56704242  0.88677016  0.88851277  1
  N  N71  1  0.40756487  0.75539061  0.64022449  1
