# generated using pymatgen
data_Gd2Al7N9
_symmetry_space_group_name_H-M   'P 1'
_cell_length_a   9.78265306
_cell_length_b   9.87006672
_cell_length_c   10.77234652
_cell_angle_alpha   89.35123172
_cell_angle_beta   89.25722208
_cell_angle_gamma   59.97868170
_symmetry_Int_Tables_number   1
_chemical_formula_structural   Gd2Al7N9
_chemical_formula_sum   'Gd8 Al28 N36'
_cell_volume   900.49453042
_cell_formula_units_Z   4
loop_
 _symmetry_equiv_pos_site_id
 _symmetry_equiv_pos_as_xyz
  1  'x, y, z'
loop_
 _atom_site_type_symbol
 _atom_site_label
 _atom_site_symmetry_multiplicity
 _atom_site_fract_x
 _atom_site_fract_y
 _atom_site_fract_z
 _atom_site_occupancy
  Al  Al0  1  0.11132827  0.10242876  0.30630009  1
  Al  Al1  1  0.22141115  0.20676153  0.08402890  1
  Al  Al2  1  0.76661137  0.09438914  0.90376843  1
  Al  Al3  1  0.44176098  0.09559585  0.35849460  1
  Al  Al4  1  0.54185798  0.21622967  0.13427531  1
  Al  Al5  1  0.12123780  0.08662085  0.82907235  1
  Al  Al6  1  0.89414400  0.20090336  0.05996969  1
  Al  Al7  1  0.44453097  0.09864383  0.90692557  1
  Al  Al8  1  0.12170615  0.42696333  0.29452145  1
  Al  Al9  1  0.22984447  0.54041679  0.06429151  1
  Al  Al10  1  0.77542480  0.41514729  0.87990979  1
  Al  Al11  1  0.88826126  0.55360569  0.65607646  1
  Al  Al12  1  0.44656398  0.43145279  0.37397603  1
  Al  Al13  1  0.56130242  0.52565753  0.13640075  1
  Al  Al14  1  0.13025173  0.41630707  0.82186902  1
  Al  Al15  1  0.21488810  0.54609489  0.54654822  1
  Al  Al16  1  0.78568061  0.45012562  0.39008332  1
  Al  Al17  1  0.46066001  0.40774994  0.89349974  1
  Al  Al18  1  0.54328641  0.53944920  0.62905947  1
  Al  Al19  1  0.11554690  0.74896859  0.31670791  1
  Al  Al20  1  0.21395462  0.87757215  0.07726223  1
  Al  Al21  1  0.77265780  0.78364512  0.82748226  1
  Al  Al22  1  0.89794030  0.85411592  0.54757675  1
  Al  Al23  1  0.44007321  0.76561595  0.29788944  1
  Al  Al24  1  0.55672069  0.87988749  0.08247569  1
  Al  Al25  1  0.21873669  0.86649011  0.55649297  1
  Al  Al26  1  0.78144818  0.75810853  0.29929366  1
  Al  Al27  1  0.89311914  0.87403795  0.07511243  1
  Gd  Gd28  1  0.86397404  0.21929285  0.62215240  1
  Gd  Gd29  1  0.17471908  0.22152631  0.54292519  1
  Gd  Gd30  1  0.79106848  0.09880860  0.34512783  1
  Gd  Gd31  1  0.53487756  0.20246164  0.63523443  1
  Gd  Gd32  1  0.89154927  0.54439303  0.08148316  1
  Gd  Gd33  1  0.10742453  0.76558070  0.79890659  1
  Gd  Gd34  1  0.45365047  0.74650592  0.85089808  1
  Gd  Gd35  1  0.57504568  0.82856393  0.55110192  1
  N  N36  1  0.22339880  0.20711902  0.32862622  1
  N  N37  1  0.10110936  0.09984319  0.12793944  1
  N  N38  1  0.89645340  0.19185751  0.87171291  1
  N  N39  1  0.77648091  0.07097087  0.56033142  1
  N  N40  1  0.52837936  0.22454032  0.30981456  1
  N  N41  1  0.44261113  0.10022584  0.08511298  1
  N  N42  1  0.21746180  0.20619248  0.88449508  1
  N  N43  1  0.12007110  0.05584441  0.65393320  1
  N  N44  1  0.92201298  0.22689426  0.40057781  1
  N  N45  1  0.77503099  0.10093118  0.09283441  1
  N  N46  1  0.55656241  0.19541533  0.85225383  1
  N  N47  1  0.42971636  0.08756891  0.53748050  1
  N  N48  1  0.21963507  0.53432583  0.36598204  1
  N  N49  1  0.14799421  0.41694772  0.12042444  1
  N  N50  1  0.88503988  0.53377076  0.84121593  1
  N  N51  1  0.75060147  0.50069032  0.56796980  1
  N  N52  1  0.56399510  0.53297417  0.31507463  1
  N  N53  1  0.45396560  0.42859651  0.07308420  1
  N  N54  1  0.23464897  0.52007365  0.88469767  1
  N  N55  1  0.11499506  0.44925607  0.64285281  1
  N  N56  1  0.89440124  0.53684500  0.31008291  1
  N  N57  1  0.75803979  0.41862897  0.05675037  1
  N  N58  1  0.58255842  0.47758875  0.80235665  1
  N  N59  1  0.44301501  0.44415226  0.55125602  1
  N  N60  1  0.22161171  0.87687073  0.36562105  1
  N  N61  1  0.11352395  0.75813224  0.13161644  1
  N  N62  1  0.87650427  0.87686093  0.89901259  1
  N  N63  1  0.80309355  0.77005484  0.65390285  1
  N  N64  1  0.55700210  0.86559890  0.33687795  1
  N  N65  1  0.44314856  0.76199702  0.11526868  1
  N  N66  1  0.20531548  0.89202197  0.90605521  1
  N  N67  1  0.11162181  0.75732275  0.58581756  1
  N  N68  1  0.90183436  0.83558851  0.37043833  1
  N  N69  1  0.76554838  0.79677824  0.12842972  1
  N  N70  1  0.57028922  0.88050757  0.89422196  1
  N  N71  1  0.41319510  0.75482426  0.63848047  1
