# generated using pymatgen
data_Gd2Al7N9
_symmetry_space_group_name_H-M   'P 1'
_cell_length_a   9.88583514
_cell_length_b   9.95329649
_cell_length_c   10.41498545
_cell_angle_alpha   89.25315847
_cell_angle_beta   89.79206553
_cell_angle_gamma   59.93836195
_symmetry_Int_Tables_number   1
_chemical_formula_structural   Gd2Al7N9
_chemical_formula_sum   'Gd8 Al28 N36'
_cell_volume   886.87046366
_cell_formula_units_Z   4
loop_
 _symmetry_equiv_pos_site_id
 _symmetry_equiv_pos_as_xyz
  1  'x, y, z'
loop_
 _atom_site_type_symbol
 _atom_site_label
 _atom_site_symmetry_multiplicity
 _atom_site_fract_x
 _atom_site_fract_y
 _atom_site_fract_z
 _atom_site_occupancy
  Al  Al0  1  0.11149711  0.09928691  0.38684141  1
  Al  Al1  1  0.22273502  0.21029458  0.15548510  1
  Al  Al2  1  0.78637536  0.08946760  0.92933642  1
  Al  Al3  1  0.43019472  0.11635137  0.37906213  1
  Al  Al4  1  0.54470928  0.21341074  0.12860699  1
  Al  Al5  1  0.10852128  0.10627951  0.93048092  1
  Al  Al6  1  0.88653877  0.21309524  0.15793379  1
  Al  Al7  1  0.44533592  0.08807903  0.92610666  1
  Al  Al8  1  0.10371388  0.43362912  0.39755126  1
  Al  Al9  1  0.22650534  0.53891985  0.15757015  1
  Al  Al10  1  0.77779747  0.40717876  0.90389348  1
  Al  Al11  1  0.89205949  0.54385083  0.65191559  1
  Al  Al12  1  0.43496365  0.43316261  0.39150026  1
  Al  Al13  1  0.55364652  0.52893920  0.15288629  1
  Al  Al14  1  0.13312567  0.41010352  0.90259007  1
  Al  Al15  1  0.22508672  0.53401755  0.63456011  1
  Al  Al16  1  0.77127209  0.44471155  0.39954994  1
  Al  Al17  1  0.45234191  0.41317765  0.91003604  1
  Al  Al18  1  0.54535209  0.53447949  0.64575358  1
  Al  Al19  1  0.11003726  0.74726684  0.39320256  1
  Al  Al20  1  0.21681065  0.87744941  0.10567564  1
  Al  Al21  1  0.76960238  0.78226125  0.86520614  1
  Al  Al22  1  0.89817233  0.87146039  0.64929889  1
  Al  Al23  1  0.43843395  0.75701845  0.32416186  1
  Al  Al24  1  0.55744763  0.88155276  0.15609095  1
  Al  Al25  1  0.22689252  0.85431854  0.56980731  1
  Al  Al26  1  0.78834149  0.74931505  0.38067615  1
  Al  Al27  1  0.89204129  0.86976617  0.15252801  1
  Gd  Gd28  1  0.89038833  0.21325070  0.65116434  1
  Gd  Gd29  1  0.22719902  0.20023536  0.65050525  1
  Gd  Gd30  1  0.76599617  0.09782003  0.37933238  1
  Gd  Gd31  1  0.55415565  0.20670460  0.67929868  1
  Gd  Gd32  1  0.88627451  0.54485127  0.12121315  1
  Gd  Gd33  1  0.11998226  0.74395688  0.88858164  1
  Gd  Gd34  1  0.46180244  0.74803870  0.87724602  1
  Gd  Gd35  1  0.55586632  0.85633974  0.59886855  1
  N  N36  1  0.21290855  0.21573660  0.34044168  1
  N  N37  1  0.10518784  0.10763094  0.11709864  1
  N  N38  1  0.89989326  0.19354762  0.87227297  1
  N  N39  1  0.78745237  0.07705749  0.59361894  1
  N  N40  1  0.51646662  0.23403747  0.31331337  1
  N  N41  1  0.43699013  0.09038328  0.10900209  1
  N  N42  1  0.22676839  0.19684115  0.87202313  1
  N  N43  1  0.12474863  0.06964553  0.56928995  1
  N  N44  1  0.89373614  0.23119650  0.34324242  1
  N  N45  1  0.78772392  0.09139986  0.11794211  1
  N  N46  1  0.56234209  0.19441998  0.91127586  1
  N  N47  1  0.45103709  0.10716431  0.55572450  1
  N  N48  1  0.21819383  0.53709807  0.34106729  1
  N  N49  1  0.14613167  0.41717915  0.08542003  1
  N  N50  1  0.89238089  0.53253540  0.85247574  1
  N  N51  1  0.75392377  0.47443707  0.58209575  1
  N  N52  1  0.55547516  0.53377564  0.33637156  1
  N  N53  1  0.43312536  0.44657221  0.08981279  1
  N  N54  1  0.25632136  0.48493609  0.81808751  1
  N  N55  1  0.09731646  0.44764477  0.58018708  1
  N  N56  1  0.88679204  0.54079956  0.34291645  1
  N  N57  1  0.75573111  0.41667311  0.08467294  1
  N  N58  1  0.58195594  0.47661960  0.82515488  1
  N  N59  1  0.43650543  0.44210819  0.57164488  1
  N  N60  1  0.22484961  0.86218450  0.37379119  1
  N  N61  1  0.10985030  0.75702516  0.11090381  1
  N  N62  1  0.87196313  0.89602759  0.83762262  1
  N  N63  1  0.80831080  0.75158151  0.61895205  1
  N  N64  1  0.55983090  0.86861172  0.34850160  1
  N  N65  1  0.44679555  0.76216399  0.13581524  1
  N  N66  1  0.21639195  0.89460921  0.92100964  1
  N  N67  1  0.10927803  0.75317739  0.58905595  1
  N  N68  1  0.90205486  0.84220519  0.33471284  1
  N  N69  1  0.75866674  0.79979472  0.08430727  1
  N  N70  1  0.55554329  0.90421001  0.83094974  1
  N  N71  1  0.41324051  0.74736799  0.65594486  1
