# generated using pymatgen
data_Gd2Al7N9
_symmetry_space_group_name_H-M   'P 1'
_cell_length_a   9.83143321
_cell_length_b   9.91041260
_cell_length_c   10.63425903
_cell_angle_alpha   89.13309740
_cell_angle_beta   89.59278688
_cell_angle_gamma   60.00032915
_symmetry_Int_Tables_number   1
_chemical_formula_structural   Gd2Al7N9
_chemical_formula_sum   'Gd8 Al28 N36'
_cell_volume   897.21825744
_cell_formula_units_Z   4
loop_
 _symmetry_equiv_pos_site_id
 _symmetry_equiv_pos_as_xyz
  1  'x, y, z'
loop_
 _atom_site_type_symbol
 _atom_site_label
 _atom_site_symmetry_multiplicity
 _atom_site_fract_x
 _atom_site_fract_y
 _atom_site_fract_z
 _atom_site_occupancy
  Al  Al0  1  0.11313009  0.10661219  0.29854881  1
  Al  Al1  1  0.22753867  0.20420296  0.05202766  1
  Al  Al2  1  0.77028782  0.09633458  0.88203668  1
  Al  Al3  1  0.44177541  0.09427397  0.28070014  1
  Al  Al4  1  0.54285680  0.21667666  0.05724707  1
  Al  Al5  1  0.11584141  0.08737039  0.81675031  1
  Al  Al6  1  0.89782812  0.20066137  0.04690134  1
  Al  Al7  1  0.44435212  0.09453179  0.81497046  1
  Al  Al8  1  0.12355602  0.42113483  0.29068762  1
  Al  Al9  1  0.23508680  0.53427616  0.05150354  1
  Al  Al10  1  0.77458978  0.42026275  0.87025955  1
  Al  Al11  1  0.88542826  0.55082132  0.64019569  1
  Al  Al12  1  0.43824768  0.42793917  0.29039832  1
  Al  Al13  1  0.56412658  0.53171259  0.12209265  1
  Al  Al14  1  0.12385629  0.42088193  0.81040969  1
  Al  Al15  1  0.21616779  0.54290568  0.54268637  1
  Al  Al16  1  0.78178583  0.45182723  0.37717617  1
  Al  Al17  1  0.44361380  0.41380628  0.80166111  1
  Al  Al18  1  0.54339201  0.54504480  0.62427948  1
  Al  Al19  1  0.11862574  0.74611267  0.30624697  1
  Al  Al20  1  0.21410828  0.87858885  0.06861552  1
  Al  Al21  1  0.77544163  0.78172156  0.81258588  1
  Al  Al22  1  0.89866834  0.85185526  0.53169697  1
  Al  Al23  1  0.44268016  0.76726105  0.28853388  1
  Al  Al24  1  0.55840803  0.88652240  0.05708374  1
  Al  Al25  1  0.21723567  0.86347919  0.54076407  1
  Al  Al26  1  0.78016151  0.76024889  0.28891337  1
  Al  Al27  1  0.89516752  0.87184919  0.05882303  1
  Gd  Gd28  1  0.86538844  0.21645892  0.60100019  1
  Gd  Gd29  1  0.19940395  0.20371089  0.55510974  1
  Gd  Gd30  1  0.79633227  0.09521185  0.31299629  1
  Gd  Gd31  1  0.52892879  0.20879657  0.54169556  1
  Gd  Gd32  1  0.89408743  0.54221351  0.07532283  1
  Gd  Gd33  1  0.10873556  0.76641322  0.78520489  1
  Gd  Gd34  1  0.44819157  0.75528078  0.84137401  1
  Gd  Gd35  1  0.56859473  0.84136855  0.54999133  1
  N  N36  1  0.23233443  0.20184033  0.34036692  1
  N  N37  1  0.10597105  0.10239425  0.11596683  1
  N  N38  1  0.89439465  0.19800107  0.85630815  1
  N  N39  1  0.78083220  0.06596910  0.54447772  1
  N  N40  1  0.53433736  0.21387797  0.32652024  1
  N  N41  1  0.44184569  0.09773226  0.10124594  1
  N  N42  1  0.21821745  0.20520193  0.86700923  1
  N  N43  1  0.11586549  0.04980593  0.64113921  1
  N  N44  1  0.91610088  0.22881330  0.38024874  1
  N  N45  1  0.77909834  0.09942990  0.07494167  1
  N  N46  1  0.54880126  0.20702575  0.86814004  1
  N  N47  1  0.43535764  0.07630676  0.64011396  1
  N  N48  1  0.23007054  0.52765936  0.35866889  1
  N  N49  1  0.15196103  0.40925575  0.11105622  1
  N  N50  1  0.88547123  0.53622670  0.83218987  1
  N  N51  1  0.74584460  0.49820595  0.55696231  1
  N  N52  1  0.56273920  0.53711645  0.30525508  1
  N  N53  1  0.44497336  0.43098838  0.10795476  1
  N  N54  1  0.23562037  0.51852521  0.87264880  1
  N  N55  1  0.10706898  0.44810010  0.62910115  1
  N  N56  1  0.89530725  0.53835433  0.30249571  1
  N  N57  1  0.76091296  0.41660355  0.04896092  1
  N  N58  1  0.58087868  0.49507445  0.80108797  1
  N  N59  1  0.41896299  0.44837245  0.62001258  1
  N  N60  1  0.22241379  0.87736102  0.35114291  1
  N  N61  1  0.11518911  0.75544142  0.11838313  1
  N  N62  1  0.87648309  0.87963452  0.88039019  1
  N  N63  1  0.80711637  0.76361139  0.63728865  1
  N  N64  1  0.55474426  0.87315910  0.33342473  1
  N  N65  1  0.44654444  0.76510962  0.10055399  1
  N  N66  1  0.19982042  0.89567053  0.89570225  1
  N  N67  1  0.11092919  0.75545307  0.56981544  1
  N  N68  1  0.90540202  0.83461450  0.35349744  1
  N  N69  1  0.76477911  0.79773722  0.11406622  1
  N  N70  1  0.57073802  0.88711818  0.87690954  1
  N  N71  1  0.41086062  0.75720305  0.62267491  1
