# generated using pymatgen
data_Gd2Al7N9
_symmetry_space_group_name_H-M   'P 1'
_cell_length_a   9.85824070
_cell_length_b   9.86547803
_cell_length_c   10.42498063
_cell_angle_alpha   89.60197916
_cell_angle_beta   89.76539263
_cell_angle_gamma   60.01336897
_symmetry_Int_Tables_number   1
_chemical_formula_structural   Gd2Al7N9
_chemical_formula_sum   'Gd8 Al28 N36'
_cell_volume   878.15532299
_cell_formula_units_Z   4
loop_
 _symmetry_equiv_pos_site_id
 _symmetry_equiv_pos_as_xyz
  1  'x, y, z'
loop_
 _atom_site_type_symbol
 _atom_site_label
 _atom_site_symmetry_multiplicity
 _atom_site_fract_x
 _atom_site_fract_y
 _atom_site_fract_z
 _atom_site_occupancy
  Al  Al0  1  0.11305826  0.09528617  0.39900256  1
  Al  Al1  1  0.22592119  0.20385427  0.16496316  1
  Al  Al2  1  0.78054698  0.08958053  0.93965599  1
  Al  Al3  1  0.43363593  0.10741642  0.39447573  1
  Al  Al4  1  0.54453400  0.21334011  0.14752491  1
  Al  Al5  1  0.11343904  0.09326334  0.92961054  1
  Al  Al6  1  0.88933779  0.20827882  0.16032497  1
  Al  Al7  1  0.44519632  0.08952071  0.94079409  1
  Al  Al8  1  0.10780177  0.43264115  0.41093181  1
  Al  Al9  1  0.22741132  0.54001600  0.17016209  1
  Al  Al10  1  0.77540343  0.41520602  0.91520373  1
  Al  Al11  1  0.89159066  0.54605621  0.65964593  1
  Al  Al12  1  0.43524969  0.43315185  0.40421608  1
  Al  Al13  1  0.55104617  0.53745138  0.17153655  1
  Al  Al14  1  0.12942852  0.41232486  0.91696669  1
  Al  Al15  1  0.22466336  0.53616794  0.64923680  1
  Al  Al16  1  0.77678916  0.43894968  0.41212996  1
  Al  Al17  1  0.45024161  0.41734322  0.92404644  1
  Al  Al18  1  0.54881662  0.53740276  0.64749957  1
  Al  Al19  1  0.11278941  0.75414806  0.41355474  1
  Al  Al20  1  0.22113730  0.87080461  0.17429830  1
  Al  Al21  1  0.76863178  0.77903152  0.91415292  1
  Al  Al22  1  0.89269327  0.86807313  0.66106376  1
  Al  Al23  1  0.43895870  0.75513893  0.40597280  1
  Al  Al24  1  0.55489414  0.87543510  0.17711971  1
  Al  Al25  1  0.21830217  0.86730692  0.64750966  1
  Al  Al26  1  0.79210898  0.74971419  0.41435801  1
  Al  Al27  1  0.89466406  0.86719074  0.16691205  1
  Gd  Gd28  1  0.89139430  0.20619294  0.66790608  1
  Gd  Gd29  1  0.21983443  0.20327854  0.66355470  1
  Gd  Gd30  1  0.77020182  0.09696722  0.39071383  1
  Gd  Gd31  1  0.54894422  0.21587445  0.68900084  1
  Gd  Gd32  1  0.88922008  0.53929710  0.14962900  1
  Gd  Gd33  1  0.11405665  0.74939436  0.89945825  1
  Gd  Gd34  1  0.45228245  0.75012039  0.91332677  1
  Gd  Gd35  1  0.55922851  0.86701117  0.64008155  1
  N  N36  1  0.21495208  0.21222181  0.35070073  1
  N  N37  1  0.11453027  0.09053279  0.11485994  1
  N  N38  1  0.89467547  0.19558727  0.88819182  1
  N  N39  1  0.78324144  0.07482091  0.60560610  1
  N  N40  1  0.51833612  0.23052859  0.33102553  1
  N  N41  1  0.44176259  0.08721999  0.12255963  1
  N  N42  1  0.22825901  0.19572773  0.88511677  1
  N  N43  1  0.12165891  0.06799954  0.57677065  1
  N  N44  1  0.89891973  0.22869395  0.34522969  1
  N  N45  1  0.78488285  0.08918340  0.12757169  1
  N  N46  1  0.55945477  0.19754534  0.91707276  1
  N  N47  1  0.44480310  0.10954825  0.57318445  1
  N  N48  1  0.21883659  0.54123037  0.35423685  1
  N  N49  1  0.14568533  0.41584927  0.09937653  1
  N  N50  1  0.89076309  0.53774996  0.86231716  1
  N  N51  1  0.76299737  0.46185834  0.59587926  1
  N  N52  1  0.55719492  0.53516723  0.35362021  1
  N  N53  1  0.43629827  0.44495140  0.10533360  1
  N  N54  1  0.25290321  0.49014862  0.83366192  1
  N  N55  1  0.09999588  0.44922462  0.59380758  1
  N  N56  1  0.88963758  0.53972796  0.36359716  1
  N  N57  1  0.75427396  0.41934391  0.09613252  1
  N  N58  1  0.57227982  0.49427971  0.83334730  1
  N  N59  1  0.43366232  0.44526847  0.58427682  1
  N  N60  1  0.21766616  0.86978903  0.35541845  1
  N  N61  1  0.11419053  0.76055714  0.11718930  1
  N  N62  1  0.86365014  0.89045822  0.84894561  1
  N  N63  1  0.81018884  0.74917116  0.59657982  1
  N  N64  1  0.56060394  0.86859825  0.36548322  1
  N  N65  1  0.44539918  0.76241964  0.13193393  1
  N  N66  1  0.21063862  0.90131919  0.83367640  1
  N  N67  1  0.11006908  0.75714847  0.60991608  1
  N  N68  1  0.90627113  0.83938215  0.34675570  1
  N  N69  1  0.76133763  0.79441680  0.09779719  1
  N  N70  1  0.55902570  0.89180329  0.85967459  1
  N  N71  1  0.42606054  0.74574056  0.59215782  1
