# generated using pymatgen
data_Gd2Al7N9
_symmetry_space_group_name_H-M   'P 1'
_cell_length_a   9.85810982
_cell_length_b   9.86572331
_cell_length_c   10.42475259
_cell_angle_alpha   89.60959369
_cell_angle_beta   89.76784873
_cell_angle_gamma   60.01573626
_symmetry_Int_Tables_number   1
_chemical_formula_structural   Gd2Al7N9
_chemical_formula_sum   'Gd8 Al28 N36'
_cell_volume   878.16800897
_cell_formula_units_Z   4
loop_
 _symmetry_equiv_pos_site_id
 _symmetry_equiv_pos_as_xyz
  1  'x, y, z'
loop_
 _atom_site_type_symbol
 _atom_site_label
 _atom_site_symmetry_multiplicity
 _atom_site_fract_x
 _atom_site_fract_y
 _atom_site_fract_z
 _atom_site_occupancy
  Al  Al0  1  0.11309064  0.09533829  0.39675929  1
  Al  Al1  1  0.22593944  0.20384888  0.16269466  1
  Al  Al2  1  0.78056571  0.08951183  0.93736636  1
  Al  Al3  1  0.43362256  0.10753776  0.39222602  1
  Al  Al4  1  0.54456282  0.21331961  0.14526085  1
  Al  Al5  1  0.11345134  0.09321489  0.92734326  1
  Al  Al6  1  0.88934232  0.20825170  0.15806280  1
  Al  Al7  1  0.44522694  0.08945880  0.93850232  1
  Al  Al8  1  0.10775958  0.43273579  0.40864126  1
  Al  Al9  1  0.22739765  0.54002348  0.16788729  1
  Al  Al10  1  0.77538240  0.41513535  0.91293695  1
  Al  Al11  1  0.89151672  0.54614864  0.65737173  1
  Al  Al12  1  0.43523912  0.43323945  0.40191785  1
  Al  Al13  1  0.55103235  0.53746556  0.16926745  1
  Al  Al14  1  0.12943190  0.41227704  0.91470747  1
  Al  Al15  1  0.22462069  0.53626537  0.64691857  1
  Al  Al16  1  0.77677704  0.43899670  0.40986627  1
  Al  Al17  1  0.45022641  0.41729633  0.92179486  1
  Al  Al18  1  0.54880859  0.53749790  0.64520787  1
  Al  Al19  1  0.11278484  0.75420400  0.41127777  1
  Al  Al20  1  0.22114015  0.87081232  0.17202878  1
  Al  Al21  1  0.76866042  0.77893357  0.91189489  1
  Al  Al22  1  0.89267279  0.86812799  0.65882099  1
  Al  Al23  1  0.43896279  0.75521971  0.40372331  1
  Al  Al24  1  0.55489522  0.87544202  0.17485246  1
  Al  Al25  1  0.21831417  0.86737270  0.64527018  1
  Al  Al26  1  0.79207108  0.74978158  0.41209730  1
  Al  Al27  1  0.89466725  0.86716694  0.16463847  1
  Gd  Gd28  1  0.89144702  0.20624397  0.66563494  1
  Gd  Gd29  1  0.21980169  0.20349208  0.66128362  1
  Gd  Gd30  1  0.77022104  0.09698948  0.38847255  1
  Gd  Gd31  1  0.54893304  0.21611721  0.68672243  1
  Gd  Gd32  1  0.88920982  0.53925354  0.14735765  1
  Gd  Gd33  1  0.11407370  0.74932735  0.89718045  1
  Gd  Gd34  1  0.45229137  0.75005052  0.91103950  1
  Gd  Gd35  1  0.55914645  0.86723844  0.63783030  1
  N  N36  1  0.21494893  0.21229736  0.34843574  1
  N  N37  1  0.11453214  0.09053028  0.11259806  1
  N  N38  1  0.89468560  0.19552902  0.88591535  1
  N  N39  1  0.78326787  0.07487726  0.60338425  1
  N  N40  1  0.51837158  0.23058951  0.32875859  1
  N  N41  1  0.44178056  0.08721327  0.12027884  1
  N  N42  1  0.22827185  0.19567566  0.88284998  1
  N  N43  1  0.12174855  0.06806129  0.57454438  1
  N  N44  1  0.89893593  0.22872121  0.34298308  1
  N  N45  1  0.78489350  0.08914813  0.12529488  1
  N  N46  1  0.55946447  0.19750223  0.91478371  1
  N  N47  1  0.44476929  0.10978202  0.57095362  1
  N  N48  1  0.21882212  0.54128918  0.35195090  1
  N  N49  1  0.14568342  0.41583330  0.09710577  1
  N  N50  1  0.89076379  0.53768824  0.86004383  1
  N  N51  1  0.76298854  0.46188982  0.59360874  1
  N  N52  1  0.55718885  0.53524809  0.35134713  1
  N  N53  1  0.43629150  0.44493570  0.10306694  1
  N  N54  1  0.25291992  0.49006056  0.83134646  1
  N  N55  1  0.09989842  0.44939024  0.59150005  1
  N  N56  1  0.88959138  0.53979867  0.36132111  1
  N  N57  1  0.75425409  0.41929420  0.09386088  1
  N  N58  1  0.57227835  0.49418594  0.83104719  1
  N  N59  1  0.43359383  0.44544856  0.58196301  1
  N  N60  1  0.21766772  0.86984424  0.35315982  1
  N  N61  1  0.11419869  0.76054518  0.11491338  1
  N  N62  1  0.86367054  0.89037549  0.84670180  1
  N  N63  1  0.81011063  0.74926754  0.59433186  1
  N  N64  1  0.56056781  0.86870796  0.36323292  1
  N  N65  1  0.44540086  0.76241624  0.12965615  1
  N  N66  1  0.21064033  0.90126276  0.83144530  1
  N  N67  1  0.11004714  0.75723915  0.60764787  1
  N  N68  1  0.90626657  0.83941684  0.34449376  1
  N  N69  1  0.76136105  0.79434972  0.09554515  1
  N  N70  1  0.55905191  0.89170585  0.85744797  1
  N  N71  1  0.42608866  0.74584095  0.58992775  1
