# generated using pymatgen
data_Gd2Al7N9
_symmetry_space_group_name_H-M   'P 1'
_cell_length_a   9.85256765
_cell_length_b   9.88611486
_cell_length_c   10.59124767
_cell_angle_alpha   89.05297866
_cell_angle_beta   89.55558682
_cell_angle_gamma   60.01408356
_symmetry_Int_Tables_number   1
_chemical_formula_structural   Gd2Al7N9
_chemical_formula_sum   'Gd8 Al28 N36'
_cell_volume   893.41872062
_cell_formula_units_Z   4
loop_
 _symmetry_equiv_pos_site_id
 _symmetry_equiv_pos_as_xyz
  1  'x, y, z'
loop_
 _atom_site_type_symbol
 _atom_site_label
 _atom_site_symmetry_multiplicity
 _atom_site_fract_x
 _atom_site_fract_y
 _atom_site_fract_z
 _atom_site_occupancy
  Al  Al0  1  0.11407969  0.10287198  0.29572147  1
  Al  Al1  1  0.22821903  0.20210142  0.05237611  1
  Al  Al2  1  0.76723909  0.09942314  0.88129030  1
  Al  Al3  1  0.44182944  0.09368375  0.28012691  1
  Al  Al4  1  0.54167413  0.21680481  0.05714078  1
  Al  Al5  1  0.11311489  0.08942409  0.81865772  1
  Al  Al6  1  0.89773582  0.20013806  0.04933958  1
  Al  Al7  1  0.44569381  0.09528893  0.81765795  1
  Al  Al8  1  0.12598377  0.41893895  0.29204455  1
  Al  Al9  1  0.23336194  0.53312385  0.05265128  1
  Al  Al10  1  0.77048737  0.42639490  0.87414682  1
  Al  Al11  1  0.88958391  0.54795112  0.64194254  1
  Al  Al12  1  0.44159282  0.42974404  0.29263423  1
  Al  Al13  1  0.54736544  0.53721348  0.05323703  1
  Al  Al14  1  0.12554875  0.41897547  0.81159480  1
  Al  Al15  1  0.21897094  0.54254146  0.54467525  1
  Al  Al16  1  0.79054656  0.44536157  0.37815085  1
  Al  Al17  1  0.44233619  0.42741272  0.80515121  1
  Al  Al18  1  0.53443771  0.55390180  0.54087571  1
  Al  Al19  1  0.11728316  0.74556192  0.30326428  1
  Al  Al20  1  0.21909509  0.87336168  0.06708063  1
  Al  Al21  1  0.77407643  0.78076463  0.81432114  1
  Al  Al22  1  0.90269953  0.84972182  0.53245263  1
  Al  Al23  1  0.44446987  0.75850049  0.29168895  1
  Al  Al24  1  0.55611527  0.88053469  0.05743502  1
  Al  Al25  1  0.21492012  0.86545377  0.53275527  1
  Al  Al26  1  0.78068947  0.75928339  0.28660544  1
  Al  Al27  1  0.89275352  0.87222010  0.05835216  1
  Gd  Gd28  1  0.87042923  0.21298314  0.60066437  1
  Gd  Gd29  1  0.20462911  0.19935460  0.55542869  1
  Gd  Gd30  1  0.79334390  0.09539849  0.31351451  1
  Gd  Gd31  1  0.53098113  0.21170202  0.54857552  1
  Gd  Gd32  1  0.89577767  0.53946096  0.07694742  1
  Gd  Gd33  1  0.10328533  0.76733344  0.78838946  1
  Gd  Gd34  1  0.43700222  0.77315631  0.80267795  1
  Gd  Gd35  1  0.58051033  0.84622910  0.54099008  1
  N  N36  1  0.23256198  0.19838955  0.33972071  1
  N  N37  1  0.10759944  0.09951868  0.11268109  1
  N  N38  1  0.88815965  0.20348909  0.85254099  1
  N  N39  1  0.78156785  0.06430386  0.54612986  1
  N  N40  1  0.53200235  0.21388672  0.33168556  1
  N  N41  1  0.44278337  0.09573359  0.09958182  1
  N  N42  1  0.21864713  0.20392229  0.86699283  1
  N  N43  1  0.12137847  0.04491536  0.64266922  1
  N  N44  1  0.91854620  0.22428135  0.37854622  1
  N  N45  1  0.77751176  0.09996469  0.07498955  1
  N  N46  1  0.54694855  0.21276733  0.86530863  1
  N  N47  1  0.43954747  0.07277176  0.64181825  1
  N  N48  1  0.23060919  0.52713430  0.35970546  1
  N  N49  1  0.15349177  0.40648629  0.11231227  1
  N  N50  1  0.88600333  0.53524800  0.83329099  1
  N  N51  1  0.75500756  0.49053726  0.56136631  1
  N  N52  1  0.55207243  0.53678959  0.35464892  1
  N  N53  1  0.44424227  0.43158629  0.11164322  1
  N  N54  1  0.23320232  0.51847629  0.87314316  1
  N  N55  1  0.11228269  0.44470665  0.62972263  1
  N  N56  1  0.89726933  0.53748213  0.30424896  1
  N  N57  1  0.76693152  0.41279878  0.05761812  1
  N  N58  1  0.55209975  0.52319808  0.86746247  1
  N  N59  1  0.42888869  0.45660666  0.62259324  1
  N  N60  1  0.21715205  0.87688191  0.34562374  1
  N  N61  1  0.11327634  0.75422884  0.11556155  1
  N  N62  1  0.87186005  0.88314675  0.88008811  1
  N  N63  1  0.81423915  0.76008406  0.63937333  1
  N  N64  1  0.55573621  0.87123391  0.32795452  1
  N  N65  1  0.44696315  0.75795864  0.10649042  1
  N  N66  1  0.20328608  0.89359331  0.89326090  1
  N  N67  1  0.11361204  0.75495916  0.57208039  1
  N  N68  1  0.90496751  0.83376218  0.35351217  1
  N  N69  1  0.76411006  0.79605331  0.11194875  1
  N  N70  1  0.56869159  0.88473258  0.87711442  1
  N  N71  1  0.42030022  0.75849177  0.58812057  1
