# generated using pymatgen
data_Gd2Al7N9
_symmetry_space_group_name_H-M   'P 1'
_cell_length_a   9.88860483
_cell_length_b   9.95600388
_cell_length_c   10.43214837
_cell_angle_alpha   89.20298750
_cell_angle_beta   89.75206924
_cell_angle_gamma   59.93192047
_symmetry_Int_Tables_number   1
_chemical_formula_structural   Gd2Al7N9
_chemical_formula_sum   'Gd8 Al28 N36'
_cell_volume   888.75504839
_cell_formula_units_Z   4
loop_
 _symmetry_equiv_pos_site_id
 _symmetry_equiv_pos_as_xyz
  1  'x, y, z'
loop_
 _atom_site_type_symbol
 _atom_site_label
 _atom_site_symmetry_multiplicity
 _atom_site_fract_x
 _atom_site_fract_y
 _atom_site_fract_z
 _atom_site_occupancy
  Al  Al0  1  0.11130515  0.09947073  0.38703169  1
  Al  Al1  1  0.22247076  0.21068307  0.15549522  1
  Al  Al2  1  0.78635113  0.08960849  0.92993268  1
  Al  Al3  1  0.42955308  0.11699829  0.37944029  1
  Al  Al4  1  0.54468084  0.21339266  0.12876047  1
  Al  Al5  1  0.10846364  0.10633902  0.93043677  1
  Al  Al6  1  0.88633565  0.21335145  0.15798001  1
  Al  Al7  1  0.44561081  0.08795602  0.92627913  1
  Al  Al8  1  0.10330239  0.43408060  0.39732307  1
  Al  Al9  1  0.22654456  0.53890066  0.15774152  1
  Al  Al10  1  0.77790705  0.40677333  0.90398101  1
  Al  Al11  1  0.89342970  0.54152084  0.65212046  1
  Al  Al12  1  0.43481897  0.43318059  0.39160326  1
  Al  Al13  1  0.55349918  0.52891905  0.15289744  1
  Al  Al14  1  0.13354025  0.40943621  0.90262094  1
  Al  Al15  1  0.22502790  0.53394991  0.63491730  1
  Al  Al16  1  0.77129215  0.44482964  0.39929269  1
  Al  Al17  1  0.45231175  0.41326598  0.91009939  1
  Al  Al18  1  0.54525979  0.53463287  0.64583773  1
  Al  Al19  1  0.11040038  0.74710391  0.39393711  1
  Al  Al20  1  0.21672392  0.87761844  0.10537433  1
  Al  Al21  1  0.77239337  0.77907048  0.84119027  1
  Al  Al22  1  0.90001875  0.87224651  0.65013278  1
  Al  Al23  1  0.43752481  0.75681785  0.32413997  1
  Al  Al24  1  0.55447325  0.88295670  0.15630857  1
  Al  Al25  1  0.22710095  0.85453430  0.56975410  1
  Al  Al26  1  0.78463967  0.75145661  0.35849023  1
  Al  Al27  1  0.89289685  0.87101064  0.15374335  1
  Gd  Gd28  1  0.89007845  0.21342754  0.65155083  1
  Gd  Gd29  1  0.22752454  0.19970156  0.65066348  1
  Gd  Gd30  1  0.76567874  0.09861097  0.37979412  1
  Gd  Gd31  1  0.55404405  0.20631505  0.67968665  1
  Gd  Gd32  1  0.88636959  0.54426223  0.11735674  1
  Gd  Gd33  1  0.11963881  0.74383173  0.88979760  1
  Gd  Gd34  1  0.46198101  0.74858836  0.87696241  1
  Gd  Gd35  1  0.55891938  0.85374775  0.59559320  1
  N  N36  1  0.21269476  0.21591136  0.34045764  1
  N  N37  1  0.10507188  0.10784449  0.11698302  1
  N  N38  1  0.89992329  0.19346200  0.87219051  1
  N  N39  1  0.78741314  0.07687497  0.59383641  1
  N  N40  1  0.51623459  0.23405251  0.31345086  1
  N  N41  1  0.43632236  0.09111768  0.10884017  1
  N  N42  1  0.22709241  0.19647665  0.87181669  1
  N  N43  1  0.12430718  0.06995764  0.56939497  1
  N  N44  1  0.89373404  0.23133730  0.34325258  1
  N  N45  1  0.78758233  0.09200470  0.11823659  1
  N  N46  1  0.56226691  0.19468522  0.91131215  1
  N  N47  1  0.45152548  0.10601952  0.55592851  1
  N  N48  1  0.21812863  0.53722651  0.34115437  1
  N  N49  1  0.14692807  0.41712009  0.08531327  1
  N  N50  1  0.89368054  0.52905630  0.85376815  1
  N  N51  1  0.75397029  0.47499846  0.58169931  1
  N  N52  1  0.55539205  0.53376718  0.33635280  1
  N  N53  1  0.43300733  0.44673006  0.08979253  1
  N  N54  1  0.25622915  0.48488305  0.81792793  1
  N  N55  1  0.09706069  0.44791129  0.57970222  1
  N  N56  1  0.88694068  0.54025369  0.34226196  1
  N  N57  1  0.75494137  0.41643719  0.08460318  1
  N  N58  1  0.58194259  0.47676411  0.82487495  1
  N  N59  1  0.43655808  0.44206677  0.57169496  1
  N  N60  1  0.22467616  0.86229632  0.37434689  1
  N  N61  1  0.10999331  0.75727980  0.11155721  1
  N  N62  1  0.87244092  0.89748652  0.83986335  1
  N  N63  1  0.80840617  0.75132282  0.64077165  1
  N  N64  1  0.55714986  0.86961454  0.34933029  1
  N  N65  1  0.44604861  0.76245381  0.13614985  1
  N  N66  1  0.21640950  0.89451052  0.92104487  1
  N  N67  1  0.10955245  0.75296631  0.58908297  1
  N  N68  1  0.90298582  0.84360701  0.33698901  1
  N  N69  1  0.75900619  0.79874681  0.10169151  1
  N  N70  1  0.55529626  0.90450372  0.83215343  1
  N  N71  1  0.41407585  0.74810283  0.65514355  1
