# generated using pymatgen
data_Gd2Al7N9
_symmetry_space_group_name_H-M   'P 1'
_cell_length_a   9.84986542
_cell_length_b   9.89498514
_cell_length_c   10.63259451
_cell_angle_alpha   88.98975484
_cell_angle_beta   89.60080463
_cell_angle_gamma   60.00687833
_symmetry_Int_Tables_number   1
_chemical_formula_structural   Gd2Al7N9
_chemical_formula_sum   'Gd8 Al28 N36'
_cell_volume   897.38110994
_cell_formula_units_Z   4
loop_
 _symmetry_equiv_pos_site_id
 _symmetry_equiv_pos_as_xyz
  1  'x, y, z'
loop_
 _atom_site_type_symbol
 _atom_site_label
 _atom_site_symmetry_multiplicity
 _atom_site_fract_x
 _atom_site_fract_y
 _atom_site_fract_z
 _atom_site_occupancy
  Al  Al0  1  0.11225509  0.10580982  0.29649926  1
  Al  Al1  1  0.22768229  0.20359890  0.05180794  1
  Al  Al2  1  0.76896362  0.09834467  0.88103403  1
  Al  Al3  1  0.44116618  0.09454981  0.28009288  1
  Al  Al4  1  0.54198202  0.21756354  0.05580975  1
  Al  Al5  1  0.11258183  0.08990387  0.81748457  1
  Al  Al6  1  0.89585048  0.20236714  0.04631368  1
  Al  Al7  1  0.44580481  0.09546463  0.81600453  1
  Al  Al8  1  0.12359806  0.42006318  0.29031837  1
  Al  Al9  1  0.23438955  0.53418929  0.05123920  1
  Al  Al10  1  0.76953977  0.42541795  0.86939056  1
  Al  Al11  1  0.88848759  0.54830199  0.64042437  1
  Al  Al12  1  0.43804740  0.42731568  0.29100274  1
  Al  Al13  1  0.56143255  0.53386674  0.12065531  1
  Al  Al14  1  0.12480268  0.41993572  0.81039273  1
  Al  Al15  1  0.21765175  0.54172592  0.54220729  1
  Al  Al16  1  0.78233803  0.45030995  0.37580509  1
  Al  Al17  1  0.44187221  0.41937905  0.80151079  1
  Al  Al18  1  0.54578106  0.54461264  0.61993393  1
  Al  Al19  1  0.11767031  0.74565095  0.30390917  1
  Al  Al20  1  0.21506519  0.87720854  0.06724163  1
  Al  Al21  1  0.77514428  0.78114953  0.81270474  1
  Al  Al22  1  0.90147684  0.84979307  0.53112706  1
  Al  Al23  1  0.44158947  0.76661742  0.28893835  1
  Al  Al24  1  0.55707561  0.88466214  0.05731734  1
  Al  Al25  1  0.21787279  0.86222579  0.53640928  1
  Al  Al26  1  0.78089637  0.75894809  0.28670869  1
  Al  Al27  1  0.89379129  0.87231260  0.05788816  1
  Gd  Gd28  1  0.87020005  0.21344989  0.59845058  1
  Gd  Gd29  1  0.20448793  0.19968324  0.55526849  1
  Gd  Gd30  1  0.79427387  0.09504098  0.31247606  1
  Gd  Gd31  1  0.53206348  0.20742256  0.54532207  1
  Gd  Gd32  1  0.89428343  0.54079956  0.07430740  1
  Gd  Gd33  1  0.10461593  0.76770423  0.78548902  1
  Gd  Gd34  1  0.43953589  0.77023283  0.82423697  1
  Gd  Gd35  1  0.57623650  0.84024391  0.54402612  1
  N  N36  1  0.23191019  0.20004703  0.33958511  1
  N  N37  1  0.10482675  0.10301937  0.11376252  1
  N  N38  1  0.89091257  0.20172819  0.85424640  1
  N  N39  1  0.78332939  0.06393264  0.54465261  1
  N  N40  1  0.53284176  0.21340850  0.33013251  1
  N  N41  1  0.44212262  0.09778607  0.10041652  1
  N  N42  1  0.21923015  0.20407170  0.86658711  1
  N  N43  1  0.11979399  0.04637060  0.64167461  1
  N  N44  1  0.91571601  0.22711698  0.37786846  1
  N  N45  1  0.77780501  0.10029593  0.07436168  1
  N  N46  1  0.54809055  0.21068100  0.86669557  1
  N  N47  1  0.43980483  0.07132721  0.64126675  1
  N  N48  1  0.22954283  0.52734582  0.35810116  1
  N  N49  1  0.15179650  0.40865696  0.11065335  1
  N  N50  1  0.88671064  0.53548292  0.83208135  1
  N  N51  1  0.75006218  0.49455589  0.55674773  1
  N  N52  1  0.56291225  0.53592003  0.30525602  1
  N  N53  1  0.44393883  0.43088388  0.10836282  1
  N  N54  1  0.23461965  0.51913221  0.87222733  1
  N  N55  1  0.10992127  0.44496495  0.62876285  1
  N  N56  1  0.89569990  0.53712390  0.30176733  1
  N  N57  1  0.75817702  0.41809986  0.04802292  1
  N  N58  1  0.57407076  0.50724519  0.80087021  1
  N  N59  1  0.42041399  0.44900379  0.61957263  1
  N  N60  1  0.21986887  0.87723578  0.34824085  1
  N  N61  1  0.11386874  0.75525420  0.11676887  1
  N  N62  1  0.87384631  0.88178459  0.87978661  1
  N  N63  1  0.81145906  0.76108488  0.63780169  1
  N  N64  1  0.55527311  0.87255992  0.32990547  1
  N  N65  1  0.44433844  0.76611375  0.10167222  1
  N  N66  1  0.19737417  0.89632803  0.89460939  1
  N  N67  1  0.11276210  0.75418632  0.56997475  1
  N  N68  1  0.90517685  0.83354960  0.35290178  1
  N  N69  1  0.76477246  0.79644505  0.11239713  1
  N  N70  1  0.57124958  0.88743529  0.87791164  1
  N  N71  1  0.41666669  0.75639324  0.60671381  1
