# generated using pymatgen
data_Gd2Al7N9
_symmetry_space_group_name_H-M   'P 1'
_cell_length_a   9.81802932
_cell_length_b   9.93510480
_cell_length_c   10.63440805
_cell_angle_alpha   89.49789670
_cell_angle_beta   89.42173070
_cell_angle_gamma   59.86772595
_symmetry_Int_Tables_number   1
_chemical_formula_structural   Gd2Al7N9
_chemical_formula_sum   'Gd8 Al28 N36'
_cell_volume   897.08632166
_cell_formula_units_Z   4
loop_
 _symmetry_equiv_pos_site_id
 _symmetry_equiv_pos_as_xyz
  1  'x, y, z'
loop_
 _atom_site_type_symbol
 _atom_site_label
 _atom_site_symmetry_multiplicity
 _atom_site_fract_x
 _atom_site_fract_y
 _atom_site_fract_z
 _atom_site_occupancy
  Al  Al0  1  0.11186558  0.10865729  0.30965738  1
  Al  Al1  1  0.22906913  0.20455792  0.06452419  1
  Al  Al2  1  0.76231376  0.09652933  0.89780684  1
  Al  Al3  1  0.43952466  0.09378619  0.29928535  1
  Al  Al4  1  0.54573037  0.21918521  0.13258610  1
  Al  Al5  1  0.11607475  0.08554662  0.82885462  1
  Al  Al6  1  0.89456285  0.20199255  0.05936852  1
  Al  Al7  1  0.43948648  0.08769859  0.82480752  1
  Al  Al8  1  0.12279527  0.42353985  0.29902871  1
  Al  Al9  1  0.23057326  0.53716615  0.06530252  1
  Al  Al10  1  0.77425800  0.41659169  0.87944406  1
  Al  Al11  1  0.88808115  0.55198475  0.65249704  1
  Al  Al12  1  0.44618491  0.43626274  0.37131277  1
  Al  Al13  1  0.56071089  0.52863890  0.13532498  1
  Al  Al14  1  0.12751895  0.41906546  0.82101464  1
  Al  Al15  1  0.21368446  0.54583152  0.54475715  1
  Al  Al16  1  0.78397433  0.45320193  0.39001067  1
  Al  Al17  1  0.45920381  0.40472510  0.88758986  1
  Al  Al18  1  0.54083404  0.54208604  0.62934191  1
  Al  Al19  1  0.11634639  0.74748377  0.31373802  1
  Al  Al20  1  0.21315924  0.88061688  0.07982178  1
  Al  Al21  1  0.77370238  0.78286491  0.82565839  1
  Al  Al22  1  0.90045707  0.84921984  0.54420262  1
  Al  Al23  1  0.44023377  0.76964258  0.29884829  1
  Al  Al24  1  0.55623922  0.88839979  0.06954139  1
  Al  Al25  1  0.21615259  0.86375479  0.55525325  1
  Al  Al26  1  0.77867796  0.76065014  0.30057314  1
  Al  Al27  1  0.89163860  0.87422784  0.07297207  1
  Gd  Gd28  1  0.86472691  0.21972945  0.61682829  1
  Gd  Gd29  1  0.19713879  0.20567787  0.56250710  1
  Gd  Gd30  1  0.79887143  0.09437521  0.33820338  1
  Gd  Gd31  1  0.54551568  0.20479381  0.61506570  1
  Gd  Gd32  1  0.89197897  0.54299399  0.08512681  1
  Gd  Gd33  1  0.10797605  0.76530081  0.79948006  1
  Gd  Gd34  1  0.45211725  0.74490648  0.85616990  1
  Gd  Gd35  1  0.56900757  0.83390701  0.56214402  1
  N  N36  1  0.22892505  0.20580356  0.35011231  1
  N  N37  1  0.10386104  0.10403919  0.12765158  1
  N  N38  1  0.89363038  0.19420924  0.87069176  1
  N  N39  1  0.78753140  0.06360461  0.55416589  1
  N  N40  1  0.53287524  0.22415943  0.31619058  1
  N  N41  1  0.44179276  0.09779498  0.11705066  1
  N  N42  1  0.21789229  0.20448738  0.87923312  1
  N  N43  1  0.11373850  0.05243867  0.65295385  1
  N  N44  1  0.91722030  0.23166510  0.39586486  1
  N  N45  1  0.77450453  0.10201808  0.09064190  1
  N  N46  1  0.55549607  0.19612646  0.83765988  1
  N  N47  1  0.42920517  0.06955191  0.64669311  1
  N  N48  1  0.22065040  0.53426530  0.36167020  1
  N  N49  1  0.15106343  0.41031416  0.12077527  1
  N  N50  1  0.88496001  0.53410307  0.84181509  1
  N  N51  1  0.74675166  0.50263497  0.56894368  1
  N  N52  1  0.56182659  0.53906892  0.31505008  1
  N  N53  1  0.45482723  0.42821726  0.07250804  1
  N  N54  1  0.23363759  0.51906869  0.88379565  1
  N  N55  1  0.11298426  0.44861035  0.63993601  1
  N  N56  1  0.89385740  0.53947966  0.31201925  1
  N  N57  1  0.75849550  0.41894478  0.05849994  1
  N  N58  1  0.58052026  0.47986872  0.80388787  1
  N  N59  1  0.43776393  0.45239936  0.54922580  1
  N  N60  1  0.22006661  0.87928385  0.36406126  1
  N  N61  1  0.11358890  0.75807952  0.12842680  1
  N  N62  1  0.87405907  0.87988321  0.89545976  1
  N  N63  1  0.80662106  0.76545957  0.65061859  1
  N  N64  1  0.55277458  0.87374514  0.34713197  1
  N  N65  1  0.44449821  0.76550534  0.11320499  1
  N  N66  1  0.20323816  0.89391527  0.90667104  1
  N  N67  1  0.11171649  0.75423037  0.58487613  1
  N  N68  1  0.90453052  0.83330518  0.36576464  1
  N  N69  1  0.76272013  0.79811854  0.12624771  1
  N  N70  1  0.56749796  0.88446812  0.88890859  1
  N  N71  1  0.40823308  0.75443673  0.64096001  1
