# generated using pymatgen
data_Gd2Al7N9
_symmetry_space_group_name_H-M   'P 1'
_cell_length_a   9.88008261
_cell_length_b   9.89818843
_cell_length_c   10.57170907
_cell_angle_alpha   89.56481853
_cell_angle_beta   90.19299676
_cell_angle_gamma   60.18430763
_symmetry_Int_Tables_number   1
_chemical_formula_structural   Gd2Al7N9
_chemical_formula_sum   'Gd8 Al28 N36'
_cell_volume   896.95045663
_cell_formula_units_Z   4
loop_
 _symmetry_equiv_pos_site_id
 _symmetry_equiv_pos_as_xyz
  1  'x, y, z'
loop_
 _atom_site_type_symbol
 _atom_site_label
 _atom_site_symmetry_multiplicity
 _atom_site_fract_x
 _atom_site_fract_y
 _atom_site_fract_z
 _atom_site_occupancy
  Al  Al0  1  0.11116697  0.10025594  0.33936923  1
  Al  Al1  1  0.22495613  0.21327134  0.15437937  1
  Al  Al2  1  0.77197208  0.10417041  0.93601193  1
  Al  Al3  1  0.42942470  0.11222405  0.38580593  1
  Al  Al4  1  0.53928214  0.21898936  0.14036654  1
  Al  Al5  1  0.10912496  0.09966254  0.90157213  1
  Al  Al6  1  0.87937571  0.21989006  0.15866777  1
  Al  Al7  1  0.44716880  0.08985075  0.92521805  1
  Al  Al8  1  0.10086529  0.43936600  0.39699373  1
  Al  Al9  1  0.22899288  0.53580643  0.15485209  1
  Al  Al10  1  0.77775640  0.40742724  0.90316782  1
  Al  Al11  1  0.90092849  0.53908929  0.66017687  1
  Al  Al12  1  0.43498040  0.43336085  0.39384093  1
  Al  Al13  1  0.55096940  0.53242086  0.15371927  1
  Al  Al14  1  0.13224545  0.41158373  0.90362343  1
  Al  Al15  1  0.23121440  0.52896312  0.63421325  1
  Al  Al16  1  0.77223665  0.44934537  0.39954238  1
  Al  Al17  1  0.44796891  0.41728577  0.90733048  1
  Al  Al18  1  0.54930914  0.53295631  0.64592448  1
  Al  Al19  1  0.11236686  0.75507485  0.33574713  1
  Al  Al20  1  0.21252625  0.87922985  0.10125993  1
  Al  Al21  1  0.77318908  0.78918925  0.83644621  1
  Al  Al22  1  0.91535203  0.84282687  0.57069792  1
  Al  Al23  1  0.43347153  0.76017971  0.32672622  1
  Al  Al24  1  0.54348956  0.88921885  0.16293416  1
  Al  Al25  1  0.22756800  0.85497734  0.57043931  1
  Al  Al26  1  0.78491225  0.75511725  0.32719384  1
  Al  Al27  1  0.88563785  0.87852673  0.10004600  1
  Gd  Gd28  1  0.88517689  0.21219659  0.64767475  1
  Gd  Gd29  1  0.23181004  0.19762926  0.65152744  1
  Gd  Gd30  1  0.76861672  0.09401076  0.37280353  1
  Gd  Gd31  1  0.56437704  0.19331474  0.67203822  1
  Gd  Gd32  1  0.88575249  0.54616200  0.11093834  1
  Gd  Gd33  1  0.10084969  0.76976156  0.83182253  1
  Gd  Gd34  1  0.45679939  0.75186672  0.86875725  1
  Gd  Gd35  1  0.58026509  0.83424433  0.58534562  1
  N  N36  1  0.21500661  0.21809476  0.34036678  1
  N  N37  1  0.10603604  0.10240383  0.14118276  1
  N  N38  1  0.89439463  0.19154035  0.87229555  1
  N  N39  1  0.79617576  0.06175564  0.58898815  1
  N  N40  1  0.51529748  0.23128019  0.32051273  1
  N  N41  1  0.43752615  0.09476737  0.10577824  1
  N  N42  1  0.22824763  0.19561131  0.87283656  1
  N  N43  1  0.12601133  0.05825388  0.62113819  1
  N  N44  1  0.89081340  0.23366405  0.34510689  1
  N  N45  1  0.77528883  0.10416457  0.12325158  1
  N  N46  1  0.55772169  0.19935312  0.89730758  1
  N  N47  1  0.45670097  0.08988494  0.55855644  1
  N  N48  1  0.22283725  0.53438886  0.33709294  1
  N  N49  1  0.14573965  0.41752107  0.08428391  1
  N  N50  1  0.89833420  0.51855546  0.85801655  1
  N  N51  1  0.75462034  0.48480658  0.58059874  1
  N  N52  1  0.55372384  0.53556467  0.33638809  1
  N  N53  1  0.43439832  0.44400672  0.08887200  1
  N  N54  1  0.24746733  0.49674335  0.82308997  1
  N  N55  1  0.09789914  0.44965908  0.57796382  1
  N  N56  1  0.88857909  0.53824723  0.33510995  1
  N  N57  1  0.75222355  0.41979834  0.08325701  1
  N  N58  1  0.58096384  0.48102655  0.82527886  1
  N  N59  1  0.44236200  0.43571538  0.57295817  1
  N  N60  1  0.21986241  0.87228370  0.38153954  1
  N  N61  1  0.10406150  0.76807922  0.14889505  1
  N  N62  1  0.86632229  0.88500988  0.92203175  1
  N  N63  1  0.82515546  0.75149562  0.66666866  1
  N  N64  1  0.54914235  0.87237748  0.35137142  1
  N  N65  1  0.43952810  0.76572146  0.13926834  1
  N  N66  1  0.21009727  0.89044334  0.92576365  1
  N  N67  1  0.12447863  0.74736426  0.61531506  1
  N  N68  1  0.90749678  0.83014632  0.39267394  1
  N  N69  1  0.75823476  0.80073001  0.15229500  1
  N  N70  1  0.55937126  0.90120598  0.84011975  1
  N  N71  1  0.42256479  0.74758647  0.64982563  1
