# generated using pymatgen
data_Gd2Al7N9
_symmetry_space_group_name_H-M   'P 1'
_cell_length_a   9.78933693
_cell_length_b   9.87088896
_cell_length_c   10.76385560
_cell_angle_alpha   89.37189306
_cell_angle_beta   89.26947882
_cell_angle_gamma   60.01989996
_symmetry_Int_Tables_number   1
_chemical_formula_structural   Gd2Al7N9
_chemical_formula_sum   'Gd8 Al28 N36'
_cell_volume   900.85249707
_cell_formula_units_Z   4
loop_
 _symmetry_equiv_pos_site_id
 _symmetry_equiv_pos_as_xyz
  1  'x, y, z'
loop_
 _atom_site_type_symbol
 _atom_site_label
 _atom_site_symmetry_multiplicity
 _atom_site_fract_x
 _atom_site_fract_y
 _atom_site_fract_z
 _atom_site_occupancy
  Al  Al0  1  0.11037912  0.10284549  0.30653026  1
  Al  Al1  1  0.22089397  0.20680806  0.08286133  1
  Al  Al2  1  0.76681478  0.09473089  0.90394607  1
  Al  Al3  1  0.44122665  0.09615276  0.35709969  1
  Al  Al4  1  0.54168178  0.21672079  0.13360747  1
  Al  Al5  1  0.12079032  0.08658952  0.82935209  1
  Al  Al6  1  0.89389596  0.20137897  0.06049055  1
  Al  Al7  1  0.44502849  0.09842174  0.90765253  1
  Al  Al8  1  0.12084743  0.42679731  0.29510406  1
  Al  Al9  1  0.22943372  0.54032781  0.06494436  1
  Al  Al10  1  0.77463634  0.41551657  0.87982431  1
  Al  Al11  1  0.88874402  0.55304213  0.65610045  1
  Al  Al12  1  0.44605998  0.43162193  0.37367097  1
  Al  Al13  1  0.56073172  0.52643597  0.13634233  1
  Al  Al14  1  0.13020011  0.41620625  0.82225023  1
  Al  Al15  1  0.21537517  0.54563423  0.54678408  1
  Al  Al16  1  0.78499358  0.45005523  0.38954461  1
  Al  Al17  1  0.45997039  0.40884422  0.89392604  1
  Al  Al18  1  0.54407195  0.53926072  0.62823997  1
  Al  Al19  1  0.11508087  0.74890992  0.31693197  1
  Al  Al20  1  0.21391070  0.87742688  0.07719961  1
  Al  Al21  1  0.77258812  0.78364964  0.82772253  1
  Al  Al22  1  0.89878756  0.85356632  0.54798604  1
  Al  Al23  1  0.43909766  0.76600173  0.29789162  1
  Al  Al24  1  0.55638479  0.87971935  0.08346190  1
  Al  Al25  1  0.21954166  0.86583806  0.55613990  1
  Al  Al26  1  0.78136742  0.75785607  0.29883543  1
  Al  Al27  1  0.89302801  0.87412871  0.07507618  1
  Gd  Gd28  1  0.86615261  0.21866440  0.62056629  1
  Gd  Gd29  1  0.17842681  0.21978981  0.54464398  1
  Gd  Gd30  1  0.78985093  0.09823652  0.34504908  1
  Gd  Gd31  1  0.53670956  0.20243515  0.63619730  1
  Gd  Gd32  1  0.89152651  0.54423364  0.08118459  1
  Gd  Gd33  1  0.10692550  0.76523921  0.79926020  1
  Gd  Gd34  1  0.45289437  0.74818118  0.84891867  1
  Gd  Gd35  1  0.57692336  0.82840269  0.54963676  1
  N  N36  1  0.22233412  0.20740061  0.33049363  1
  N  N37  1  0.10113813  0.09997653  0.12780884  1
  N  N38  1  0.89626204  0.19231676  0.87166575  1
  N  N39  1  0.77771130  0.07031757  0.56102060  1
  N  N40  1  0.52767040  0.22515762  0.30911696  1
  N  N41  1  0.44203749  0.10017850  0.08603957  1
  N  N42  1  0.21775491  0.20583547  0.88475042  1
  N  N43  1  0.12145156  0.05486290  0.65400074  1
  N  N44  1  0.92006784  0.22690737  0.39905320  1
  N  N45  1  0.77514596  0.10098993  0.09311111  1
  N  N46  1  0.55640611  0.19609192  0.85376540  1
  N  N47  1  0.43260593  0.08719910  0.53740028  1
  N  N48  1  0.21921382  0.53425027  0.36610036  1
  N  N49  1  0.14771765  0.41650529  0.12082532  1
  N  N50  1  0.88511119  0.53344269  0.84136589  1
  N  N51  1  0.75139781  0.49990304  0.56780601  1
  N  N52  1  0.56316704  0.53372050  0.31523416  1
  N  N53  1  0.45331763  0.42933860  0.07343194  1
  N  N54  1  0.23417989  0.52006265  0.88523087  1
  N  N55  1  0.11531028  0.44911934  0.64325207  1
  N  N56  1  0.89363804  0.53692830  0.30986444  1
  N  N57  1  0.75748562  0.41889796  0.05689911  1
  N  N58  1  0.58141263  0.47899871  0.80245062  1
  N  N59  1  0.44331517  0.44379887  0.55116747  1
  N  N60  1  0.22088220  0.87711041  0.36550223  1
  N  N61  1  0.11309646  0.75822971  0.13171711  1
  N  N62  1  0.87619489  0.87734660  0.89894281  1
  N  N63  1  0.80399228  0.76935588  0.65414171  1
  N  N64  1  0.55634399  0.86636160  0.33528784  1
  N  N65  1  0.44253227  0.76215486  0.11524289  1
  N  N66  1  0.20514894  0.89180383  0.90582897  1
  N  N67  1  0.11240958  0.75680518  0.58600891  1
  N  N68  1  0.90157196  0.83496377  0.37084330  1
  N  N69  1  0.76568789  0.79657708  0.12803362  1
  N  N70  1  0.57050054  0.88059461  0.89470674  1
  N  N71  1  0.41493893  0.75476143  0.63623750  1
