# generated using pymatgen
data_Gd2Al7N9
_symmetry_space_group_name_H-M   'P 1'
_cell_length_a   9.80048001
_cell_length_b   9.87116608
_cell_length_c   10.75530698
_cell_angle_alpha   89.42901072
_cell_angle_beta   89.28160547
_cell_angle_gamma   60.08507787
_symmetry_Int_Tables_number   1
_chemical_formula_structural   Gd2Al7N9
_chemical_formula_sum   'Gd8 Al28 N36'
_cell_volume   901.78458727
_cell_formula_units_Z   4
loop_
 _symmetry_equiv_pos_site_id
 _symmetry_equiv_pos_as_xyz
  1  'x, y, z'
loop_
 _atom_site_type_symbol
 _atom_site_label
 _atom_site_symmetry_multiplicity
 _atom_site_fract_x
 _atom_site_fract_y
 _atom_site_fract_z
 _atom_site_occupancy
  Al  Al0  1  0.10821981  0.10356315  0.30793862  1
  Al  Al1  1  0.21615264  0.20840898  0.07618648  1
  Al  Al2  1  0.76977615  0.09406321  0.90514246  1
  Al  Al3  1  0.43696653  0.09612719  0.29848869  1
  Al  Al4  1  0.54745617  0.22124508  0.12607394  1
  Al  Al5  1  0.11974386  0.08596545  0.82890958  1
  Al  Al6  1  0.89445270  0.20253738  0.06168488  1
  Al  Al7  1  0.44485851  0.09658216  0.90473238  1
  Al  Al8  1  0.11930108  0.42617216  0.29689931  1
  Al  Al9  1  0.22829927  0.54061906  0.06603784  1
  Al  Al10  1  0.77326465  0.41616650  0.87914256  1
  Al  Al11  1  0.88886700  0.55157997  0.65455139  1
  Al  Al12  1  0.44445620  0.43175113  0.37218017  1
  Al  Al13  1  0.56008774  0.52958070  0.13653821  1
  Al  Al14  1  0.12960573  0.41640287  0.82162238  1
  Al  Al15  1  0.21583789  0.54461531  0.54656946  1
  Al  Al16  1  0.78384319  0.44983045  0.38873969  1
  Al  Al17  1  0.45804030  0.41318469  0.89516333  1
  Al  Al18  1  0.54524745  0.53932926  0.62430631  1
  Al  Al19  1  0.11440031  0.74879172  0.31713212  1
  Al  Al20  1  0.21473288  0.87685514  0.07689670  1
  Al  Al21  1  0.77276400  0.78313478  0.82736942  1
  Al  Al22  1  0.89991042  0.85199931  0.54839956  1
  Al  Al23  1  0.43747478  0.76694757  0.29930323  1
  Al  Al24  1  0.55842222  0.87458230  0.08062394  1
  Al  Al25  1  0.22026494  0.86468088  0.55564975  1
  Al  Al26  1  0.78087108  0.75771094  0.29892460  1
  Al  Al27  1  0.89353639  0.87349695  0.07537444  1
  Gd  Gd28  1  0.87058251  0.21733970  0.61503118  1
  Gd  Gd29  1  0.19535681  0.21153786  0.55047987  1
  Gd  Gd30  1  0.78518411  0.09716973  0.34641203  1
  Gd  Gd31  1  0.54333458  0.20673030  0.64545152  1
  Gd  Gd32  1  0.89199468  0.54391466  0.08097893  1
  Gd  Gd33  1  0.10595295  0.76448603  0.79899226  1
  Gd  Gd34  1  0.45138665  0.75195059  0.84163554  1
  Gd  Gd35  1  0.57564607  0.83794165  0.54901634  1
  N  N36  1  0.22361968  0.20548642  0.33570156  1
  N  N37  1  0.10190356  0.10024242  0.12794585  1
  N  N38  1  0.89641276  0.19299994  0.87206484  1
  N  N39  1  0.77950184  0.06805719  0.56082251  1
  N  N40  1  0.52536048  0.22774934  0.30206093  1
  N  N41  1  0.44019401  0.09761325  0.09878576  1
  N  N42  1  0.21756369  0.20545323  0.88871243  1
  N  N43  1  0.12149052  0.05337061  0.65401086  1
  N  N44  1  0.91514704  0.22680948  0.39393247  1
  N  N45  1  0.77757642  0.10036220  0.09299111  1
  N  N46  1  0.55639451  0.19771271  0.86483097  1
  N  N47  1  0.43349350  0.07890325  0.59735850  1
  N  N48  1  0.21793802  0.53410109  0.36542923  1
  N  N49  1  0.14826439  0.41464296  0.12206250  1
  N  N50  1  0.88483202  0.53281146  0.84156334  1
  N  N51  1  0.75303635  0.49681024  0.56714281  1
  N  N52  1  0.56179857  0.53558039  0.31540159  1
  N  N53  1  0.45162772  0.43426128  0.07313103  1
  N  N54  1  0.23303567  0.51981814  0.88599263  1
  N  N55  1  0.11458849  0.44912697  0.64353706  1
  N  N56  1  0.89209350  0.53713536  0.30923786  1
  N  N57  1  0.75670147  0.41963152  0.05697917  1
  N  N58  1  0.57905538  0.48114115  0.80151805  1
  N  N59  1  0.44222674  0.44443965  0.54889158  1
  N  N60  1  0.21954154  0.87749993  0.36528890  1
  N  N61  1  0.11271903  0.75838267  0.13158282  1
  N  N62  1  0.87595904  0.87720859  0.89917309  1
  N  N63  1  0.80638015  0.76683389  0.65458018  1
  N  N64  1  0.55194576  0.87350889  0.33340263  1
  N  N65  1  0.44199473  0.76286620  0.11623872  1
  N  N66  1  0.20589861  0.89081115  0.90520594  1
  N  N67  1  0.11326852  0.75568594  0.58593733  1
  N  N68  1  0.90160137  0.83342508  0.37085223  1
  N  N69  1  0.76566268  0.79645839  0.12832806  1
  N  N70  1  0.57160552  0.87997580  0.89884949  1
  N  N71  1  0.41739886  0.75402375  0.63119870  1
