# generated using pymatgen
data_Gd2Al7N9
_symmetry_space_group_name_H-M   'P 1'
_cell_length_a   9.83137570
_cell_length_b   9.91044977
_cell_length_c   10.63429762
_cell_angle_alpha   89.13340162
_cell_angle_beta   89.59279343
_cell_angle_gamma   59.99991632
_symmetry_Int_Tables_number   1
_chemical_formula_structural   Gd2Al7N9
_chemical_formula_sum   'Gd8 Al28 N36'
_cell_volume   897.21597181
_cell_formula_units_Z   4
loop_
 _symmetry_equiv_pos_site_id
 _symmetry_equiv_pos_as_xyz
  1  'x, y, z'
loop_
 _atom_site_type_symbol
 _atom_site_label
 _atom_site_symmetry_multiplicity
 _atom_site_fract_x
 _atom_site_fract_y
 _atom_site_fract_z
 _atom_site_occupancy
  Al  Al0  1  0.11314711  0.10654717  0.30340502  1
  Al  Al1  1  0.22755028  0.20413952  0.05687636  1
  Al  Al2  1  0.77030070  0.09626545  0.88689366  1
  Al  Al3  1  0.44179060  0.09420681  0.28554587  1
  Al  Al4  1  0.54287196  0.21660918  0.06210693  1
  Al  Al5  1  0.11585797  0.08730124  0.82159876  1
  Al  Al6  1  0.89784711  0.20059140  0.05174830  1
  Al  Al7  1  0.44436161  0.09446611  0.81982359  1
  Al  Al8  1  0.12357223  0.42107088  0.29554183  1
  Al  Al9  1  0.23510183  0.53420982  0.05634939  1
  Al  Al10  1  0.77461010  0.42018989  0.87510989  1
  Al  Al11  1  0.88543038  0.55076252  0.64504686  1
  Al  Al12  1  0.43826279  0.42787727  0.29524525  1
  Al  Al13  1  0.56414531  0.53164328  0.12693968  1
  Al  Al14  1  0.12386598  0.42081906  0.81525440  1
  Al  Al15  1  0.21617546  0.54284366  0.54754086  1
  Al  Al16  1  0.78179987  0.45176281  0.38202824  1
  Al  Al17  1  0.44363136  0.41372887  0.80651090  1
  Al  Al18  1  0.54339905  0.54497960  0.62913584  1
  Al  Al19  1  0.11864147  0.74604682  0.31110015  1
  Al  Al20  1  0.21412287  0.87852474  0.07346647  1
  Al  Al21  1  0.77545329  0.78165825  0.81743681  1
  Al  Al22  1  0.89867021  0.85179618  0.53654993  1
  Al  Al23  1  0.44269720  0.76719464  0.29337962  1
  Al  Al24  1  0.55842439  0.88645689  0.06193691  1
  Al  Al25  1  0.21724271  0.86341612  0.54561911  1
  Al  Al26  1  0.78017593  0.76018426  0.29376699  1
  Al  Al27  1  0.89518557  0.87178070  0.06367336  1
  Gd  Gd28  1  0.86538263  0.21639873  0.60585824  1
  Gd  Gd29  1  0.19939752  0.20365317  0.55996065  1
  Gd  Gd30  1  0.79635326  0.09514570  0.31784671  1
  Gd  Gd31  1  0.52892086  0.20873526  0.54652774  1
  Gd  Gd32  1  0.89410332  0.54214795  0.08017468  1
  Gd  Gd33  1  0.10875749  0.76634753  0.79005544  1
  Gd  Gd34  1  0.44821847  0.75519701  0.84624276  1
  Gd  Gd35  1  0.56858917  0.84130924  0.55484804  1
  N  N36  1  0.23235225  0.20177643  0.34522192  1
  N  N37  1  0.10598739  0.10232791  0.12082217  1
  N  N38  1  0.89441103  0.19792873  0.86116051  1
  N  N39  1  0.78082686  0.06591213  0.54932336  1
  N  N40  1  0.53435588  0.21381263  0.33135096  1
  N  N41  1  0.44185748  0.09766527  0.10609491  1
  N  N42  1  0.21822396  0.20514119  0.87185998  1
  N  N43  1  0.11586563  0.04974365  0.64599015  1
  N  N44  1  0.91611861  0.22874868  0.38510837  1
  N  N45  1  0.77911687  0.09936119  0.07979293  1
  N  N46  1  0.54881384  0.20695472  0.87299735  1
  N  N47  1  0.43535546  0.07625123  0.64496622  1
  N  N48  1  0.23008737  0.52759401  0.36352350  1
  N  N49  1  0.15197829  0.40919036  0.11590965  1
  N  N50  1  0.88548005  0.53616356  0.83703909  1
  N  N51  1  0.74584950  0.49814515  0.56181219  1
  N  N52  1  0.56275551  0.53705104  0.31010111  1
  N  N53  1  0.44498786  0.43092585  0.11280181  1
  N  N54  1  0.23563333  0.51845810  0.87749577  1
  N  N55  1  0.10707314  0.44804150  0.63394901  1
  N  N56  1  0.89532169  0.53828917  0.30734711  1
  N  N57  1  0.76093321  0.41653445  0.05380967  1
  N  N58  1  0.58090058  0.49499166  0.80593684  1
  N  N59  1  0.41897562  0.44830124  0.62486296  1
  N  N60  1  0.22243080  0.87729487  0.35599716  1
  N  N61  1  0.11520698  0.75537526  0.12323437  1
  N  N62  1  0.87650122  0.87956475  0.88524064  1
  N  N63  1  0.80711479  0.76355309  0.64213829  1
  N  N64  1  0.55475724  0.87309441  0.33827716  1
  N  N65  1  0.44656325  0.76504135  0.10540240  1
  N  N66  1  0.19984097  0.89560459  0.90055430  1
  N  N67  1  0.11093413  0.75539174  0.57466808  1
  N  N68  1  0.90541620  0.83455008  0.35834998  1
  N  N69  1  0.76479586  0.79767175  0.11891919  1
  N  N70  1  0.57074948  0.88705239  0.88176204  1
  N  N71  1  0.41086165  0.75713781  0.62754452  1
