# generated using pymatgen
data_Gd2Al7N9
_symmetry_space_group_name_H-M   'P 1'
_cell_length_a   9.84265065
_cell_length_b   9.93633242
_cell_length_c   10.57484884
_cell_angle_alpha   89.29032591
_cell_angle_beta   89.51112026
_cell_angle_gamma   59.94044240
_symmetry_Int_Tables_number   1
_chemical_formula_structural   Gd2Al7N9
_chemical_formula_sum   'Gd8 Al28 N36'
_cell_volume   895.04968768
_cell_formula_units_Z   4
loop_
 _symmetry_equiv_pos_site_id
 _symmetry_equiv_pos_as_xyz
  1  'x, y, z'
loop_
 _atom_site_type_symbol
 _atom_site_label
 _atom_site_symmetry_multiplicity
 _atom_site_fract_x
 _atom_site_fract_y
 _atom_site_fract_z
 _atom_site_occupancy
  Al  Al0  1  0.10556860  0.10328353  0.33678894  1
  Al  Al1  1  0.22616158  0.21142799  0.15806198  1
  Al  Al2  1  0.76600027  0.09777470  0.92865280  1
  Al  Al3  1  0.44121748  0.10239503  0.38369220  1
  Al  Al4  1  0.53950186  0.21788168  0.13975658  1
  Al  Al5  1  0.12502058  0.08436217  0.84861851  1
  Al  Al6  1  0.89686831  0.20288570  0.08533696  1
  Al  Al7  1  0.43872763  0.09185539  0.91913531  1
  Al  Al8  1  0.10600071  0.44004955  0.37373038  1
  Al  Al9  1  0.23334195  0.53895105  0.15648891  1
  Al  Al10  1  0.77993409  0.41173966  0.89937871  1
  Al  Al11  1  0.89288488  0.54604213  0.66175868  1
  Al  Al12  1  0.44084868  0.43127884  0.39585292  1
  Al  Al13  1  0.56029787  0.52648596  0.15706079  1
  Al  Al14  1  0.13023326  0.41315166  0.86033800  1
  Al  Al15  1  0.22883463  0.53277948  0.63352746  1
  Al  Al16  1  0.78044887  0.45075329  0.41256069  1
  Al  Al17  1  0.44864928  0.41711168  0.90788311  1
  Al  Al18  1  0.54258635  0.53587196  0.65095008  1
  Al  Al19  1  0.11414767  0.75767904  0.34475068  1
  Al  Al20  1  0.21418601  0.88273909  0.10369257  1
  Al  Al21  1  0.77541934  0.78899160  0.83533423  1
  Al  Al22  1  0.90313729  0.84999252  0.56710956  1
  Al  Al23  1  0.43827255  0.75895869  0.32813107  1
  Al  Al24  1  0.54761506  0.88700929  0.15944663  1
  Al  Al25  1  0.22132589  0.85495933  0.57858772  1
  Al  Al26  1  0.78580900  0.75788700  0.32488448  1
  Al  Al27  1  0.89192360  0.87644216  0.09856464  1
  Gd  Gd28  1  0.86250852  0.21674109  0.64393108  1
  Gd  Gd29  1  0.19389866  0.19367170  0.59327598  1
  Gd  Gd30  1  0.78207174  0.10334457  0.36458130  1
  Gd  Gd31  1  0.53756337  0.19608376  0.66928093  1
  Gd  Gd32  1  0.89311741  0.54602328  0.10300779  1
  Gd  Gd33  1  0.10587064  0.78690485  0.82043045  1
  Gd  Gd34  1  0.46554363  0.74340763  0.88294148  1
  Gd  Gd35  1  0.57228258  0.83057036  0.59211150  1
  N  N36  1  0.22026280  0.21316982  0.34689355  1
  N  N37  1  0.10237173  0.10285334  0.15593365  1
  N  N38  1  0.90161334  0.18997105  0.89629783  1
  N  N39  1  0.77572562  0.06732877  0.58701452  1
  N  N40  1  0.52262084  0.22739127  0.32214832  1
  N  N41  1  0.43660088  0.09342806  0.10296565  1
  N  N42  1  0.23146467  0.19908011  0.84535242  1
  N  N43  1  0.10928867  0.03448191  0.67861204  1
  N  N44  1  0.91541574  0.22845743  0.42130155  1
  N  N45  1  0.77671598  0.10318007  0.11749025  1
  N  N46  1  0.55297470  0.19922415  0.89331742  1
  N  N47  1  0.43982667  0.08470484  0.55721662  1
  N  N48  1  0.22852749  0.53716306  0.34032993  1
  N  N49  1  0.14972264  0.41566876  0.10581003  1
  N  N50  1  0.89500663  0.52515186  0.85520577  1
  N  N51  1  0.74315356  0.50143400  0.58817365  1
  N  N52  1  0.56230876  0.53090811  0.33912607  1
  N  N53  1  0.44098230  0.44189624  0.08993202  1
  N  N54  1  0.24821227  0.51156550  0.82313448  1
  N  N55  1  0.09980764  0.44713754  0.59962601  1
  N  N56  1  0.89029490  0.54042897  0.33569628  1
  N  N57  1  0.75826304  0.42072221  0.08011480  1
  N  N58  1  0.58731147  0.47287468  0.82430200  1
  N  N59  1  0.44219251  0.43627567  0.57364839  1
  N  N60  1  0.22276112  0.87865180  0.39147119  1
  N  N61  1  0.10838968  0.77075631  0.15474476  1
  N  N62  1  0.87343167  0.88037301  0.91884310  1
  N  N63  1  0.81647094  0.75719139  0.66371781  1
  N  N64  1  0.55282283  0.87063427  0.35005890  1
  N  N65  1  0.44379982  0.76265874  0.14212008  1
  N  N66  1  0.21714640  0.89583815  0.93160177  1
  N  N67  1  0.11674032  0.74637749  0.60184058  1
  N  N68  1  0.90177438  0.84065374  0.38882429  1
  N  N69  1  0.76308640  0.79988357  0.14970096  1
  N  N70  1  0.56102982  0.89611627  0.84572711  1
  N  N71  1  0.41108670  0.74788826  0.66358969  1
