# generated using pymatgen
data_Gd2Al7N9
_symmetry_space_group_name_H-M   'P 1'
_cell_length_a   9.88749370
_cell_length_b   9.90878748
_cell_length_c   10.55974898
_cell_angle_alpha   88.77023283
_cell_angle_beta   89.54416749
_cell_angle_gamma   59.86856557
_symmetry_Int_Tables_number   1
_chemical_formula_structural   Gd2Al7N9
_chemical_formula_sum   'Gd8 Al28 N36'
_cell_volume   894.56498897
_cell_formula_units_Z   4
loop_
 _symmetry_equiv_pos_site_id
 _symmetry_equiv_pos_as_xyz
  1  'x, y, z'
loop_
 _atom_site_type_symbol
 _atom_site_label
 _atom_site_symmetry_multiplicity
 _atom_site_fract_x
 _atom_site_fract_y
 _atom_site_fract_z
 _atom_site_occupancy
  Al  Al0  1  0.10930918  0.10029232  0.38850398  1
  Al  Al1  1  0.22074498  0.21239462  0.15650716  1
  Al  Al2  1  0.78552356  0.09109811  0.93121697  1
  Al  Al3  1  0.42837658  0.11511917  0.37966816  1
  Al  Al4  1  0.54365500  0.21506486  0.13140893  1
  Al  Al5  1  0.10648007  0.10830916  0.93056826  1
  Al  Al6  1  0.88482634  0.21482536  0.15906123  1
  Al  Al7  1  0.44576311  0.08979113  0.92788564  1
  Al  Al8  1  0.10081355  0.43489096  0.39756227  1
  Al  Al9  1  0.22652714  0.53889866  0.16014844  1
  Al  Al10  1  0.77617969  0.40827062  0.90475474  1
  Al  Al11  1  0.89880376  0.53732455  0.65230296  1
  Al  Al12  1  0.43432464  0.43218616  0.39310911  1
  Al  Al13  1  0.55141382  0.53061161  0.15257754  1
  Al  Al14  1  0.13522911  0.40760078  0.90195728  1
  Al  Al15  1  0.22748656  0.53073353  0.63687136  1
  Al  Al16  1  0.77204786  0.44646564  0.39714345  1
  Al  Al17  1  0.45248817  0.41419181  0.90946638  1
  Al  Al18  1  0.54644633  0.53326053  0.64495725  1
  Al  Al19  1  0.10952091  0.74724708  0.39718984  1
  Al  Al20  1  0.21605412  0.87890942  0.10253814  1
  Al  Al21  1  0.77291384  0.77949719  0.82755100  1
  Al  Al22  1  0.90625677  0.86972974  0.65139680  1
  Al  Al23  1  0.43284580  0.75736205  0.32299113  1
  Al  Al24  1  0.54387957  0.88768160  0.15770629  1
  Al  Al25  1  0.22859433  0.85452510  0.56777788  1
  Al  Al26  1  0.78075401  0.75665268  0.32262818  1
  Al  Al27  1  0.89561506  0.87794739  0.16111117  1
  Gd  Gd28  1  0.88952404  0.21537679  0.65454810  1
  Gd  Gd29  1  0.23505982  0.18958531  0.65110031  1
  Gd  Gd30  1  0.76288114  0.10146665  0.38594022  1
  Gd  Gd31  1  0.55691412  0.19731571  0.68167687  1
  Gd  Gd32  1  0.88613134  0.54451575  0.10965453  1
  Gd  Gd33  1  0.11700664  0.74139057  0.89700072  1
  Gd  Gd34  1  0.45707487  0.75378985  0.86691217  1
  Gd  Gd35  1  0.57521519  0.83777577  0.57607888  1
  N  N36  1  0.21172718  0.21569632  0.33976565  1
  N  N37  1  0.10348142  0.11008737  0.11491208  1
  N  N38  1  0.89859922  0.19503937  0.87252261  1
  N  N39  1  0.79008905  0.07586069  0.59715800  1
  N  N40  1  0.51475668  0.23349082  0.31357981  1
  N  N41  1  0.43403094  0.09491492  0.10750614  1
  N  N42  1  0.22836574  0.19486595  0.87047823  1
  N  N43  1  0.12120068  0.07157149  0.56913169  1
  N  N44  1  0.89302128  0.23144497  0.34175542  1
  N  N45  1  0.78511237  0.09529527  0.11767621  1
  N  N46  1  0.56262709  0.19585366  0.91018919  1
  N  N47  1  0.45863331  0.09557896  0.55409071  1
  N  N48  1  0.21781453  0.53719295  0.34205038  1
  N  N49  1  0.14697628  0.41875071  0.08382477  1
  N  N50  1  0.89544483  0.52624119  0.85705124  1
  N  N51  1  0.75440194  0.47784427  0.57937355  1
  N  N52  1  0.55453692  0.53308499  0.33528699  1
  N  N53  1  0.43169023  0.44794710  0.08863727  1
  N  N54  1  0.25631058  0.48553268  0.81794249  1
  N  N55  1  0.10119778  0.44200914  0.57995791  1
  N  N56  1  0.88742130  0.54061476  0.33769362  1
  N  N57  1  0.75256972  0.41828534  0.08388647  1
  N  N58  1  0.58132949  0.47987386  0.82375368  1
  N  N59  1  0.43986678  0.43727432  0.57267349  1
  N  N60  1  0.22281455  0.86313221  0.37687107  1
  N  N61  1  0.10894639  0.75936163  0.11485523  1
  N  N62  1  0.87224827  0.89812192  0.84323095  1
  N  N63  1  0.81424300  0.74806605  0.65148236  1
  N  N64  1  0.54892907  0.87151749  0.34685566  1
  N  N65  1  0.44160976  0.76434448  0.13655406  1
  N  N66  1  0.21277034  0.89491796  0.92049993  1
  N  N67  1  0.11356843  0.74989526  0.58939963  1
  N  N68  1  0.90287360  0.84836463  0.34240202  1
  N  N69  1  0.75802176  0.79947942  0.13886823  1
  N  N70  1  0.55864216  0.90445864  0.83945811  1
  N  N71  1  0.41854505  0.75034763  0.64894012  1
