# generated using pymatgen
data_Gd2Al7N9
_symmetry_space_group_name_H-M   'P 1'
_cell_length_a   9.86293880
_cell_length_b   9.89809590
_cell_length_c   10.57887012
_cell_angle_alpha   89.02186342
_cell_angle_beta   89.53188302
_cell_angle_gamma   59.99691545
_symmetry_Int_Tables_number   1
_chemical_formula_structural   Gd2Al7N9
_chemical_formula_sum   'Gd8 Al28 N36'
_cell_volume   894.23380888
_cell_formula_units_Z   4
loop_
 _symmetry_equiv_pos_site_id
 _symmetry_equiv_pos_as_xyz
  1  'x, y, z'
loop_
 _atom_site_type_symbol
 _atom_site_label
 _atom_site_symmetry_multiplicity
 _atom_site_fract_x
 _atom_site_fract_y
 _atom_site_fract_z
 _atom_site_occupancy
  Al  Al0  1  0.11306488  0.10405887  0.29578635  1
  Al  Al1  1  0.22829587  0.20239009  0.05222034  1
  Al  Al2  1  0.76781170  0.09939622  0.88085618  1
  Al  Al3  1  0.44148678  0.09422295  0.28038085  1
  Al  Al4  1  0.54193255  0.21684112  0.05585645  1
  Al  Al5  1  0.11319471  0.08914087  0.81904658  1
  Al  Al6  1  0.89768983  0.20023806  0.04855089  1
  Al  Al7  1  0.44580975  0.09471075  0.81782419  1
  Al  Al8  1  0.12497726  0.41929656  0.29131191  1
  Al  Al9  1  0.23424376  0.53327886  0.05154932  1
  Al  Al10  1  0.76749930  0.42740380  0.87398335  1
  Al  Al11  1  0.88891692  0.54778893  0.64186350  1
  Al  Al12  1  0.43951632  0.42824459  0.29389827  1
  Al  Al13  1  0.55295352  0.53741789  0.08434722  1
  Al  Al14  1  0.12557991  0.41876962  0.81120604  1
  Al  Al15  1  0.21763267  0.54205678  0.54346427  1
  Al  Al16  1  0.78883215  0.44633333  0.37595943  1
  Al  Al17  1  0.44343848  0.42589130  0.80308844  1
  Al  Al18  1  0.53608498  0.55202487  0.55199819  1
  Al  Al19  1  0.11692158  0.74567771  0.30315743  1
  Al  Al20  1  0.21794397  0.87432332  0.06722592  1
  Al  Al21  1  0.77453847  0.78072746  0.81432179  1
  Al  Al22  1  0.90267501  0.84950925  0.53252618  1
  Al  Al23  1  0.44226928  0.76286625  0.29372216  1
  Al  Al24  1  0.55686472  0.88185247  0.05745814  1
  Al  Al25  1  0.21402998  0.86546549  0.53330777  1
  Al  Al26  1  0.78104511  0.75896803  0.28663665  1
  Al  Al27  1  0.89293074  0.87255673  0.05826561  1
  Gd  Gd28  1  0.87018722  0.21365700  0.60093602  1
  Gd  Gd29  1  0.20473407  0.19897395  0.55550225  1
  Gd  Gd30  1  0.79333066  0.09546429  0.31363049  1
  Gd  Gd31  1  0.53236945  0.20865865  0.54913717  1
  Gd  Gd32  1  0.89672906  0.54009606  0.07489308  1
  Gd  Gd33  1  0.10404088  0.76693657  0.78839283  1
  Gd  Gd34  1  0.43800778  0.77213396  0.80614689  1
  Gd  Gd35  1  0.58004087  0.84517485  0.54189937  1
  N  N36  1  0.23205272  0.19891775  0.33938445  1
  N  N37  1  0.10711517  0.10035175  0.11279935  1
  N  N38  1  0.88938615  0.20321751  0.85433295  1
  N  N39  1  0.78325407  0.06387493  0.54652881  1
  N  N40  1  0.53196478  0.21333484  0.33268921  1
  N  N41  1  0.44284042  0.09644577  0.09973938  1
  N  N42  1  0.21902622  0.20357352  0.86683902  1
  N  N43  1  0.12050861  0.04533549  0.64253052  1
  N  N44  1  0.91754672  0.22507603  0.37811424  1
  N  N45  1  0.77735068  0.10027304  0.07510418  1
  N  N46  1  0.54732262  0.21180517  0.86488599  1
  N  N47  1  0.43921368  0.07160818  0.64206384  1
  N  N48  1  0.22911305  0.52759664  0.35886812  1
  N  N49  1  0.15369276  0.40699168  0.11142318  1
  N  N50  1  0.88649771  0.53468556  0.83344593  1
  N  N51  1  0.75405459  0.49172160  0.55835391  1
  N  N52  1  0.55476972  0.53684875  0.34112333  1
  N  N53  1  0.44407912  0.43058780  0.11189646  1
  N  N54  1  0.23418937  0.51778343  0.87214326  1
  N  N55  1  0.11110193  0.44441077  0.62903842  1
  N  N56  1  0.89713323  0.53744927  0.30291783  1
  N  N57  1  0.76568799  0.41382600  0.05756309  1
  N  N58  1  0.55809155  0.51987851  0.84612842  1
  N  N59  1  0.42607518  0.45389914  0.61890316  1
  N  N60  1  0.21641474  0.87794060  0.34617642  1
  N  N61  1  0.11363131  0.75422660  0.11557876  1
  N  N62  1  0.87233450  0.88308554  0.87987468  1
  N  N63  1  0.81383775  0.75980081  0.63907285  1
  N  N64  1  0.55577488  0.87242911  0.32883080  1
  N  N65  1  0.44591244  0.76167433  0.10781388  1
  N  N66  1  0.20195437  0.89376455  0.89383194  1
  N  N67  1  0.11343946  0.75430742  0.57177827  1
  N  N68  1  0.90481467  0.83391131  0.35333229  1
  N  N69  1  0.76464736  0.79594360  0.11192292  1
  N  N70  1  0.56987397  0.88496828  0.87768479  1
  N  N71  1  0.41908854  0.75834429  0.58904169  1
