# generated using pymatgen
data_Gd2Al7N9
_symmetry_space_group_name_H-M   'P 1'
_cell_length_a   9.81936983
_cell_length_b   9.91473926
_cell_length_c   10.69271071
_cell_angle_alpha   89.15036917
_cell_angle_beta   89.33696491
_cell_angle_gamma   59.91561430
_symmetry_Int_Tables_number   1
_chemical_formula_structural   Gd2Al7N9
_chemical_formula_sum   'Gd8 Al28 N36'
_cell_volume   900.65968372
_cell_formula_units_Z   4
loop_
 _symmetry_equiv_pos_site_id
 _symmetry_equiv_pos_as_xyz
  1  'x, y, z'
loop_
 _atom_site_type_symbol
 _atom_site_label
 _atom_site_symmetry_multiplicity
 _atom_site_fract_x
 _atom_site_fract_y
 _atom_site_fract_z
 _atom_site_occupancy
  Al  Al0  1  0.10723207  0.09829362  0.33193827  1
  Al  Al1  1  0.22892299  0.20352126  0.14840740  1
  Al  Al2  1  0.76482525  0.09719389  0.92878521  1
  Al  Al3  1  0.44149676  0.10096403  0.38230068  1
  Al  Al4  1  0.54173957  0.21714558  0.14396380  1
  Al  Al5  1  0.12777920  0.08706320  0.84830102  1
  Al  Al6  1  0.89725741  0.20165103  0.08315671  1
  Al  Al7  1  0.43934825  0.09351807  0.92249191  1
  Al  Al8  1  0.11383597  0.43312048  0.31987477  1
  Al  Al9  1  0.23915569  0.54312917  0.15694179  1
  Al  Al10  1  0.77863754  0.41189538  0.89995355  1
  Al  Al11  1  0.88477473  0.54855815  0.66784545  1
  Al  Al12  1  0.44089955  0.43139650  0.39787429  1
  Al  Al13  1  0.56361714  0.52520386  0.15825884  1
  Al  Al14  1  0.13059760  0.41204711  0.82781003  1
  Al  Al15  1  0.22992767  0.53524842  0.63914671  1
  Al  Al16  1  0.78436423  0.44811281  0.41299623  1
  Al  Al17  1  0.45074904  0.41640525  0.90866798  1
  Al  Al18  1  0.54249492  0.53492443  0.65193211  1
  Al  Al19  1  0.11459609  0.75798691  0.34396343  1
  Al  Al20  1  0.21586842  0.88132463  0.10068222  1
  Al  Al21  1  0.77229417  0.79044092  0.83330014  1
  Al  Al22  1  0.90203402  0.84934788  0.56722042  1
  Al  Al23  1  0.43928946  0.75707479  0.32871954  1
  Al  Al24  1  0.54976504  0.88535369  0.16250149  1
  Al  Al25  1  0.21976763  0.85823395  0.58038013  1
  Al  Al26  1  0.78980212  0.75314065  0.32532692  1
  Al  Al27  1  0.89102486  0.87691784  0.09857288  1
  Gd  Gd28  1  0.85972979  0.21593844  0.64781805  1
  Gd  Gd29  1  0.17426476  0.20937914  0.56689727  1
  Gd  Gd30  1  0.78308298  0.10314465  0.36785501  1
  Gd  Gd31  1  0.53231170  0.19443008  0.66916869  1
  Gd  Gd32  1  0.89514584  0.54878337  0.09013587  1
  Gd  Gd33  1  0.10566695  0.78593034  0.82384084  1
  Gd  Gd34  1  0.46655593  0.74407225  0.88001431  1
  Gd  Gd35  1  0.56554911  0.83716696  0.59145739  1
  N  N36  1  0.22317121  0.20606249  0.34005708  1
  N  N37  1  0.10234845  0.09958631  0.15369391  1
  N  N38  1  0.90107579  0.18879672  0.89552325  1
  N  N39  1  0.77261443  0.06743621  0.58668261  1
  N  N40  1  0.52353280  0.22702940  0.32371246  1
  N  N41  1  0.44275453  0.09124822  0.10418435  1
  N  N42  1  0.22537495  0.20486345  0.87407957  1
  N  N43  1  0.11416457  0.04443815  0.67615676  1
  N  N44  1  0.92136130  0.22447423  0.42338832  1
  N  N45  1  0.77624233  0.10297931  0.11677816  1
  N  N46  1  0.55350799  0.19941751  0.89039505  1
  N  N47  1  0.42735435  0.09131194  0.55478540  1
  N  N48  1  0.23158316  0.53919316  0.34030548  1
  N  N49  1  0.14764074  0.41810125  0.13892227  1
  N  N50  1  0.88409580  0.53366551  0.85794199  1
  N  N51  1  0.74510058  0.49661457  0.58806310  1
  N  N52  1  0.56523254  0.52832073  0.33931840  1
  N  N53  1  0.44469040  0.43960660  0.08984296  1
  N  N54  1  0.25104588  0.51528448  0.82920563  1
  N  N55  1  0.10331716  0.43976882  0.64741217  1
  N  N56  1  0.89387872  0.53648289  0.33629715  1
  N  N57  1  0.76104505  0.42043109  0.07972205  1
  N  N58  1  0.58793113  0.47297821  0.82377478  1
  N  N59  1  0.44097037  0.43592539  0.57483582  1
  N  N60  1  0.22315950  0.87678530  0.39254811  1
  N  N61  1  0.10854744  0.77167839  0.15390485  1
  N  N62  1  0.87145785  0.87858387  0.92036504  1
  N  N63  1  0.81207041  0.75864334  0.66221523  1
  N  N64  1  0.55458429  0.86872015  0.35086325  1
  N  N65  1  0.44432900  0.76223921  0.14370463  1
  N  N66  1  0.21798045  0.89564585  0.93016891  1
  N  N67  1  0.11445880  0.74889261  0.60673505  1
  N  N68  1  0.90277546  0.83992990  0.39002733  1
  N  N69  1  0.76563993  0.79684995  0.15203026  1
  N  N70  1  0.55700621  0.90173122  0.84162692  1
  N  N71  1  0.41057675  0.74723270  0.66374897  1
