# generated using pymatgen
data_Gd2Al7N9
_symmetry_space_group_name_H-M   'P 1'
_cell_length_a   9.87349209
_cell_length_b   9.93034441
_cell_length_c   10.37422847
_cell_angle_alpha   89.85134015
_cell_angle_beta   90.12188671
_cell_angle_gamma   60.23143651
_symmetry_Int_Tables_number   1
_chemical_formula_structural   Gd2Al7N9
_chemical_formula_sum   'Gd8 Al28 N36'
_cell_volume   882.92703375
_cell_formula_units_Z   4
loop_
 _symmetry_equiv_pos_site_id
 _symmetry_equiv_pos_as_xyz
  1  'x, y, z'
loop_
 _atom_site_type_symbol
 _atom_site_label
 _atom_site_symmetry_multiplicity
 _atom_site_fract_x
 _atom_site_fract_y
 _atom_site_fract_z
 _atom_site_occupancy
  Al  Al0  1  0.11524275  0.09319052  0.38486884  1
  Al  Al1  1  0.22365039  0.20776073  0.15357135  1
  Al  Al2  1  0.78461759  0.08964702  0.92570669  1
  Al  Al3  1  0.43159573  0.11458901  0.37956388  1
  Al  Al4  1  0.54463239  0.21328497  0.12826430  1
  Al  Al5  1  0.10952275  0.09846165  0.92456118  1
  Al  Al6  1  0.88845925  0.21093928  0.15451872  1
  Al  Al7  1  0.44253581  0.08955378  0.92437974  1
  Al  Al8  1  0.10542249  0.43399761  0.39779113  1
  Al  Al9  1  0.22714754  0.53831822  0.15766170  1
  Al  Al10  1  0.77783499  0.40996295  0.90269719  1
  Al  Al11  1  0.88987375  0.54859466  0.64883313  1
  Al  Al12  1  0.43585046  0.43451312  0.39052638  1
  Al  Al13  1  0.55589164  0.52897345  0.15300144  1
  Al  Al14  1  0.12990788  0.41134548  0.90200961  1
  Al  Al15  1  0.22700556  0.53447100  0.63424822  1
  Al  Al16  1  0.77449924  0.44207572  0.40027322  1
  Al  Al17  1  0.45139740  0.41370986  0.91065104  1
  Al  Al18  1  0.55104064  0.53215769  0.64489402  1
  Al  Al19  1  0.11312342  0.75320737  0.39385229  1
  Al  Al20  1  0.21194998  0.87612170  0.14687673  1
  Al  Al21  1  0.76360136  0.78734756  0.89450970  1
  Al  Al22  1  0.89225606  0.86952946  0.64674868  1
  Al  Al23  1  0.44328573  0.75891570  0.32812799  1
  Al  Al24  1  0.55844192  0.88206200  0.15744694  1
  Al  Al25  1  0.21903294  0.86008384  0.62768712  1
  Al  Al26  1  0.79568133  0.74741645  0.40070574  1
  Al  Al27  1  0.89237433  0.86934885  0.15295727  1
  Gd  Gd28  1  0.89533930  0.20776432  0.65028074  1
  Gd  Gd29  1  0.22288799  0.20469565  0.64868346  1
  Gd  Gd30  1  0.76724554  0.09649447  0.37743517  1
  Gd  Gd31  1  0.55318882  0.21408443  0.67827688  1
  Gd  Gd32  1  0.88742223  0.54486858  0.13048939  1
  Gd  Gd33  1  0.11254635  0.74230268  0.89031800  1
  Gd  Gd34  1  0.45614797  0.74696401  0.88475132  1
  Gd  Gd35  1  0.55341718  0.86539156  0.61085417  1
  N  N36  1  0.21353825  0.21458627  0.33981722  1
  N  N37  1  0.10858377  0.10008981  0.10973270  1
  N  N38  1  0.89654627  0.19569193  0.87162296  1
  N  N39  1  0.78651902  0.07583140  0.59288525  1
  N  N40  1  0.51715568  0.23397252  0.31374635  1
  N  N41  1  0.43774978  0.08964519  0.10787179  1
  N  N42  1  0.22475457  0.19709970  0.87098928  1
  N  N43  1  0.13119960  0.06004525  0.56564202  1
  N  N44  1  0.89688230  0.22875926  0.34107847  1
  N  N45  1  0.78782674  0.08968290  0.11570614  1
  N  N46  1  0.56075833  0.19492890  0.91000282  1
  N  N47  1  0.44676037  0.11345185  0.55811978  1
  N  N48  1  0.21881829  0.54010770  0.34154279  1
  N  N49  1  0.14456475  0.41627205  0.08611943  1
  N  N50  1  0.88998846  0.53979282  0.85013513  1
  N  N51  1  0.76010797  0.46607076  0.58390031  1
  N  N52  1  0.55723600  0.53568300  0.33689918  1
  N  N53  1  0.43400671  0.44586970  0.09109226  1
  N  N54  1  0.25686784  0.48384297  0.81795215  1
  N  N55  1  0.09756400  0.45031872  0.58088543  1
  N  N56  1  0.88814521  0.54042072  0.34707461  1
  N  N57  1  0.75893677  0.41637391  0.08514544  1
  N  N58  1  0.58046704  0.47779906  0.82587873  1
  N  N59  1  0.43671581  0.44444030  0.57064842  1
  N  N60  1  0.21800971  0.86989747  0.33602709  1
  N  N61  1  0.10982763  0.75708715  0.10816467  1
  N  N62  1  0.86435260  0.89346059  0.83425677  1
  N  N63  1  0.80915687  0.74987806  0.58428503  1
  N  N64  1  0.56167460  0.87108280  0.34862479  1
  N  N65  1  0.44874830  0.76126291  0.13127725  1
  N  N66  1  0.20501390  0.89696314  0.86743293  1
  N  N67  1  0.10946964  0.75532160  0.59221537  1
  N  N68  1  0.90453292  0.84020713  0.33310366  1
  N  N69  1  0.75883266  0.79979738  0.07974786  1
  N  N70  1  0.55619751  0.89882163  0.83713186  1
  N  N71  1  0.42552522  0.74170098  0.64953235  1
