# generated using pymatgen
data_Gd2Al7N9
_symmetry_space_group_name_H-M   'P 1'
_cell_length_a   9.84925940
_cell_length_b   9.87474077
_cell_length_c   10.55792374
_cell_angle_alpha   89.06651478
_cell_angle_beta   89.74136712
_cell_angle_gamma   60.04693246
_symmetry_Int_Tables_number   1
_chemical_formula_structural   Gd2Al7N9
_chemical_formula_sum   'Gd8 Al28 N36'
_cell_volume   889.57422384
_cell_formula_units_Z   4
loop_
 _symmetry_equiv_pos_site_id
 _symmetry_equiv_pos_as_xyz
  1  'x, y, z'
loop_
 _atom_site_type_symbol
 _atom_site_label
 _atom_site_symmetry_multiplicity
 _atom_site_fract_x
 _atom_site_fract_y
 _atom_site_fract_z
 _atom_site_occupancy
  Al  Al0  1  0.11428929  0.09722895  0.28954459  1
  Al  Al1  1  0.22582993  0.20289289  0.05197196  1
  Al  Al2  1  0.76957100  0.10308020  0.87174093  1
  Al  Al3  1  0.43757681  0.09498018  0.28094722  1
  Al  Al4  1  0.54045967  0.21681831  0.05043954  1
  Al  Al5  1  0.11292872  0.09278856  0.81629886  1
  Al  Al6  1  0.89024734  0.20874360  0.04899748  1
  Al  Al7  1  0.44517930  0.09625538  0.81835208  1
  Al  Al8  1  0.11708478  0.42092061  0.29089965  1
  Al  Al9  1  0.22967665  0.53452336  0.05638663  1
  Al  Al10  1  0.76619217  0.43164025  0.81182916  1
  Al  Al11  1  0.89338937  0.54830570  0.64582751  1
  Al  Al12  1  0.43834865  0.42666941  0.29670059  1
  Al  Al13  1  0.55214718  0.52983293  0.05855409  1
  Al  Al14  1  0.12870296  0.42063604  0.81475529  1
  Al  Al15  1  0.22043663  0.54575511  0.54586525  1
  Al  Al16  1  0.78064926  0.42514415  0.29753155  1
  Al  Al17  1  0.44274601  0.43065343  0.81090844  1
  Al  Al18  1  0.54354853  0.55141163  0.54760794  1
  Al  Al19  1  0.11477270  0.74716949  0.30459618  1
  Al  Al20  1  0.21891766  0.87313489  0.06334017  1
  Al  Al21  1  0.77335803  0.78339236  0.81272639  1
  Al  Al22  1  0.90448665  0.85181031  0.53592560  1
  Al  Al23  1  0.44457562  0.75705196  0.29260961  1
  Al  Al24  1  0.55479260  0.88006217  0.05915293  1
  Al  Al25  1  0.22134860  0.86613500  0.53166684  1
  Al  Al26  1  0.78169711  0.75314085  0.28644444  1
  Al  Al27  1  0.89151272  0.87234513  0.05306286  1
  Gd  Gd28  1  0.88584166  0.21150217  0.57175785  1
  Gd  Gd29  1  0.21359987  0.20510988  0.55400221  1
  Gd  Gd30  1  0.78277149  0.08912073  0.29926573  1
  Gd  Gd31  1  0.54187057  0.21791024  0.56096811  1
  Gd  Gd32  1  0.88765907  0.53861939  0.06380689  1
  Gd  Gd33  1  0.10473842  0.76619841  0.78749800  1
  Gd  Gd34  1  0.44333003  0.76504849  0.80270641  1
  Gd  Gd35  1  0.57978894  0.85873991  0.53848640  1
  N  N36  1  0.22672752  0.19825682  0.33648762  1
  N  N37  1  0.10709962  0.09859092  0.10707468  1
  N  N38  1  0.88850083  0.21253553  0.85817805  1
  N  N39  1  0.78923547  0.06093521  0.57098143  1
  N  N40  1  0.52722749  0.21206419  0.34364020  1
  N  N41  1  0.44183125  0.09739099  0.09918768  1
  N  N42  1  0.22065478  0.20510103  0.86616397  1
  N  N43  1  0.12910014  0.05063322  0.63745532  1
  N  N44  1  0.91016200  0.21588943  0.35755888  1
  N  N45  1  0.77461516  0.10037860  0.07001887  1
  N  N46  1  0.54725445  0.21390246  0.86220113  1
  N  N47  1  0.44393095  0.08047953  0.64167036  1
  N  N48  1  0.22658209  0.52753549  0.36016318  1
  N  N49  1  0.14363832  0.41043598  0.11051545  1
  N  N50  1  0.89145042  0.53898118  0.83763097  1
  N  N51  1  0.74703239  0.47571813  0.63166762  1
  N  N52  1  0.55681043  0.53046459  0.35986718  1
  N  N53  1  0.44157030  0.42833905  0.11490037  1
  N  N54  1  0.23537087  0.52024285  0.87724178  1
  N  N55  1  0.11377888  0.44923842  0.63232288  1
  N  N56  1  0.89183516  0.53411507  0.30786872  1
  N  N57  1  0.76116839  0.40761144  0.11702304  1
  N  N58  1  0.56403453  0.51456845  0.87957535  1
  N  N59  1  0.42450703  0.46835886  0.62966104  1
  N  N60  1  0.21908292  0.87404209  0.34431802  1
  N  N61  1  0.11029789  0.75703158  0.11528006  1
  N  N62  1  0.87161716  0.88604251  0.87562023  1
  N  N63  1  0.81352113  0.75891471  0.63672567  1
  N  N64  1  0.55480830  0.87091750  0.32409430  1
  N  N65  1  0.44693715  0.75505395  0.10647011  1
  N  N66  1  0.20666173  0.89306232  0.88775565  1
  N  N67  1  0.11664992  0.75846167  0.57104839  1
  N  N68  1  0.90111902  0.83399632  0.35723957  1
  N  N69  1  0.76603750  0.79327369  0.11067111  1
  N  N70  1  0.56777458  0.88467670  0.87642049  1
  N  N71  1  0.42862501  0.76096513  0.58421814  1
