# generated using pymatgen
data_Gd2Al7N9
_symmetry_space_group_name_H-M   'P 1'
_cell_length_a   9.89181325
_cell_length_b   9.91149637
_cell_length_c   10.51023913
_cell_angle_alpha   89.04760766
_cell_angle_beta   90.00690264
_cell_angle_gamma   60.08722488
_symmetry_Int_Tables_number   1
_chemical_formula_structural   Gd2Al7N9
_chemical_formula_sum   'Gd8 Al28 N36'
_cell_volume   893.01543105
_cell_formula_units_Z   4
loop_
 _symmetry_equiv_pos_site_id
 _symmetry_equiv_pos_as_xyz
  1  'x, y, z'
loop_
 _atom_site_type_symbol
 _atom_site_label
 _atom_site_symmetry_multiplicity
 _atom_site_fract_x
 _atom_site_fract_y
 _atom_site_fract_z
 _atom_site_occupancy
  Al  Al0  1  0.11089311  0.10012230  0.38841628  1
  Al  Al1  1  0.22059688  0.21206737  0.15705986  1
  Al  Al2  1  0.77369656  0.10701003  0.93769011  1
  Al  Al3  1  0.42783513  0.11365492  0.38297662  1
  Al  Al4  1  0.53838123  0.21936072  0.13528294  1
  Al  Al5  1  0.10562749  0.10817597  0.93136088  1
  Al  Al6  1  0.88597542  0.21784450  0.16110170  1
  Al  Al7  1  0.44338741  0.09321295  0.92636294  1
  Al  Al8  1  0.10089587  0.43572077  0.39798911  1
  Al  Al9  1  0.22703649  0.53729705  0.15511714  1
  Al  Al10  1  0.77759107  0.40826123  0.90289527  1
  Al  Al11  1  0.90079023  0.53677816  0.66188073  1
  Al  Al12  1  0.43555292  0.43115103  0.39406981  1
  Al  Al13  1  0.55313558  0.52986278  0.15279461  1
  Al  Al14  1  0.13274298  0.41078014  0.90367106  1
  Al  Al15  1  0.23081398  0.52777146  0.63615226  1
  Al  Al16  1  0.77351233  0.44686625  0.39956325  1
  Al  Al17  1  0.44717034  0.42001641  0.90904452  1
  Al  Al18  1  0.54849808  0.53309919  0.64691170  1
  Al  Al19  1  0.11444953  0.74913068  0.35027345  1
  Al  Al20  1  0.21457204  0.87613429  0.10225282  1
  Al  Al21  1  0.77049052  0.79529250  0.83306155  1
  Al  Al22  1  0.91177156  0.84615316  0.57255543  1
  Al  Al23  1  0.43643032  0.75595247  0.32425710  1
  Al  Al24  1  0.54359836  0.88926317  0.16267522  1
  Al  Al25  1  0.23137377  0.84981860  0.56433329  1
  Al  Al26  1  0.78499481  0.75517656  0.32708606  1
  Al  Al27  1  0.88614274  0.87842290  0.10021720  1
  Gd  Gd28  1  0.89062680  0.20781041  0.64842637  1
  Gd  Gd29  1  0.23258374  0.19060971  0.65187113  1
  Gd  Gd30  1  0.76639589  0.09734885  0.37125834  1
  Gd  Gd31  1  0.56295254  0.19256038  0.67691224  1
  Gd  Gd32  1  0.88558597  0.54668548  0.10948376  1
  Gd  Gd33  1  0.10481163  0.76607683  0.84334045  1
  Gd  Gd34  1  0.45882111  0.75558878  0.87033289  1
  Gd  Gd35  1  0.57850210  0.83773547  0.58300103  1
  N  N36  1  0.21238920  0.21514937  0.34087862  1
  N  N37  1  0.10283174  0.10952330  0.11582788  1
  N  N38  1  0.89664276  0.19259139  0.87044619  1
  N  N39  1  0.79412709  0.06450904  0.59210129  1
  N  N40  1  0.51373890  0.23200050  0.31757906  1
  N  N41  1  0.43452726  0.09486411  0.10736429  1
  N  N42  1  0.22591575  0.19671736  0.87160282  1
  N  N43  1  0.12362906  0.06731189  0.56868161  1
  N  N44  1  0.89452953  0.23178374  0.34503322  1
  N  N45  1  0.77922326  0.10303403  0.12523726  1
  N  N46  1  0.55716953  0.20180980  0.90578849  1
  N  N47  1  0.45532701  0.09418901  0.55745474  1
  N  N48  1  0.22189599  0.53176562  0.33935904  1
  N  N49  1  0.14563728  0.41718079  0.08550804  1
  N  N50  1  0.89729045  0.52007269  0.85861892  1
  N  N51  1  0.75689128  0.47726903  0.58300291  1
  N  N52  1  0.55598982  0.53212276  0.33646432  1
  N  N53  1  0.43278761  0.44661244  0.08991814  1
  N  N54  1  0.24896862  0.49486958  0.82328514  1
  N  N55  1  0.10039269  0.44380140  0.58140643  1
  N  N56  1  0.88833809  0.53872263  0.33719004  1
  N  N57  1  0.75407831  0.41844000  0.08386857  1
  N  N58  1  0.57898395  0.48429225  0.82698766  1
  N  N59  1  0.44235633  0.43525537  0.57449324  1
  N  N60  1  0.22458625  0.86222462  0.37404383  1
  N  N61  1  0.10566028  0.76310431  0.13778146  1
  N  N62  1  0.86357662  0.88938374  0.91926320  1
  N  N63  1  0.82360093  0.74946416  0.66348518  1
  N  N64  1  0.54870644  0.87130317  0.35128378  1
  N  N65  1  0.44323602  0.76371860  0.13630864  1
  N  N66  1  0.21263637  0.89348877  0.92178792  1
  N  N67  1  0.12370153  0.74757018  0.61079133  1
  N  N68  1  0.90409778  0.83381500  0.39276167  1
  N  N69  1  0.75780192  0.80112497  0.15101937  1
  N  N70  1  0.55589968  0.91058828  0.83293466  1
  N  N71  1  0.42169695  0.74996679  0.64871031  1
