# generated using pymatgen
data_Gd2Al7N9
_symmetry_space_group_name_H-M   'P 1'
_cell_length_a   9.85251597
_cell_length_b   9.89541551
_cell_length_c   10.56606849
_cell_angle_alpha   88.93108896
_cell_angle_beta   89.58528258
_cell_angle_gamma   60.08476779
_symmetry_Int_Tables_number   1
_chemical_formula_structural   Gd2Al7N9
_chemical_formula_sum   'Gd8 Al28 N36'
_cell_volume   892.72716681
_cell_formula_units_Z   4
loop_
 _symmetry_equiv_pos_site_id
 _symmetry_equiv_pos_as_xyz
  1  'x, y, z'
loop_
 _atom_site_type_symbol
 _atom_site_label
 _atom_site_symmetry_multiplicity
 _atom_site_fract_x
 _atom_site_fract_y
 _atom_site_fract_z
 _atom_site_occupancy
  Al  Al0  1  0.11458531  0.09980514  0.29322092  1
  Al  Al1  1  0.22751938  0.20200308  0.05202002  1
  Al  Al2  1  0.76642565  0.10190172  0.88095076  1
  Al  Al3  1  0.43990682  0.09330629  0.27978203  1
  Al  Al4  1  0.54081671  0.21736245  0.05714820  1
  Al  Al5  1  0.11312486  0.09019762  0.81798848  1
  Al  Al6  1  0.89604203  0.20275075  0.04835956  1
  Al  Al7  1  0.44509932  0.09725024  0.81815633  1
  Al  Al8  1  0.12503568  0.41807622  0.29221682  1
  Al  Al9  1  0.23300093  0.53322549  0.05409152  1
  Al  Al10  1  0.76956901  0.42922908  0.85910637  1
  Al  Al11  1  0.88944491  0.54790833  0.64682299  1
  Al  Al12  1  0.44144100  0.42850194  0.29275987  1
  Al  Al13  1  0.54809185  0.53676008  0.05146963  1
  Al  Al14  1  0.12710635  0.42038936  0.81309189  1
  Al  Al15  1  0.21923104  0.54500420  0.54646463  1
  Al  Al16  1  0.78668285  0.43492547  0.34623386  1
  Al  Al17  1  0.44163933  0.42964417  0.80701795  1
  Al  Al18  1  0.54184500  0.55190573  0.54701127  1
  Al  Al19  1  0.11776836  0.74423105  0.30257750  1
  Al  Al20  1  0.21993154  0.87263610  0.06571614  1
  Al  Al21  1  0.77345608  0.78310473  0.81443376  1
  Al  Al22  1  0.90399106  0.84824643  0.53238542  1
  Al  Al23  1  0.44523858  0.75824800  0.29259259  1
  Al  Al24  1  0.55510349  0.87993711  0.05713205  1
  Al  Al25  1  0.21773192  0.86539447  0.53129994  1
  Al  Al26  1  0.78080230  0.75616783  0.28567447  1
  Al  Al27  1  0.89197786  0.87264413  0.05712251  1
  Gd  Gd28  1  0.87430723  0.20866176  0.59373470  1
  Gd  Gd29  1  0.20496387  0.20324100  0.55659905  1
  Gd  Gd30  1  0.79007378  0.08884560  0.31095223  1
  Gd  Gd31  1  0.53039578  0.21798718  0.54931706  1
  Gd  Gd32  1  0.89598486  0.54002202  0.07058913  1
  Gd  Gd33  1  0.10301263  0.76741573  0.78922550  1
  Gd  Gd34  1  0.43779169  0.77268675  0.79886701  1
  Gd  Gd35  1  0.58078195  0.85421257  0.54068364  1
  N  N36  1  0.23061410  0.19705591  0.33995375  1
  N  N37  1  0.10788016  0.09860499  0.11045552  1
  N  N38  1  0.88827402  0.20492607  0.85273860  1
  N  N39  1  0.77896360  0.06209323  0.54342189  1
  N  N40  1  0.52936538  0.21365564  0.33178165  1
  N  N41  1  0.44219880  0.09536110  0.09892170  1
  N  N42  1  0.21845402  0.20512418  0.86643277  1
  N  N43  1  0.12499380  0.04524545  0.64095070  1
  N  N44  1  0.91435730  0.22081640  0.36982604  1
  N  N45  1  0.77675923  0.10028882  0.07437083  1
  N  N46  1  0.54613228  0.21467203  0.86577887  1
  N  N47  1  0.43938630  0.07890817  0.64143810  1
  N  N48  1  0.23126908  0.52626518  0.36062193  1
  N  N49  1  0.15295851  0.40600521  0.11299899  1
  N  N50  1  0.88954822  0.53887589  0.83793361  1
  N  N51  1  0.75201623  0.47932329  0.59989823  1
  N  N52  1  0.55737826  0.53272359  0.35709602  1
  N  N53  1  0.44408636  0.43191181  0.11234760  1
  N  N54  1  0.23371856  0.51956410  0.87502760  1
  N  N55  1  0.11201767  0.44785986  0.63141560  1
  N  N56  1  0.89584849  0.53544041  0.30513320  1
  N  N57  1  0.76633709  0.41373054  0.06387895  1
  N  N58  1  0.55133072  0.52491531  0.87017157  1
  N  N59  1  0.42653761  0.46246659  0.62535075  1
  N  N60  1  0.21781942  0.87490296  0.34402486  1
  N  N61  1  0.11261687  0.75434718  0.11465411  1
  N  N62  1  0.87061014  0.88621046  0.87883365  1
  N  N63  1  0.81484974  0.75953962  0.63931144  1
  N  N64  1  0.55631386  0.87062957  0.32664704  1
  N  N65  1  0.44702189  0.75686315  0.10705267  1
  N  N66  1  0.20515893  0.89324803  0.89121209  1
  N  N67  1  0.11436207  0.75732580  0.57250959  1
  N  N68  1  0.90659639  0.82832985  0.35358000  1
  N  N69  1  0.76393137  0.79548163  0.11089431  1
  N  N70  1  0.56733163  0.88558930  0.87571477  1
  N  N71  1  0.42439194  0.76063692  0.58226277  1
