# generated using pymatgen
data_Gd2Al7N9
_symmetry_space_group_name_H-M   'P 1'
_cell_length_a   9.84391910
_cell_length_b   9.86681948
_cell_length_c   10.50193184
_cell_angle_alpha   89.50728678
_cell_angle_beta   89.71538352
_cell_angle_gamma   59.95418442
_symmetry_Int_Tables_number   1
_chemical_formula_structural   Gd2Al7N9
_chemical_formula_sum   'Gd8 Al28 N36'
_cell_volume   882.93386511
_cell_formula_units_Z   4
loop_
 _symmetry_equiv_pos_site_id
 _symmetry_equiv_pos_as_xyz
  1  'x, y, z'
loop_
 _atom_site_type_symbol
 _atom_site_label
 _atom_site_symmetry_multiplicity
 _atom_site_fract_x
 _atom_site_fract_y
 _atom_site_fract_z
 _atom_site_occupancy
  Al  Al0  1  0.11229405  0.09909239  0.28794128  1
  Al  Al1  1  0.22450367  0.20507724  0.05153663  1
  Al  Al2  1  0.77560118  0.08919623  0.81649800  1
  Al  Al3  1  0.43751298  0.09767911  0.27905585  1
  Al  Al4  1  0.55097704  0.21114117  0.04103991  1
  Al  Al5  1  0.11436989  0.09329727  0.81493774  1
  Al  Al6  1  0.88611481  0.20620705  0.03973634  1
  Al  Al7  1  0.44522958  0.09616650  0.81829976  1
  Al  Al8  1  0.11538792  0.42421199  0.29410202  1
  Al  Al9  1  0.22959417  0.53282430  0.05664747  1
  Al  Al10  1  0.77113388  0.43267749  0.80677650  1
  Al  Al11  1  0.89242223  0.54743736  0.60382911  1
  Al  Al12  1  0.43769974  0.42734344  0.29546360  1
  Al  Al13  1  0.55460284  0.52718098  0.05802267  1
  Al  Al14  1  0.11992690  0.42425390  0.80924016  1
  Al  Al15  1  0.22018705  0.54737684  0.54348622  1
  Al  Al16  1  0.77969268  0.42633067  0.30167522  1
  Al  Al17  1  0.44423017  0.42737020  0.81059374  1
  Al  Al18  1  0.54269081  0.54967560  0.54561133  1
  Al  Al19  1  0.11121514  0.75279173  0.30505932  1
  Al  Al20  1  0.21708475  0.87481630  0.06325143  1
  Al  Al21  1  0.77877487  0.77017738  0.80835097  1
  Al  Al22  1  0.90070407  0.85881213  0.54627135  1
  Al  Al23  1  0.44336044  0.75847688  0.29027838  1
  Al  Al24  1  0.55658587  0.88029590  0.05815942  1
  Al  Al25  1  0.22193643  0.86610355  0.53249322  1
  Al  Al26  1  0.77993313  0.75861408  0.29247556  1
  Al  Al27  1  0.88765382  0.87633240  0.04863096  1
  Gd  Gd28  1  0.89028277  0.20762588  0.57491277  1
  Gd  Gd29  1  0.21655719  0.20557609  0.55026933  1
  Gd  Gd30  1  0.77982853  0.09526313  0.28864811  1
  Gd  Gd31  1  0.55042622  0.21383882  0.56549368  1
  Gd  Gd32  1  0.88593757  0.53962711  0.06230747  1
  Gd  Gd33  1  0.10991687  0.76116129  0.79078225  1
  Gd  Gd34  1  0.44515008  0.76188562  0.80688639  1
  Gd  Gd35  1  0.57134640  0.86112357  0.53920167  1
  N  N36  1  0.22536254  0.20053217  0.33331140  1
  N  N37  1  0.10462270  0.10037397  0.10509906  1
  N  N38  1  0.88864092  0.21093428  0.84998186  1
  N  N39  1  0.79556122  0.05685799  0.63007142  1
  N  N40  1  0.52763374  0.21329857  0.34819718  1
  N  N41  1  0.44309616  0.09925161  0.09596066  1
  N  N42  1  0.21925684  0.20751505  0.86423771  1
  N  N43  1  0.13373574  0.05247294  0.63494228  1
  N  N44  1  0.90822835  0.21546896  0.36089388  1
  N  N45  1  0.77609302  0.09818447  0.07501873  1
  N  N46  1  0.55285770  0.20971489  0.85487175  1
  N  N47  1  0.44371226  0.08518770  0.64019826  1
  N  N48  1  0.22441610  0.53223997  0.35819461  1
  N  N49  1  0.13913376  0.41361676  0.11372466  1
  N  N50  1  0.89014173  0.53884413  0.84113919  1
  N  N51  1  0.74972739  0.47208953  0.62399568  1
  N  N52  1  0.55441879  0.53285685  0.35825002  1
  N  N53  1  0.44372795  0.42507617  0.11236877  1
  N  N54  1  0.23581504  0.51507825  0.87620065  1
  N  N55  1  0.11058788  0.45165677  0.62504070  1
  N  N56  1  0.88913637  0.53860128  0.33129682  1
  N  N57  1  0.76371623  0.40614219  0.11936240  1
  N  N58  1  0.56814395  0.51051163  0.87749604  1
  N  N59  1  0.42377496  0.46542548  0.62715989  1
  N  N60  1  0.21872076  0.87594192  0.34435540  1
  N  N61  1  0.10845803  0.75869515  0.11465838  1
  N  N62  1  0.87287496  0.87852763  0.87232050  1
  N  N63  1  0.80875189  0.75605242  0.62895849  1
  N  N64  1  0.55112930  0.87438641  0.32466944  1
  N  N65  1  0.44740691  0.75505501  0.10405511  1
  N  N66  1  0.20639490  0.89438155  0.88713457  1
  N  N67  1  0.11523610  0.76079346  0.57281221  1
  N  N68  1  0.89451898  0.84777749  0.36520295  1
  N  N69  1  0.76722148  0.79312279  0.11536382  1
  N  N70  1  0.57055438  0.88278102  0.87387984  1
  N  N71  1  0.42744420  0.75750654  0.58810420  1
