# generated using pymatgen
data_Gd2Al7N9
_symmetry_space_group_name_H-M   'P 1'
_cell_length_a   9.84309105
_cell_length_b   9.86619084
_cell_length_c   10.46640581
_cell_angle_alpha   89.55914644
_cell_angle_beta   89.82184757
_cell_angle_gamma   59.96041237
_symmetry_Int_Tables_number   1
_chemical_formula_structural   Gd2Al7N9
_chemical_formula_sum   'Gd8 Al28 N36'
_cell_volume   879.87872511
_cell_formula_units_Z   4
loop_
 _symmetry_equiv_pos_site_id
 _symmetry_equiv_pos_as_xyz
  1  'x, y, z'
loop_
 _atom_site_type_symbol
 _atom_site_label
 _atom_site_symmetry_multiplicity
 _atom_site_fract_x
 _atom_site_fract_y
 _atom_site_fract_z
 _atom_site_occupancy
  Al  Al0  1  0.11307097  0.09957898  0.28594352  1
  Al  Al1  1  0.22341901  0.20665060  0.04853070  1
  Al  Al2  1  0.77465434  0.08810307  0.81492545  1
  Al  Al3  1  0.43860084  0.09759400  0.27638520  1
  Al  Al4  1  0.55081136  0.21153740  0.03828931  1
  Al  Al5  1  0.11412598  0.09365912  0.81334826  1
  Al  Al6  1  0.88592721  0.20742604  0.03631486  1
  Al  Al7  1  0.44453489  0.09703788  0.81631057  1
  Al  Al8  1  0.11966083  0.42312993  0.29469593  1
  Al  Al9  1  0.22852577  0.53339475  0.05317843  1
  Al  Al10  1  0.77314697  0.43588533  0.79932259  1
  Al  Al11  1  0.89181653  0.54748292  0.55590317  1
  Al  Al12  1  0.43847035  0.42795676  0.29197183  1
  Al  Al13  1  0.55571873  0.52716155  0.05523968  1
  Al  Al14  1  0.11371519  0.42801134  0.80119081  1
  Al  Al15  1  0.22028348  0.54668053  0.54125765  1
  Al  Al16  1  0.77887932  0.42609602  0.30367705  1
  Al  Al17  1  0.44398035  0.42748144  0.80800465  1
  Al  Al18  1  0.54356060  0.54892799  0.54368818  1
  Al  Al19  1  0.11202176  0.75323761  0.30231318  1
  Al  Al20  1  0.21681160  0.87540040  0.06182289  1
  Al  Al21  1  0.78196018  0.76363372  0.80028032  1
  Al  Al22  1  0.90012814  0.85793484  0.54359699  1
  Al  Al23  1  0.44383132  0.75871611  0.28797623  1
  Al  Al24  1  0.55746193  0.87979770  0.05426574  1
  Al  Al25  1  0.22204267  0.86499892  0.53042981  1
  Al  Al26  1  0.77858496  0.76174505  0.29325285  1
  Al  Al27  1  0.88772947  0.87504185  0.04557063  1
  Gd  Gd28  1  0.89059147  0.20491938  0.57536908  1
  Gd  Gd29  1  0.21530170  0.20407041  0.54918666  1
  Gd  Gd30  1  0.78163274  0.09626449  0.28537425  1
  Gd  Gd31  1  0.55007297  0.21419265  0.56197764  1
  Gd  Gd32  1  0.88546632  0.53976897  0.05797238  1
  Gd  Gd33  1  0.10963087  0.76258590  0.78816602  1
  Gd  Gd34  1  0.44418655  0.76198956  0.80585059  1
  Gd  Gd35  1  0.56783756  0.86344399  0.53945538  1
  N  N36  1  0.22691039  0.20035459  0.33163686  1
  N  N37  1  0.10415013  0.10160094  0.10287869  1
  N  N38  1  0.88796107  0.21227286  0.84609857  1
  N  N39  1  0.79423232  0.05487515  0.62809784  1
  N  N40  1  0.52928512  0.21356253  0.34347855  1
  N  N41  1  0.44290878  0.09915218  0.09254875  1
  N  N42  1  0.21746569  0.20985532  0.86069379  1
  N  N43  1  0.13442247  0.04941247  0.63399362  1
  N  N44  1  0.91022348  0.21565703  0.36049682  1
  N  N45  1  0.77671087  0.09787453  0.07083043  1
  N  N46  1  0.55235099  0.21009125  0.85260920  1
  N  N47  1  0.44221270  0.08813089  0.63815857  1
  N  N48  1  0.22588103  0.53288629  0.35522959  1
  N  N49  1  0.13716044  0.41532948  0.11424423  1
  N  N50  1  0.88962364  0.53913681  0.84411799  1
  N  N51  1  0.75269343  0.47142069  0.61535507  1
  N  N52  1  0.55395138  0.53375376  0.35553982  1
  N  N53  1  0.44348666  0.42583271  0.10843019  1
  N  N54  1  0.23393194  0.51514921  0.87189897  1
  N  N55  1  0.10598153  0.45272848  0.61572621  1
  N  N56  1  0.88882546  0.54025846  0.35245564  1
  N  N57  1  0.76470316  0.40679377  0.12073680  1
  N  N58  1  0.57051116  0.50960305  0.87398752  1
  N  N59  1  0.42386931  0.46490666  0.62441688  1
  N  N60  1  0.21945140  0.87627090  0.34145415  1
  N  N61  1  0.10851900  0.75878558  0.11178212  1
  N  N62  1  0.87204836  0.87595996  0.86853715  1
  N  N63  1  0.81027773  0.74932138  0.61946645  1
  N  N64  1  0.55122210  0.87489011  0.32388627  1
  N  N65  1  0.44811613  0.75530156  0.10124346  1
  N  N66  1  0.20564584  0.89534204  0.88602466  1
  N  N67  1  0.11489691  0.76026930  0.56963544  1
  N  N68  1  0.89573300  0.84910695  0.36152228  1
  N  N69  1  0.76791973  0.79139067  0.11556738  1
  N  N70  1  0.57217790  0.88184038  0.86920147  1
  N  N71  1  0.42691857  0.75628242  0.58684125  1
