# generated using pymatgen
data_Gd2Al7N9
_symmetry_space_group_name_H-M   'P 1'
_cell_length_a   9.87043350
_cell_length_b   9.89146088
_cell_length_c   10.38320277
_cell_angle_alpha   89.92920826
_cell_angle_beta   90.10334716
_cell_angle_gamma   60.30724010
_symmetry_Int_Tables_number   1
_chemical_formula_structural   Gd2Al7N9
_chemical_formula_sum   'Gd8 Al28 N36'
_cell_volume   880.62876859
_cell_formula_units_Z   4
loop_
 _symmetry_equiv_pos_site_id
 _symmetry_equiv_pos_as_xyz
  1  'x, y, z'
loop_
 _atom_site_type_symbol
 _atom_site_label
 _atom_site_symmetry_multiplicity
 _atom_site_fract_x
 _atom_site_fract_y
 _atom_site_fract_z
 _atom_site_occupancy
  Al  Al0  1  0.11501741  0.09401464  0.38763696  1
  Al  Al1  1  0.22484789  0.20465086  0.15126075  1
  Al  Al2  1  0.78066076  0.08951031  0.92585422  1
  Al  Al3  1  0.43191362  0.11319758  0.37968803  1
  Al  Al4  1  0.54418641  0.21369113  0.13099869  1
  Al  Al5  1  0.10886156  0.09514846  0.91801255  1
  Al  Al6  1  0.88979765  0.20827776  0.15006499  1
  Al  Al7  1  0.44330503  0.08919282  0.92530934  1
  Al  Al8  1  0.10765440  0.43321931  0.39737527  1
  Al  Al9  1  0.22773230  0.53970001  0.15757193  1
  Al  Al10  1  0.77529785  0.41319798  0.90308047  1
  Al  Al11  1  0.89163913  0.54629986  0.64722097  1
  Al  Al12  1  0.43603082  0.43459325  0.39086616  1
  Al  Al13  1  0.55455505  0.53228775  0.15442624  1
  Al  Al14  1  0.12982869  0.41104915  0.90327348  1
  Al  Al15  1  0.22663458  0.53611928  0.63495282  1
  Al  Al16  1  0.77755581  0.43900085  0.39968287  1
  Al  Al17  1  0.45019967  0.41560559  0.91102452  1
  Al  Al18  1  0.55122119  0.53515472  0.64095830  1
  Al  Al19  1  0.11485675  0.75423514  0.40158230  1
  Al  Al20  1  0.21534746  0.87387319  0.15703581  1
  Al  Al21  1  0.76471622  0.78186970  0.89754230  1
  Al  Al22  1  0.89256118  0.86837843  0.64697182  1
  Al  Al23  1  0.44438588  0.75819923  0.34709529  1
  Al  Al24  1  0.55782745  0.87916681  0.15873623  1
  Al  Al25  1  0.21622953  0.86776657  0.64338776  1
  Al  Al26  1  0.79704518  0.74730773  0.40079886  1
  Al  Al27  1  0.89457413  0.86799438  0.15329813  1
  Gd  Gd28  1  0.89392134  0.20568166  0.65312422  1
  Gd  Gd29  1  0.22138005  0.20515011  0.64975072  1
  Gd  Gd30  1  0.76898647  0.09639600  0.37677581  1
  Gd  Gd31  1  0.55126681  0.21665415  0.67597485  1
  Gd  Gd32  1  0.88919336  0.54185446  0.13313058  1
  Gd  Gd33  1  0.10964610  0.74578499  0.88692831  1
  Gd  Gd34  1  0.44752205  0.75114151  0.88626233  1
  Gd  Gd35  1  0.55746307  0.86821447  0.61662765  1
  N  N36  1  0.21434009  0.21307569  0.33752811  1
  N  N37  1  0.11234931  0.09224385  0.10335781  1
  N  N38  1  0.89263183  0.19668865  0.87424528  1
  N  N39  1  0.78452516  0.07432343  0.59202539  1
  N  N40  1  0.51803153  0.23323876  0.31541300  1
  N  N41  1  0.43976983  0.08830784  0.10816825  1
  N  N42  1  0.22569267  0.19545065  0.87228554  1
  N  N43  1  0.12643371  0.06438026  0.56601813  1
  N  N44  1  0.89959754  0.22710904  0.33618222  1
  N  N45  1  0.78593050  0.08885309  0.11495902  1
  N  N46  1  0.55885027  0.19641516  0.90648698  1
  N  N47  1  0.44389924  0.11501775  0.55816674  1
  N  N48  1  0.21948256  0.54189427  0.34179154  1
  N  N49  1  0.14566830  0.41563406  0.08658404  1
  N  N50  1  0.89074455  0.53832956  0.85010504  1
  N  N51  1  0.76319543  0.46150890  0.58348983  1
  N  N52  1  0.55900764  0.53497969  0.33826229  1
  N  N53  1  0.43515954  0.44513960  0.09192742  1
  N  N54  1  0.25459123  0.48683018  0.81945372  1
  N  N55  1  0.09945118  0.45007179  0.58036978  1
  N  N56  1  0.89008165  0.53920927  0.34844187  1
  N  N57  1  0.75771487  0.41695717  0.08510344  1
  N  N58  1  0.57577251  0.48651267  0.82523675  1
  N  N59  1  0.43580066  0.44577894  0.57072405  1
  N  N60  1  0.21948455  0.86979878  0.34053069  1
  N  N61  1  0.11289605  0.75949796  0.10452295  1
  N  N62  1  0.86119242  0.89194240  0.83488466  1
  N  N63  1  0.81155279  0.74749452  0.58332959  1
  N  N64  1  0.56320839  0.87058713  0.34962259  1
  N  N65  1  0.44623250  0.76201678  0.12815739  1
  N  N66  1  0.19761848  0.90385433  0.83036650  1
  N  N67  1  0.11011942  0.75725848  0.59677738  1
  N  N68  1  0.90836109  0.83907455  0.33358993  1
  N  N69  1  0.76067390  0.79663155  0.08226020  1
  N  N70  1  0.55618742  0.89386032  0.84247412  1
  N  N71  1  0.42699820  0.74484653  0.62790527  1
