# generated using pymatgen
data_Gd2Al7N9
_symmetry_space_group_name_H-M   'P 1'
_cell_length_a   9.82203221
_cell_length_b   9.94720442
_cell_length_c   10.61460908
_cell_angle_alpha   89.45717521
_cell_angle_beta   89.41554809
_cell_angle_gamma   59.84038819
_symmetry_Int_Tables_number   1
_chemical_formula_structural   Gd2Al7N9
_chemical_formula_sum   'Gd8 Al28 N36'
_cell_volume   896.61953008
_cell_formula_units_Z   4
loop_
 _symmetry_equiv_pos_site_id
 _symmetry_equiv_pos_as_xyz
  1  'x, y, z'
loop_
 _atom_site_type_symbol
 _atom_site_label
 _atom_site_symmetry_multiplicity
 _atom_site_fract_x
 _atom_site_fract_y
 _atom_site_fract_z
 _atom_site_occupancy
  Al  Al0  1  0.11189078  0.10904112  0.30976869  1
  Al  Al1  1  0.22918558  0.20470654  0.06439489  1
  Al  Al2  1  0.76138546  0.09723906  0.89677697  1
  Al  Al3  1  0.43955810  0.09306156  0.30001413  1
  Al  Al4  1  0.54577018  0.21920137  0.13414191  1
  Al  Al5  1  0.11597628  0.08569537  0.82916854  1
  Al  Al6  1  0.89408296  0.20225562  0.05936576  1
  Al  Al7  1  0.43991425  0.08823887  0.82292922  1
  Al  Al8  1  0.12272869  0.42354079  0.29918013  1
  Al  Al9  1  0.23120992  0.53664235  0.06566039  1
  Al  Al10  1  0.77408953  0.41712878  0.87978628  1
  Al  Al11  1  0.88829495  0.55210781  0.65291755  1
  Al  Al12  1  0.44622050  0.43677937  0.37084947  1
  Al  Al13  1  0.56072148  0.52887655  0.13594164  1
  Al  Al14  1  0.12783915  0.41912416  0.82141872  1
  Al  Al15  1  0.21411479  0.54559976  0.54527372  1
  Al  Al16  1  0.78437160  0.45321939  0.39061806  1
  Al  Al17  1  0.45941489  0.40421599  0.88518957  1
  Al  Al18  1  0.54082410  0.54198731  0.62940179  1
  Al  Al19  1  0.11656173  0.74706750  0.31369820  1
  Al  Al20  1  0.21306961  0.88075307  0.08022991  1
  Al  Al21  1  0.77357204  0.78355738  0.82579066  1
  Al  Al22  1  0.90097155  0.84854959  0.54428496  1
  Al  Al23  1  0.44012282  0.76991057  0.29923168  1
  Al  Al24  1  0.55616538  0.88902452  0.06957124  1
  Al  Al25  1  0.21565566  0.86401818  0.55543092  1
  Al  Al26  1  0.77887233  0.76060623  0.30076290  1
  Al  Al27  1  0.89144535  0.87449541  0.07286180  1
  Gd  Gd28  1  0.86318541  0.21973932  0.61815409  1
  Gd  Gd29  1  0.19492668  0.20616596  0.56301035  1
  Gd  Gd30  1  0.80133926  0.09330473  0.33756075  1
  Gd  Gd31  1  0.54436938  0.20202174  0.60659641  1
  Gd  Gd32  1  0.89164614  0.54320164  0.08524783  1
  Gd  Gd33  1  0.10827984  0.76544306  0.79994748  1
  Gd  Gd34  1  0.45210668  0.74555021  0.85645971  1
  Gd  Gd35  1  0.56899737  0.83263830  0.56236547  1
  N  N36  1  0.22895334  0.20589411  0.35044245  1
  N  N37  1  0.10363346  0.10423474  0.12765293  1
  N  N38  1  0.89326591  0.19475975  0.87082298  1
  N  N39  1  0.78900045  0.06256353  0.55354141  1
  N  N40  1  0.53409382  0.22247074  0.31932578  1
  N  N41  1  0.44189824  0.09822052  0.11766613  1
  N  N42  1  0.21829065  0.20445950  0.87889434  1
  N  N43  1  0.11250912  0.05227636  0.65332271  1
  N  N44  1  0.91748549  0.23196805  0.39633254  1
  N  N45  1  0.77383869  0.10239307  0.09072510  1
  N  N46  1  0.55593125  0.19655198  0.83322039  1
  N  N47  1  0.42778095  0.06827303  0.64550249  1
  N  N48  1  0.22095252  0.53395383  0.36161633  1
  N  N49  1  0.15073952  0.41035538  0.12056806  1
  N  N50  1  0.88515636  0.53435969  0.84242542  1
  N  N51  1  0.74707675  0.50255346  0.56957925  1
  N  N52  1  0.56198592  0.53966888  0.31595321  1
  N  N53  1  0.45472217  0.42788535  0.07470512  1
  N  N54  1  0.23434521  0.51881391  0.88387146  1
  N  N55  1  0.11312495  0.44873125  0.64015734  1
  N  N56  1  0.89398107  0.53966402  0.31251914  1
  N  N57  1  0.75837778  0.41903842  0.05909918  1
  N  N58  1  0.58049850  0.48107138  0.80437223  1
  N  N59  1  0.43813192  0.45216899  0.54946372  1
  N  N60  1  0.21972662  0.87961394  0.36403692  1
  N  N61  1  0.11355673  0.75811884  0.12828571  1
  N  N62  1  0.87381522  0.88072651  0.89518350  1
  N  N63  1  0.80659603  0.76542020  0.65060283  1
  N  N64  1  0.55292592  0.87350871  0.34734025  1
  N  N65  1  0.44454102  0.76582450  0.11344898  1
  N  N66  1  0.20323136  0.89419837  0.90689785  1
  N  N67  1  0.11209191  0.75379640  0.58507796  1
  N  N68  1  0.90500813  0.83281865  0.36564288  1
  N  N69  1  0.76272647  0.79825636  0.12614695  1
  N  N70  1  0.56723152  0.88545220  0.88867520  1
  N  N71  1  0.40783689  0.75412384  0.64089640  1
