# generated using pymatgen
data_Gd2Al7N9
_symmetry_space_group_name_H-M   'P 1'
_cell_length_a   9.80533694
_cell_length_b   9.89233362
_cell_length_c   10.69242107
_cell_angle_alpha   89.65125302
_cell_angle_beta   89.44141913
_cell_angle_gamma   60.01975504
_symmetry_Int_Tables_number   1
_chemical_formula_structural   Gd2Al7N9
_chemical_formula_sum   'Gd8 Al28 N36'
_cell_volume   898.32464251
_cell_formula_units_Z   4
loop_
 _symmetry_equiv_pos_site_id
 _symmetry_equiv_pos_as_xyz
  1  'x, y, z'
loop_
 _atom_site_type_symbol
 _atom_site_label
 _atom_site_symmetry_multiplicity
 _atom_site_fract_x
 _atom_site_fract_y
 _atom_site_fract_z
 _atom_site_occupancy
  Al  Al0  1  0.11136722  0.10763130  0.30944334  1
  Al  Al1  1  0.22817761  0.20400629  0.06457812  1
  Al  Al2  1  0.76522400  0.09373878  0.90190747  1
  Al  Al3  1  0.43842981  0.09527718  0.29635944  1
  Al  Al4  1  0.54517612  0.21881270  0.12777102  1
  Al  Al5  1  0.11675515  0.08463472  0.82771000  1
  Al  Al6  1  0.89558339  0.20160819  0.05983973  1
  Al  Al7  1  0.43948381  0.08607944  0.83044019  1
  Al  Al8  1  0.12210514  0.42354070  0.29814681  1
  Al  Al9  1  0.22901329  0.53844067  0.06535923  1
  Al  Al10  1  0.77456202  0.41382208  0.87771974  1
  Al  Al11  1  0.88804424  0.55180305  0.65117673  1
  Al  Al12  1  0.44491966  0.43525474  0.37033151  1
  Al  Al13  1  0.56035072  0.52923638  0.13510553  1
  Al  Al14  1  0.12664518  0.41817509  0.82028202  1
  Al  Al15  1  0.21301049  0.54676737  0.54330202  1
  Al  Al16  1  0.78251854  0.45369705  0.38776131  1
  Al  Al17  1  0.45819519  0.40562412  0.89187360  1
  Al  Al18  1  0.54161028  0.54285864  0.62608286  1
  Al  Al19  1  0.11519206  0.74904696  0.31407615  1
  Al  Al20  1  0.21336980  0.88006080  0.07840172  1
  Al  Al21  1  0.77391278  0.78039684  0.82573925  1
  Al  Al22  1  0.89955838  0.85183962  0.54456355  1
  Al  Al23  1  0.44003704  0.76976724  0.29895115  1
  Al  Al24  1  0.55589112  0.88604010  0.06933441  1
  Al  Al25  1  0.21820646  0.86362991  0.55493574  1
  Al  Al26  1  0.77772094  0.76086749  0.30034003  1
  Al  Al27  1  0.89202285  0.87313529  0.07420268  1
  Gd  Gd28  1  0.87000648  0.22025684  0.61150214  1
  Gd  Gd29  1  0.20597933  0.20459812  0.56173196  1
  Gd  Gd30  1  0.79164283  0.09701481  0.33938531  1
  Gd  Gd31  1  0.54948149  0.21357148  0.63443736  1
  Gd  Gd32  1  0.89206615  0.54267432  0.08443747  1
  Gd  Gd33  1  0.10617085  0.76420016  0.79860058  1
  Gd  Gd34  1  0.45248613  0.74116629  0.85459202  1
  Gd  Gd35  1  0.56989000  0.83962692  0.56260114  1
  N  N36  1  0.22837470  0.20572081  0.34925902  1
  N  N37  1  0.10428948  0.10330776  0.12758654  1
  N  N38  1  0.89522556  0.19148676  0.87082964  1
  N  N39  1  0.78339382  0.06726645  0.55614160  1
  N  N40  1  0.52918383  0.22746502  0.30859945  1
  N  N41  1  0.44083071  0.09619053  0.11505040  1
  N  N42  1  0.21704060  0.20403462  0.88021390  1
  N  N43  1  0.11833950  0.05409567  0.65132337  1
  N  N44  1  0.91530434  0.23120542  0.39310740  1
  N  N45  1  0.77643163  0.10081338  0.09148524  1
  N  N46  1  0.55502082  0.19369546  0.85254149  1
  N  N47  1  0.43487361  0.07487324  0.65142424  1
  N  N48  1  0.21874752  0.53543439  0.36177941  1
  N  N49  1  0.15093298  0.41023119  0.12088196  1
  N  N50  1  0.88430916  0.53258105  0.83974319  1
  N  N51  1  0.74700840  0.50305619  0.56626710  1
  N  N52  1  0.56162773  0.53854009  0.31385642  1
  N  N53  1  0.45311447  0.43103277  0.07162036  1
  N  N54  1  0.23263135  0.51889685  0.88409453  1
  N  N55  1  0.11282717  0.44887707  0.63983546  1
  N  N56  1  0.89314541  0.53909600  0.30976999  1
  N  N57  1  0.75720002  0.41919696  0.05602922  1
  N  N58  1  0.58129446  0.47402510  0.79947392  1
  N  N59  1  0.43722211  0.45248559  0.54707463  1
  N  N60  1  0.22060136  0.87866168  0.36446428  1
  N  N61  1  0.11299477  0.75838637  0.12916670  1
  N  N62  1  0.87466851  0.87661730  0.89741186  1
  N  N63  1  0.80788881  0.76570290  0.65142621  1
  N  N64  1  0.55210024  0.87507701  0.34750434  1
  N  N65  1  0.44382063  0.76520319  0.11346207  1
  N  N66  1  0.20385063  0.89202502  0.90541505  1
  N  N67  1  0.11129466  0.75591978  0.58471226  1
  N  N68  1  0.90293608  0.83463578  0.36683248  1
  N  N69  1  0.76178014  0.79801372  0.12705313  1
  N  N70  1  0.56801780  0.88037615  0.88939985  1
  N  N71  1  0.41081273  0.75576874  0.64015683  1
