# generated using pymatgen
data_Gd2Al7N9
_symmetry_space_group_name_H-M   'P 1'
_cell_length_a   9.91099468
_cell_length_b   9.92648955
_cell_length_c   10.50351293
_cell_angle_alpha   88.67527199
_cell_angle_beta   89.81363400
_cell_angle_gamma   59.97477850
_symmetry_Int_Tables_number   1
_chemical_formula_structural   Gd2Al7N9
_chemical_formula_sum   'Gd8 Al28 N36'
_cell_volume   894.39955330
_cell_formula_units_Z   4
loop_
 _symmetry_equiv_pos_site_id
 _symmetry_equiv_pos_as_xyz
  1  'x, y, z'
loop_
 _atom_site_type_symbol
 _atom_site_label
 _atom_site_symmetry_multiplicity
 _atom_site_fract_x
 _atom_site_fract_y
 _atom_site_fract_z
 _atom_site_occupancy
  Al  Al0  1  0.11050630  0.10055284  0.38765813  1
  Al  Al1  1  0.21991955  0.21333777  0.15653768  1
  Al  Al2  1  0.78091885  0.09575329  0.93964321  1
  Al  Al3  1  0.42736203  0.11586854  0.38092947  1
  Al  Al4  1  0.53891115  0.21847223  0.13032915  1
  Al  Al5  1  0.10493028  0.10934828  0.93156868  1
  Al  Al6  1  0.88604213  0.21837183  0.16023062  1
  Al  Al7  1  0.44348741  0.09132191  0.92700902  1
  Al  Al8  1  0.10060489  0.43500005  0.39781172  1
  Al  Al9  1  0.22732764  0.53829790  0.15844141  1
  Al  Al10  1  0.77600171  0.40876358  0.90377316  1
  Al  Al11  1  0.89952454  0.53468194  0.65733019  1
  Al  Al12  1  0.43488398  0.43078403  0.39405942  1
  Al  Al13  1  0.55255623  0.53051727  0.15263681  1
  Al  Al14  1  0.13349281  0.40938113  0.90146683  1
  Al  Al15  1  0.23084547  0.52652948  0.63655302  1
  Al  Al16  1  0.77376027  0.44648020  0.39925055  1
  Al  Al17  1  0.44892359  0.41776883  0.90871940  1
  Al  Al18  1  0.54835763  0.53027956  0.64647937  1
  Al  Al19  1  0.11879591  0.74390295  0.38606413  1
  Al  Al20  1  0.21693757  0.87883534  0.10441045  1
  Al  Al21  1  0.77065135  0.79208980  0.82516269  1
  Al  Al22  1  0.90886814  0.85419894  0.59194964  1
  Al  Al23  1  0.43615548  0.75575066  0.32365813  1
  Al  Al24  1  0.54348439  0.88904719  0.16077977  1
  Al  Al25  1  0.23130803  0.85187013  0.56502873  1
  Al  Al26  1  0.78080542  0.75601088  0.32605350  1
  Al  Al27  1  0.89378820  0.87915106  0.15566909  1
  Gd  Gd28  1  0.89210958  0.20651759  0.65349641  1
  Gd  Gd29  1  0.23410356  0.18992355  0.65153580  1
  Gd  Gd30  1  0.76021693  0.10791844  0.37673799  1
  Gd  Gd31  1  0.56445559  0.18818382  0.68261438  1
  Gd  Gd32  1  0.88478422  0.54912450  0.10701834  1
  Gd  Gd33  1  0.11102848  0.74955762  0.89130795  1
  Gd  Gd34  1  0.45710710  0.75544544  0.86844276  1
  Gd  Gd35  1  0.57209579  0.83964458  0.58018504  1
  N  N36  1  0.21171565  0.21625217  0.34060559  1
  N  N37  1  0.10320082  0.11042108  0.11656854  1
  N  N38  1  0.89607648  0.19492256  0.87399997  1
  N  N39  1  0.79332842  0.06726119  0.59118868  1
  N  N40  1  0.51096427  0.23487934  0.31330575  1
  N  N41  1  0.43270821  0.09461342  0.10768810  1
  N  N42  1  0.22582831  0.19675171  0.87125378  1
  N  N43  1  0.12345263  0.06786508  0.56911273  1
  N  N44  1  0.89482726  0.23347620  0.34354775  1
  N  N45  1  0.78286841  0.10009204  0.12646506  1
  N  N46  1  0.55879964  0.19966617  0.91382924  1
  N  N47  1  0.45692481  0.09618901  0.55580177  1
  N  N48  1  0.22013371  0.53406582  0.34055868  1
  N  N49  1  0.14564345  0.41949576  0.08427246  1
  N  N50  1  0.89557856  0.52397449  0.85592873  1
  N  N51  1  0.75719909  0.47301311  0.58265826  1
  N  N52  1  0.55573430  0.53174032  0.33663957  1
  N  N53  1  0.43120723  0.44975565  0.08890533  1
  N  N54  1  0.25264408  0.48899753  0.81880301  1
  N  N55  1  0.10036284  0.44219500  0.58095833  1
  N  N56  1  0.88769526  0.54065242  0.33819511  1
  N  N57  1  0.75348261  0.42027906  0.08444695  1
  N  N58  1  0.57921342  0.48263823  0.82630251  1
  N  N59  1  0.44381492  0.43138712  0.57475079  1
  N  N60  1  0.22543093  0.86382039  0.37268826  1
  N  N61  1  0.10935394  0.76021494  0.11972345  1
  N  N62  1  0.86411855  0.89745315  0.87993618  1
  N  N63  1  0.81712711  0.74709252  0.65118129  1
  N  N64  1  0.54873726  0.87137375  0.35017569  1
  N  N65  1  0.44406597  0.76390687  0.13636759  1
  N  N66  1  0.21371221  0.89663345  0.92155306  1
  N  N67  1  0.12296728  0.74181678  0.58127902  1
  N  N68  1  0.90287369  0.84719762  0.35698082  1
  N  N69  1  0.75657677  0.80191201  0.14561251  1
  N  N70  1  0.55409174  0.91075582  0.82991144  1
  N  N71  1  0.41958670  0.74700924  0.64820973  1
