# generated using pymatgen
data_Gd2Al7N9
_symmetry_space_group_name_H-M   'P 1'
_cell_length_a   9.84817839
_cell_length_b   9.89103588
_cell_length_c   10.57695749
_cell_angle_alpha   88.95286561
_cell_angle_beta   89.57556649
_cell_angle_gamma   60.10601303
_symmetry_Int_Tables_number   1
_chemical_formula_structural   Gd2Al7N9
_chemical_formula_sum   'Gd8 Al28 N36'
_cell_volume   893.05591931
_cell_formula_units_Z   4
loop_
 _symmetry_equiv_pos_site_id
 _symmetry_equiv_pos_as_xyz
  1  'x, y, z'
loop_
 _atom_site_type_symbol
 _atom_site_label
 _atom_site_symmetry_multiplicity
 _atom_site_fract_x
 _atom_site_fract_y
 _atom_site_fract_z
 _atom_site_occupancy
  Al  Al0  1  0.11394773  0.10043190  0.29399614  1
  Al  Al1  1  0.22769991  0.20195706  0.05203284  1
  Al  Al2  1  0.76640647  0.10138010  0.88098267  1
  Al  Al3  1  0.44015687  0.09326421  0.27969061  1
  Al  Al4  1  0.54088223  0.21728086  0.05724979  1
  Al  Al5  1  0.11328551  0.09004850  0.81798184  1
  Al  Al6  1  0.89705817  0.20117283  0.04911193  1
  Al  Al7  1  0.44513384  0.09732328  0.81793612  1
  Al  Al8  1  0.12512272  0.41804737  0.29239020  1
  Al  Al9  1  0.23306172  0.53315756  0.05389339  1
  Al  Al10  1  0.77034421  0.42734663  0.86970098  1
  Al  Al11  1  0.88925654  0.54747364  0.64462626  1
  Al  Al12  1  0.44175821  0.42906576  0.29264894  1
  Al  Al13  1  0.54734880  0.53735284  0.05115482  1
  Al  Al14  1  0.12629709  0.42028520  0.81265052  1
  Al  Al15  1  0.21908578  0.54484722  0.54609814  1
  Al  Al16  1  0.78833157  0.43970244  0.36910394  1
  Al  Al17  1  0.44146843  0.42957902  0.80664014  1
  Al  Al18  1  0.53884879  0.55343917  0.54415982  1
  Al  Al19  1  0.11777092  0.74426966  0.30271568  1
  Al  Al20  1  0.21991790  0.87255420  0.06592693  1
  Al  Al21  1  0.77332413  0.78243809  0.81436954  1
  Al  Al22  1  0.90389865  0.84810755  0.53229826  1
  Al  Al23  1  0.44548510  0.75733680  0.29225374  1
  Al  Al24  1  0.55524998  0.87999645  0.05707589  1
  Al  Al25  1  0.21764668  0.86542296  0.53130092  1
  Al  Al26  1  0.78082227  0.75636483  0.28589885  1
  Al  Al27  1  0.89210111  0.87248343  0.05732244  1
  Gd  Gd28  1  0.87390891  0.20760663  0.59640076  1
  Gd  Gd29  1  0.20460195  0.20294265  0.55613894  1
  Gd  Gd30  1  0.79073551  0.09030348  0.31168539  1
  Gd  Gd31  1  0.53004497  0.21778888  0.54870300  1
  Gd  Gd32  1  0.89602577  0.53951124  0.07387244  1
  Gd  Gd33  1  0.10292293  0.76743369  0.78914076  1
  Gd  Gd34  1  0.43699670  0.77381757  0.79925259  1
  Gd  Gd35  1  0.58077730  0.85394885  0.54012157  1
  N  N36  1  0.23098766  0.19707218  0.33989560  1
  N  N37  1  0.10805626  0.09848982  0.11091453  1
  N  N38  1  0.88826545  0.20412891  0.85142251  1
  N  N39  1  0.77897590  0.06202692  0.54389642  1
  N  N40  1  0.52962140  0.21382099  0.33147278  1
  N  N41  1  0.44227626  0.09531663  0.09895337  1
  N  N42  1  0.21831799  0.20509292  0.86653959  1
  N  N43  1  0.12510716  0.04477172  0.64127658  1
  N  N44  1  0.91533667  0.22075596  0.37230596  1
  N  N45  1  0.77696723  0.10018774  0.07450335  1
  N  N46  1  0.54614694  0.21472067  0.86588517  1
  N  N47  1  0.43923336  0.07875307  0.64140003  1
  N  N48  1  0.23116881  0.52623693  0.36055403  1
  N  N49  1  0.15331619  0.40587294  0.11297538  1
  N  N50  1  0.88733837  0.53747830  0.83581335  1
  N  N51  1  0.75701484  0.48081224  0.57465543  1
  N  N52  1  0.55475061  0.53402534  0.35660905  1
  N  N53  1  0.44434497  0.43187384  0.11191584  1
  N  N54  1  0.23320341  0.51950319  0.87481062  1
  N  N55  1  0.11199540  0.44762007  0.63118785  1
  N  N56  1  0.89599683  0.53519273  0.30458837  1
  N  N57  1  0.76682331  0.41317805  0.05711128  1
  N  N58  1  0.55121898  0.52542072  0.86823925  1
  N  N59  1  0.42699097  0.46203584  0.62509097  1
  N  N60  1  0.21793215  0.87490886  0.34418615  1
  N  N61  1  0.11272035  0.75420569  0.11478551  1
  N  N62  1  0.87065027  0.88555114  0.87909608  1
  N  N63  1  0.81452800  0.75930395  0.63946408  1
  N  N64  1  0.55618606  0.87052206  0.32647866  1
  N  N65  1  0.44716524  0.75678098  0.10661322  1
  N  N66  1  0.20458184  0.89346111  0.89166105  1
  N  N67  1  0.11432027  0.75713405  0.57259675  1
  N  N68  1  0.90638596  0.82901706  0.35366203  1
  N  N69  1  0.76395821  0.79546820  0.11102712  1
  N  N70  1  0.56733088  0.88586092  0.87589533  1
  N  N71  1  0.42441151  0.76068380  0.58344751  1
