# generated using pymatgen
data_Gd2Al7N9
_symmetry_space_group_name_H-M   'P 1'
_cell_length_a   9.88212196
_cell_length_b   9.89906395
_cell_length_c   10.56410577
_cell_angle_alpha   89.64669871
_cell_angle_beta   90.19898539
_cell_angle_gamma   60.18781644
_symmetry_Int_Tables_number   1
_chemical_formula_structural   Gd2Al7N9
_chemical_formula_sum   'Gd8 Al28 N36'
_cell_volume   896.61488665
_cell_formula_units_Z   4
loop_
 _symmetry_equiv_pos_site_id
 _symmetry_equiv_pos_as_xyz
  1  'x, y, z'
loop_
 _atom_site_type_symbol
 _atom_site_label
 _atom_site_symmetry_multiplicity
 _atom_site_fract_x
 _atom_site_fract_y
 _atom_site_fract_z
 _atom_site_occupancy
  Al  Al0  1  0.11110490  0.10049194  0.33492746  1
  Al  Al1  1  0.22429058  0.21247799  0.15396230  1
  Al  Al2  1  0.77272798  0.10415485  0.93560110  1
  Al  Al3  1  0.42993595  0.11201432  0.38544492  1
  Al  Al4  1  0.53899195  0.21911465  0.13963053  1
  Al  Al5  1  0.11355863  0.09078805  0.86754259  1
  Al  Al6  1  0.88064904  0.21921016  0.15831679  1
  Al  Al7  1  0.44644776  0.08988696  0.92452821  1
  Al  Al8  1  0.10043915  0.44045481  0.39656064  1
  Al  Al9  1  0.22887974  0.53634743  0.15476792  1
  Al  Al10  1  0.77888804  0.40601166  0.90302175  1
  Al  Al11  1  0.90058252  0.53970675  0.66074457  1
  Al  Al12  1  0.43500291  0.43344116  0.39367156  1
  Al  Al13  1  0.55062821  0.53288636  0.15390059  1
  Al  Al14  1  0.13273711  0.41013561  0.90322053  1
  Al  Al15  1  0.23137671  0.52934350  0.63403656  1
  Al  Al16  1  0.77161812  0.45033108  0.39951810  1
  Al  Al17  1  0.44815931  0.41694592  0.90723907  1
  Al  Al18  1  0.54895862  0.53308227  0.64596587  1
  Al  Al19  1  0.11249175  0.75603418  0.33670674  1
  Al  Al20  1  0.21028328  0.88351543  0.09921367  1
  Al  Al21  1  0.77315852  0.78924461  0.83692162  1
  Al  Al22  1  0.91535770  0.84247964  0.57070795  1
  Al  Al23  1  0.43217811  0.76157340  0.32757161  1
  Al  Al24  1  0.54320230  0.88927465  0.16277889  1
  Al  Al25  1  0.22649494  0.85682164  0.57574648  1
  Al  Al26  1  0.78472068  0.75523027  0.32701958  1
  Al  Al27  1  0.88582618  0.87870264  0.10023282  1
  Gd  Gd28  1  0.88144275  0.21480002  0.64535168  1
  Gd  Gd29  1  0.23198350  0.20072801  0.64834842  1
  Gd  Gd30  1  0.76844059  0.09359727  0.37163307  1
  Gd  Gd31  1  0.56500065  0.19253502  0.67248512  1
  Gd  Gd32  1  0.88585455  0.54618719  0.11038691  1
  Gd  Gd33  1  0.10083484  0.76862821  0.83222247  1
  Gd  Gd34  1  0.45803158  0.75053665  0.87003611  1
  Gd  Gd35  1  0.58084323  0.83331843  0.58600052  1
  N  N36  1  0.21487721  0.21868617  0.34260763  1
  N  N37  1  0.10671506  0.10077776  0.14853951  1
  N  N38  1  0.89354377  0.19140715  0.86961402  1
  N  N39  1  0.79653169  0.06157401  0.58814501  1
  N  N40  1  0.51515094  0.23145842  0.32017628  1
  N  N41  1  0.43696193  0.09482841  0.10556585  1
  N  N42  1  0.22957626  0.19544818  0.86909893  1
  N  N43  1  0.12763452  0.05294843  0.65130312  1
  N  N44  1  0.89058220  0.23387268  0.34834375  1
  N  N45  1  0.77553183  0.10441142  0.12338276  1
  N  N46  1  0.55800822  0.19893984  0.89777581  1
  N  N47  1  0.45750791  0.08903333  0.55842622  1
  N  N48  1  0.22282753  0.53515525  0.33715192  1
  N  N49  1  0.14600350  0.41697001  0.08421601  1
  N  N50  1  0.89845754  0.51844652  0.85791392  1
  N  N51  1  0.75393058  0.48649910  0.58059108  1
  N  N52  1  0.55299507  0.53651157  0.33663553  1
  N  N53  1  0.43432149  0.44423302  0.08881566  1
  N  N54  1  0.24786963  0.49603364  0.82279765  1
  N  N55  1  0.09671390  0.45153183  0.57749858  1
  N  N56  1  0.88838962  0.53842282  0.33473477  1
  N  N57  1  0.75250832  0.41942937  0.08346370  1
  N  N58  1  0.58150911  0.48018820  0.82503462  1
  N  N59  1  0.44271424  0.43492438  0.57300330  1
  N  N60  1  0.21849787  0.87573604  0.38699517  1
  N  N61  1  0.10442260  0.76915453  0.14935783  1
  N  N62  1  0.86638812  0.88496279  0.92229668  1
  N  N63  1  0.82506847  0.75191505  0.66701484  1
  N  N64  1  0.54906592  0.87268535  0.35139987  1
  N  N65  1  0.43830818  0.76653087  0.13964400  1
  N  N66  1  0.21026347  0.89042922  0.92459873  1
  N  N67  1  0.12426953  0.74718588  0.61545867  1
  N  N68  1  0.90752024  0.82988288  0.39274207  1
  N  N69  1  0.75810890  0.80096028  0.15216962  1
  N  N70  1  0.55964895  0.90051627  0.84031014  1
  N  N71  1  0.42323759  0.74697372  0.65038532  1
