# generated using pymatgen
data_Gd2Al7N9
_symmetry_space_group_name_H-M   'P 1'
_cell_length_a   9.86357555
_cell_length_b   9.90151915
_cell_length_c   10.58199647
_cell_angle_alpha   89.01776348
_cell_angle_beta   89.53590370
_cell_angle_gamma   59.99500854
_symmetry_Int_Tables_number   1
_chemical_formula_structural   Gd2Al7N9
_chemical_formula_sum   'Gd8 Al28 N36'
_cell_volume   894.84686231
_cell_formula_units_Z   4
loop_
 _symmetry_equiv_pos_site_id
 _symmetry_equiv_pos_as_xyz
  1  'x, y, z'
loop_
 _atom_site_type_symbol
 _atom_site_label
 _atom_site_symmetry_multiplicity
 _atom_site_fract_x
 _atom_site_fract_y
 _atom_site_fract_z
 _atom_site_occupancy
  Al  Al0  1  0.11283887  0.10434832  0.29573502  1
  Al  Al1  1  0.22828305  0.20244880  0.05220970  1
  Al  Al2  1  0.76796462  0.09937681  0.88087553  1
  Al  Al3  1  0.44142354  0.09429093  0.28028763  1
  Al  Al4  1  0.54184990  0.21707395  0.05560984  1
  Al  Al5  1  0.11300986  0.08920538  0.81915232  1
  Al  Al6  1  0.89735663  0.20060703  0.04824021  1
  Al  Al7  1  0.44585156  0.09472562  0.81783938  1
  Al  Al8  1  0.12471101  0.41935316  0.29108780  1
  Al  Al9  1  0.23462746  0.53322125  0.05135790  1
  Al  Al10  1  0.76619766  0.42783266  0.87381101  1
  Al  Al11  1  0.88883344  0.54781343  0.64187765  1
  Al  Al12  1  0.43862357  0.42740548  0.29361626  1
  Al  Al13  1  0.55639519  0.53629190  0.10396838  1
  Al  Al14  1  0.12547639  0.41878880  0.81116275  1
  Al  Al15  1  0.21712571  0.54210442  0.54301011  1
  Al  Al16  1  0.78780233  0.44680830  0.37514566  1
  Al  Al17  1  0.44347259  0.42506805  0.80284343  1
  Al  Al18  1  0.53799461  0.55090690  0.56762500  1
  Al  Al19  1  0.11688230  0.74567887  0.30297771  1
  Al  Al20  1  0.21797719  0.87438491  0.06711207  1
  Al  Al21  1  0.77460727  0.78071261  0.81428999  1
  Al  Al22  1  0.90269427  0.84946666  0.53248641  1
  Al  Al23  1  0.44151459  0.76462505  0.29350365  1
  Al  Al24  1  0.55673813  0.88204342  0.05742344  1
  Al  Al25  1  0.21377284  0.86545081  0.53328376  1
  Al  Al26  1  0.78117328  0.75885766  0.28654388  1
  Al  Al27  1  0.89295875  0.87257670  0.05823499  1
  Gd  Gd28  1  0.87028872  0.21347193  0.60105774  1
  Gd  Gd29  1  0.20472752  0.19895504  0.55548456  1
  Gd  Gd30  1  0.79340857  0.09541623  0.31354808  1
  Gd  Gd31  1  0.53259273  0.20803211  0.54902839  1
  Gd  Gd32  1  0.89660483  0.54013494  0.07442665  1
  Gd  Gd33  1  0.10407651  0.76692530  0.78840580  1
  Gd  Gd34  1  0.43803714  0.77244587  0.80785285  1
  Gd  Gd35  1  0.57995910  0.84509850  0.54189669  1
  N  N36  1  0.23201354  0.19899094  0.33937872  1
  N  N37  1  0.10681421  0.10068699  0.11284772  1
  N  N38  1  0.88965122  0.20308854  0.85465866  1
  N  N39  1  0.78354472  0.06375766  0.54654434  1
  N  N40  1  0.53203042  0.21311582  0.33287368  1
  N  N41  1  0.44286158  0.09658285  0.09977898  1
  N  N42  1  0.21910924  0.20351885  0.86678701  1
  N  N43  1  0.12042479  0.04537567  0.64244961  1
  N  N44  1  0.91727606  0.22531570  0.37810653  1
  N  N45  1  0.77734074  0.10028994  0.07514972  1
  N  N46  1  0.54742097  0.21164781  0.86493560  1
  N  N47  1  0.43920094  0.07145091  0.64206926  1
  N  N48  1  0.22886874  0.52771114  0.35869839  1
  N  N49  1  0.15352973  0.40712821  0.11124773  1
  N  N50  1  0.88656228  0.53461747  0.83331003  1
  N  N51  1  0.75345332  0.49209934  0.55696681  1
  N  N52  1  0.55754747  0.53616489  0.32717151  1
  N  N53  1  0.44396839  0.43021973  0.11116010  1
  N  N54  1  0.23433218  0.51775405  0.87195390  1
  N  N55  1  0.11078489  0.44437109  0.62888504  1
  N  N56  1  0.89710538  0.53738281  0.30269817  1
  N  N57  1  0.76384254  0.41481613  0.05633116  1
  N  N58  1  0.56141749  0.51831019  0.83203544  1
  N  N59  1  0.42429066  0.45289563  0.61808671  1
  N  N60  1  0.21639873  0.87808209  0.34637612  1
  N  N61  1  0.11367814  0.75426044  0.11561679  1
  N  N62  1  0.87236591  0.88306067  0.87985164  1
  N  N63  1  0.81367354  0.75976562  0.63892753  1
  N  N64  1  0.55581883  0.87269478  0.32901232  1
  N  N65  1  0.44531446  0.76322945  0.10726877  1
  N  N66  1  0.20126209  0.89396180  0.89388930  1
  N  N67  1  0.11340929  0.75421004  0.57174977  1
  N  N68  1  0.90481739  0.83389949  0.35334187  1
  N  N69  1  0.76470229  0.79584756  0.11189798  1
  N  N70  1  0.57016376  0.88525166  0.87773625  1
  N  N71  1  0.41856459  0.75893336  0.58930250  1
