# generated using pymatgen
data_Gd2Al7N9
_symmetry_space_group_name_H-M   'P 1'
_cell_length_a   9.87140996
_cell_length_b   9.92362794
_cell_length_c   10.37415264
_cell_angle_alpha   89.87741941
_cell_angle_beta   90.13909946
_cell_angle_gamma   60.23879876
_symmetry_Int_Tables_number   1
_chemical_formula_structural   Gd2Al7N9
_chemical_formula_sum   'Gd8 Al28 N36'
_cell_volume   882.20282320
_cell_formula_units_Z   4
loop_
 _symmetry_equiv_pos_site_id
 _symmetry_equiv_pos_as_xyz
  1  'x, y, z'
loop_
 _atom_site_type_symbol
 _atom_site_label
 _atom_site_symmetry_multiplicity
 _atom_site_fract_x
 _atom_site_fract_y
 _atom_site_fract_z
 _atom_site_occupancy
  Al  Al0  1  0.11565199  0.09267472  0.38640966  1
  Al  Al1  1  0.22372079  0.20721446  0.15308948  1
  Al  Al2  1  0.78417927  0.08968917  0.92572716  1
  Al  Al3  1  0.43151451  0.11462990  0.37943390  1
  Al  Al4  1  0.54457820  0.21334831  0.12841636  1
  Al  Al5  1  0.10967401  0.09701239  0.92236645  1
  Al  Al6  1  0.88892668  0.21036569  0.15399572  1
  Al  Al7  1  0.44268034  0.08950779  0.92440093  1
  Al  Al8  1  0.10559584  0.43400211  0.39769925  1
  Al  Al9  1  0.22724034  0.53864600  0.15780743  1
  Al  Al10  1  0.77769924  0.41019756  0.90285836  1
  Al  Al11  1  0.89004592  0.54842549  0.64858473  1
  Al  Al12  1  0.43585332  0.43458189  0.39058927  1
  Al  Al13  1  0.55577762  0.52917315  0.15296050  1
  Al  Al14  1  0.12985292  0.41116590  0.90220099  1
  Al  Al15  1  0.22700850  0.53487974  0.63427146  1
  Al  Al16  1  0.77491255  0.44172148  0.40014397  1
  Al  Al17  1  0.45130205  0.41382746  0.91067755  1
  Al  Al18  1  0.55131369  0.53219260  0.64455892  1
  Al  Al19  1  0.11382532  0.75381806  0.39642190  1
  Al  Al20  1  0.21170341  0.87619834  0.15051277  1
  Al  Al21  1  0.76346001  0.78689301  0.89468702  1
  Al  Al22  1  0.89249109  0.86930003  0.64675690  1
  Al  Al23  1  0.44344509  0.75885541  0.32944024  1
  Al  Al24  1  0.55832439  0.88193971  0.15741487  1
  Al  Al25  1  0.21731901  0.86290075  0.63940892  1
  Al  Al26  1  0.79606205  0.74742357  0.40068589  1
  Al  Al27  1  0.89266723  0.86939703  0.15306836  1
  Gd  Gd28  1  0.89541404  0.20754075  0.65050897  1
  Gd  Gd29  1  0.22296429  0.20478099  0.64881785  1
  Gd  Gd30  1  0.76738962  0.09652789  0.37743639  1
  Gd  Gd31  1  0.55322625  0.21401931  0.67800359  1
  Gd  Gd32  1  0.88747453  0.54476956  0.13071642  1
  Gd  Gd33  1  0.11185821  0.74232791  0.88976702  1
  Gd  Gd34  1  0.45463121  0.74749938  0.88384939  1
  Gd  Gd35  1  0.55338587  0.86530864  0.61060099  1
  N  N36  1  0.21344720  0.21427947  0.33938507  1
  N  N37  1  0.10961604  0.09788009  0.10770843  1
  N  N38  1  0.89596349  0.19580117  0.87193171  1
  N  N39  1  0.78647402  0.07562844  0.59277391  1
  N  N40  1  0.51716314  0.23401289  0.31371604  1
  N  N41  1  0.43788756  0.08957791  0.10779467  1
  N  N42  1  0.22491684  0.19667799  0.87129873  1
  N  N43  1  0.13132681  0.05985142  0.56653921  1
  N  N44  1  0.89761970  0.22827161  0.34054106  1
  N  N45  1  0.78767249  0.08964319  0.11563576  1
  N  N46  1  0.56060574  0.19500807  0.90979485  1
  N  N47  1  0.44660491  0.11362923  0.55789106  1
  N  N48  1  0.21875627  0.54074632  0.34170292  1
  N  N49  1  0.14457189  0.41634476  0.08624357  1
  N  N50  1  0.89009225  0.53967802  0.85017011  1
  N  N51  1  0.76058597  0.46550144  0.58374149  1
  N  N52  1  0.55745922  0.53563626  0.33683528  1
  N  N53  1  0.43399973  0.44586354  0.09109942  1
  N  N54  1  0.25655271  0.48406612  0.81818502  1
  N  N55  1  0.09774854  0.45037651  0.58074894  1
  N  N56  1  0.88831005  0.54035412  0.34709302  1
  N  N57  1  0.75902002  0.41630133  0.08526383  1
  N  N58  1  0.58017548  0.47857038  0.82612762  1
  N  N59  1  0.43688339  0.44423990  0.57068147  1
  N  N60  1  0.21817615  0.87006890  0.33655801  1
  N  N61  1  0.11051089  0.75803853  0.10714071  1
  N  N62  1  0.86389112  0.89325918  0.83441486  1
  N  N63  1  0.80926697  0.74974772  0.58416301  1
  N  N64  1  0.56189183  0.87095499  0.34849573  1
  N  N65  1  0.44772898  0.76172937  0.13082932  1
  N  N66  1  0.20216456  0.89876072  0.85248153  1
  N  N67  1  0.11002055  0.75592311  0.59378799  1
  N  N68  1  0.90545991  0.83998003  0.33323503  1
  N  N69  1  0.75899856  0.79968759  0.07993142  1
  N  N70  1  0.55599084  0.89821949  0.83752319  1
  N  N71  1  0.42638259  0.74133688  0.64855808  1
