# generated using pymatgen
data_Gd2Al7N9
_symmetry_space_group_name_H-M   'P 1'
_cell_length_a   9.79956980
_cell_length_b   9.87425042
_cell_length_c   10.75420255
_cell_angle_alpha   89.40471318
_cell_angle_beta   89.26801607
_cell_angle_gamma   60.06321468
_symmetry_Int_Tables_number   1
_chemical_formula_structural   Gd2Al7N9
_chemical_formula_sum   'Gd8 Al28 N36'
_cell_volume   901.68776988
_cell_formula_units_Z   4
loop_
 _symmetry_equiv_pos_site_id
 _symmetry_equiv_pos_as_xyz
  1  'x, y, z'
loop_
 _atom_site_type_symbol
 _atom_site_label
 _atom_site_symmetry_multiplicity
 _atom_site_fract_x
 _atom_site_fract_y
 _atom_site_fract_z
 _atom_site_occupancy
  Al  Al0  1  0.10816285  0.10328766  0.30748359  1
  Al  Al1  1  0.21675748  0.20821913  0.07817301  1
  Al  Al2  1  0.76915371  0.09425598  0.90477075  1
  Al  Al3  1  0.43783184  0.09580491  0.30776550  1
  Al  Al4  1  0.54669105  0.22049185  0.12769617  1
  Al  Al5  1  0.12025913  0.08602990  0.82923237  1
  Al  Al6  1  0.89428136  0.20221969  0.06144916  1
  Al  Al7  1  0.44515934  0.09717191  0.90793821  1
  Al  Al8  1  0.11923532  0.42678869  0.29638833  1
  Al  Al9  1  0.22855344  0.54066187  0.06581007  1
  Al  Al10  1  0.77353896  0.41602137  0.87939729  1
  Al  Al11  1  0.88873512  0.55202035  0.65508346  1
  Al  Al12  1  0.44472422  0.43180640  0.37279005  1
  Al  Al13  1  0.56030149  0.52876914  0.13649194  1
  Al  Al14  1  0.12993043  0.41631810  0.82196740  1
  Al  Al15  1  0.21587392  0.54474239  0.54690407  1
  Al  Al16  1  0.78417733  0.44964737  0.38908742  1
  Al  Al17  1  0.45846427  0.41227643  0.89484872  1
  Al  Al18  1  0.54514667  0.53931034  0.62534637  1
  Al  Al19  1  0.11450723  0.74878479  0.31734217  1
  Al  Al20  1  0.21455529  0.87683570  0.07696332  1
  Al  Al21  1  0.77250606  0.78360622  0.82763930  1
  Al  Al22  1  0.89958480  0.85235942  0.54862830  1
  Al  Al23  1  0.43753634  0.76635629  0.29877012  1
  Al  Al24  1  0.55819667  0.87519290  0.08205430  1
  Al  Al25  1  0.22024365  0.86508818  0.55604587  1
  Al  Al26  1  0.78143860  0.75743122  0.29868110  1
  Al  Al27  1  0.89358618  0.87364181  0.07525117  1
  Gd  Gd28  1  0.86978860  0.21759175  0.61678685  1
  Gd  Gd29  1  0.19078606  0.21397014  0.54846730  1
  Gd  Gd30  1  0.78611659  0.09731224  0.34681844  1
  Gd  Gd31  1  0.54151729  0.20538507  0.64319244  1
  Gd  Gd32  1  0.89191468  0.54393472  0.08070195  1
  Gd  Gd33  1  0.10632289  0.76467847  0.79901343  1
  Gd  Gd34  1  0.45194119  0.75124272  0.84336578  1
  Gd  Gd35  1  0.57598523  0.83557332  0.54806836  1
  N  N36  1  0.22222365  0.20638638  0.33378960  1
  N  N37  1  0.10163022  0.09997341  0.12784378  1
  N  N38  1  0.89645773  0.19288366  0.87202035  1
  N  N39  1  0.77963749  0.06850657  0.56126436  1
  N  N40  1  0.52592859  0.22747186  0.30353233  1
  N  N41  1  0.44060680  0.09798869  0.09791207  1
  N  N42  1  0.21803234  0.20541390  0.88865757  1
  N  N43  1  0.12169672  0.05362297  0.65433367  1
  N  N44  1  0.91605234  0.22671486  0.39496792  1
  N  N45  1  0.77703999  0.10046831  0.09297472  1
  N  N46  1  0.55613510  0.19728341  0.86283790  1
  N  N47  1  0.43351030  0.08155578  0.57881328  1
  N  N48  1  0.21816723  0.53403888  0.36572422  1
  N  N49  1  0.14800517  0.41531800  0.12174122  1
  N  N50  1  0.88481476  0.53298008  0.84173109  1
  N  N51  1  0.75294533  0.49713185  0.56743142  1
  N  N52  1  0.56201502  0.53513785  0.31544200  1
  N  N53  1  0.45203067  0.43319777  0.07320312  1
  N  N54  1  0.23332152  0.51997065  0.88589244  1
  N  N55  1  0.11473831  0.44935987  0.64381590  1
  N  N56  1  0.89227332  0.53707931  0.30946068  1
  N  N57  1  0.75696904  0.41933409  0.05711846  1
  N  N58  1  0.57958520  0.48076607  0.80194632  1
  N  N59  1  0.44259017  0.44443181  0.54957886  1
  N  N60  1  0.21980820  0.87740713  0.36534419  1
  N  N61  1  0.11283830  0.75833707  0.13173509  1
  N  N62  1  0.87611076  0.87735364  0.89905188  1
  N  N63  1  0.80541991  0.76760939  0.65465438  1
  N  N64  1  0.55293492  0.87152846  0.33244015  1
  N  N65  1  0.44209395  0.76237115  0.11590928  1
  N  N66  1  0.20590392  0.89090156  0.90538811  1
  N  N67  1  0.11316160  0.75595897  0.58589238  1
  N  N68  1  0.90149132  0.83365645  0.37104448  1
  N  N69  1  0.76616291  0.79620298  0.12812381  1
  N  N70  1  0.57127289  0.88052741  0.89873976  1
  N  N71  1  0.41701344  0.75423657  0.63255095  1
