# generated using pymatgen
data_Gd2Al7N9
_symmetry_space_group_name_H-M   'P 1'
_cell_length_a   9.78987122
_cell_length_b   9.89113395
_cell_length_c   10.72739142
_cell_angle_alpha   89.45021630
_cell_angle_beta   89.54388509
_cell_angle_gamma   59.90808567
_symmetry_Int_Tables_number   1
_chemical_formula_structural   Gd2Al7N9
_chemical_formula_sum   'Gd8 Al28 N36'
_cell_volume   898.71494786
_cell_formula_units_Z   4
loop_
 _symmetry_equiv_pos_site_id
 _symmetry_equiv_pos_as_xyz
  1  'x, y, z'
loop_
 _atom_site_type_symbol
 _atom_site_label
 _atom_site_symmetry_multiplicity
 _atom_site_fract_x
 _atom_site_fract_y
 _atom_site_fract_z
 _atom_site_occupancy
  Al  Al0  1  0.11158422  0.10089981  0.32650870  1
  Al  Al1  1  0.22169169  0.20601805  0.10187317  1
  Al  Al2  1  0.76545357  0.09546286  0.92638897  1
  Al  Al3  1  0.43790580  0.10217751  0.38304059  1
  Al  Al4  1  0.54206739  0.21540213  0.15126597  1
  Al  Al5  1  0.12420321  0.08608590  0.85112492  1
  Al  Al6  1  0.89509177  0.20053078  0.08217965  1
  Al  Al7  1  0.44762440  0.09113336  0.92230087  1
  Al  Al8  1  0.12214803  0.42600596  0.31427363  1
  Al  Al9  1  0.22948498  0.54090974  0.08584970  1
  Al  Al10  1  0.77648137  0.41399882  0.90112365  1
  Al  Al11  1  0.89150112  0.54773628  0.67470747  1
  Al  Al12  1  0.44669169  0.42819766  0.39673692  1
  Al  Al13  1  0.56314750  0.52462228  0.16057004  1
  Al  Al14  1  0.13149407  0.41603660  0.84385542  1
  Al  Al15  1  0.21618302  0.54341013  0.56979071  1
  Al  Al16  1  0.78726619  0.44731132  0.41402295  1
  Al  Al17  1  0.45993088  0.41146120  0.91658481  1
  Al  Al18  1  0.54327689  0.53753491  0.65252250  1
  Al  Al19  1  0.11775526  0.74765026  0.33741851  1
  Al  Al20  1  0.21511649  0.87682326  0.09949018  1
  Al  Al21  1  0.77155095  0.79101310  0.83360294  1
  Al  Al22  1  0.90237382  0.85185764  0.56634436  1
  Al  Al23  1  0.43765626  0.75840900  0.32930643  1
  Al  Al24  1  0.54709265  0.88768310  0.16484944  1
  Al  Al25  1  0.21938574  0.86467876  0.58031005  1
  Al  Al26  1  0.78988029  0.75245252  0.32629313  1
  Al  Al27  1  0.89060086  0.87469717  0.09724583  1
  Gd  Gd28  1  0.86188013  0.21595295  0.64706106  1
  Gd  Gd29  1  0.16776836  0.22304879  0.56157721  1
  Gd  Gd30  1  0.78914983  0.09982001  0.36704169  1
  Gd  Gd31  1  0.53175037  0.20031978  0.66269220  1
  Gd  Gd32  1  0.88988097  0.54895075  0.09757558  1
  Gd  Gd33  1  0.10965811  0.76729882  0.82205297  1
  Gd  Gd34  1  0.46307182  0.74808454  0.87867197  1
  Gd  Gd35  1  0.56626463  0.84148065  0.59350690  1
  N  N36  1  0.22264266  0.20666956  0.34589035  1
  N  N37  1  0.10229034  0.09768791  0.14866512  1
  N  N38  1  0.89754083  0.19045869  0.89370211  1
  N  N39  1  0.77325679  0.06836452  0.58354106  1
  N  N40  1  0.52687982  0.22420365  0.32781403  1
  N  N41  1  0.44640706  0.09102394  0.10218925  1
  N  N42  1  0.21603940  0.20804691  0.90832727  1
  N  N43  1  0.11985601  0.05515706  0.67577185  1
  N  N44  1  0.92377529  0.22392012  0.42237212  1
  N  N45  1  0.77593865  0.10071315  0.11516792  1
  N  N46  1  0.55423345  0.20001406  0.88126939  1
  N  N47  1  0.42286766  0.09491258  0.55640227  1
  N  N48  1  0.22003252  0.53328386  0.38744031  1
  N  N49  1  0.14723290  0.41706817  0.13981377  1
  N  N50  1  0.88241088  0.53533605  0.86150840  1
  N  N51  1  0.75227481  0.49419142  0.59124043  1
  N  N52  1  0.56526980  0.52965251  0.34015477  1
  N  N53  1  0.45329328  0.43075551  0.09667361  1
  N  N54  1  0.23390980  0.52191454  0.90591236  1
  N  N55  1  0.11874556  0.44343986  0.66464908  1
  N  N56  1  0.89603280  0.53442204  0.33447928  1
  N  N57  1  0.75974791  0.41883926  0.07982737  1
  N  N58  1  0.58270570  0.47863522  0.82590049  1
  N  N59  1  0.44478728  0.43936133  0.57459735  1
  N  N60  1  0.22161927  0.87516149  0.38926134  1
  N  N61  1  0.11331161  0.75811809  0.15182114  1
  N  N62  1  0.87244467  0.87739257  0.91979783  1
  N  N63  1  0.81726318  0.75783638  0.66366209  1
  N  N64  1  0.55402166  0.86923974  0.35188233  1
  N  N65  1  0.44368997  0.76204944  0.14308091  1
  N  N66  1  0.21184610  0.89118703  0.92790094  1
  N  N67  1  0.11447908  0.75473212  0.60846712  1
  N  N68  1  0.90550154  0.83721072  0.38940729  1
  N  N69  1  0.76344912  0.79808270  0.15323891  1
  N  N70  1  0.55519419  0.90443071  0.83637537  1
  N  N71  1  0.41196718  0.75034800  0.66274081  1
