# generated using pymatgen
data_Gd2Al7N9
_symmetry_space_group_name_H-M   'P 1'
_cell_length_a   9.87247594
_cell_length_b   9.94497687
_cell_length_c   10.38798869
_cell_angle_alpha   89.71279263
_cell_angle_beta   90.02848670
_cell_angle_gamma   60.16261811
_symmetry_Int_Tables_number   1
_chemical_formula_structural   Gd2Al7N9
_chemical_formula_sum   'Gd8 Al28 N36'
_cell_volume   884.69434049
_cell_formula_units_Z   4
loop_
 _symmetry_equiv_pos_site_id
 _symmetry_equiv_pos_as_xyz
  1  'x, y, z'
loop_
 _atom_site_type_symbol
 _atom_site_label
 _atom_site_symmetry_multiplicity
 _atom_site_fract_x
 _atom_site_fract_y
 _atom_site_fract_z
 _atom_site_occupancy
  Al  Al0  1  0.11294191  0.09726395  0.38381629  1
  Al  Al1  1  0.22376100  0.20929908  0.15577833  1
  Al  Al2  1  0.78537440  0.08940208  0.92607767  1
  Al  Al3  1  0.43217415  0.11385840  0.38021825  1
  Al  Al4  1  0.54507070  0.21282177  0.12876492  1
  Al  Al5  1  0.10868499  0.10441518  0.93072888  1
  Al  Al6  1  0.88698658  0.21236656  0.15703284  1
  Al  Al7  1  0.44306489  0.08910539  0.92478796  1
  Al  Al8  1  0.10501211  0.43331762  0.39838654  1
  Al  Al9  1  0.22695516  0.53758684  0.15652200  1
  Al  Al10  1  0.77903905  0.40868157  0.90264820  1
  Al  Al11  1  0.88885603  0.54950197  0.64886573  1
  Al  Al12  1  0.43582982  0.43382436  0.39032006  1
  Al  Al13  1  0.55601447  0.52814106  0.15337297  1
  Al  Al14  1  0.12980740  0.41206670  0.90208148  1
  Al  Al15  1  0.22555381  0.53549232  0.63384430  1
  Al  Al16  1  0.77249470  0.44334458  0.40098240  1
  Al  Al17  1  0.45186692  0.41318979  0.91083067  1
  Al  Al18  1  0.54711213  0.53513089  0.64570652  1
  Al  Al19  1  0.10999973  0.74796000  0.38937597  1
  Al  Al20  1  0.21659192  0.87562633  0.10992848  1
  Al  Al21  1  0.76492498  0.78785216  0.89408490  1
  Al  Al22  1  0.89275806  0.86938465  0.64534853  1
  Al  Al23  1  0.44160753  0.75806050  0.32497439  1
  Al  Al24  1  0.55860942  0.88201895  0.15829204  1
  Al  Al25  1  0.22721159  0.85320477  0.57161875  1
  Al  Al26  1  0.79414088  0.74722237  0.40066275  1
  Al  Al27  1  0.89279815  0.86862739  0.15181540  1
  Gd  Gd28  1  0.89341126  0.20966534  0.64942737  1
  Gd  Gd29  1  0.22306448  0.20483654  0.64917210  1
  Gd  Gd30  1  0.76738186  0.09524510  0.37786661  1
  Gd  Gd31  1  0.55284462  0.21389456  0.67805038  1
  Gd  Gd32  1  0.88735484  0.54496171  0.13061872  1
  Gd  Gd33  1  0.11679333  0.74500816  0.88519352  1
  Gd  Gd34  1  0.46107987  0.74543215  0.88202758  1
  Gd  Gd35  1  0.55196824  0.86448201  0.60991144  1
  N  N36  1  0.21425125  0.21520289  0.34111683  1
  N  N37  1  0.10566139  0.10650099  0.11772728  1
  N  N38  1  0.89971796  0.19353888  0.87126477  1
  N  N39  1  0.78620606  0.07604639  0.59299657  1
  N  N40  1  0.51761417  0.23312463  0.31410657  1
  N  N41  1  0.43778456  0.08959127  0.10811765  1
  N  N42  1  0.22483163  0.19728880  0.87106249  1
  N  N43  1  0.12751348  0.06681296  0.56653942  1
  N  N44  1  0.89416218  0.23006275  0.34299205  1
  N  N45  1  0.78816544  0.08974658  0.11570040  1
  N  N46  1  0.56130917  0.19448842  0.90950372  1
  N  N47  1  0.44801831  0.11164906  0.55840796  1
  N  N48  1  0.21905180  0.53677298  0.34028823  1
  N  N49  1  0.14453912  0.41584724  0.08571795  1
  N  N50  1  0.88965157  0.53980176  0.85002121  1
  N  N51  1  0.75627561  0.47028406  0.58423480  1
  N  N52  1  0.55694035  0.53456968  0.33688492  1
  N  N53  1  0.43471808  0.44483973  0.09106404  1
  N  N54  1  0.25643064  0.48498211  0.81847327  1
  N  N55  1  0.09673736  0.45054201  0.58128615  1
  N  N56  1  0.88758332  0.54016440  0.34725974  1
  N  N57  1  0.75879284  0.41645204  0.08467609  1
  N  N58  1  0.58156778  0.47639210  0.82567534  1
  N  N59  1  0.43551366  0.44554613  0.57050436  1
  N  N60  1  0.22398962  0.86241887  0.36534628  1
  N  N61  1  0.10939418  0.75407042  0.10854689  1
  N  N62  1  0.86696242  0.89319559  0.83419976  1
  N  N63  1  0.80782054  0.75085597  0.58439309  1
  N  N64  1  0.56096133  0.87069575  0.34899665  1
  N  N65  1  0.45010260  0.76015427  0.13470821  1
  N  N66  1  0.21540632  0.89323604  0.92221887  1
  N  N67  1  0.10774063  0.75437713  0.58957753  1
  N  N68  1  0.90226890  0.83977412  0.33160070  1
  N  N69  1  0.75823835  0.79997218  0.07891038  1
  N  N70  1  0.55748629  0.89987430  0.83548197  1
  N  N71  1  0.41455593  0.74723753  0.65557464  1
