# generated using pymatgen
data_Gd2Al7N9
_symmetry_space_group_name_H-M   'P 1'
_cell_length_a   9.83138152
_cell_length_b   9.91044240
_cell_length_c   10.63429160
_cell_angle_alpha   89.13341952
_cell_angle_beta   89.59289867
_cell_angle_gamma   59.99993127
_symmetry_Int_Tables_number   1
_chemical_formula_structural   Gd2Al7N9
_chemical_formula_sum   'Gd8 Al28 N36'
_cell_volume   897.21546537
_cell_formula_units_Z   4
loop_
 _symmetry_equiv_pos_site_id
 _symmetry_equiv_pos_as_xyz
  1  'x, y, z'
loop_
 _atom_site_type_symbol
 _atom_site_label
 _atom_site_symmetry_multiplicity
 _atom_site_fract_x
 _atom_site_fract_y
 _atom_site_fract_z
 _atom_site_occupancy
  Al  Al0  1  0.11313995  0.10658581  0.30051298  1
  Al  Al1  1  0.22754339  0.20417765  0.05399155  1
  Al  Al2  1  0.77029513  0.09630314  0.88400556  1
  Al  Al3  1  0.44178408  0.09424590  0.28265579  1
  Al  Al4  1  0.54286408  0.21664868  0.05921331  1
  Al  Al5  1  0.11585024  0.08734069  0.81871332  1
  Al  Al6  1  0.89783860  0.20063032  0.04886351  1
  Al  Al7  1  0.44435251  0.09450632  0.81693380  1
  Al  Al8  1  0.12356407  0.42111018  0.29265057  1
  Al  Al9  1  0.23509422  0.53425016  0.05346495  1
  Al  Al10  1  0.77460123  0.42022936  0.87222584  1
  Al  Al11  1  0.88542541  0.55079982  0.64216064  1
  Al  Al12  1  0.43825492  0.42791517  0.29235449  1
  Al  Al13  1  0.56413765  0.53168401  0.12405446  1
  Al  Al14  1  0.12385935  0.42085752  0.81237201  1
  Al  Al15  1  0.21616805  0.54288235  0.54465138  1
  Al  Al16  1  0.78179433  0.45180153  0.37914338  1
  Al  Al17  1  0.44362313  0.41377025  0.80362534  1
  Al  Al18  1  0.54339223  0.54501760  0.62624450  1
  Al  Al19  1  0.11863458  0.74608640  0.30820773  1
  Al  Al20  1  0.21411732  0.87856179  0.07057524  1
  Al  Al21  1  0.77544607  0.78169886  0.81454505  1
  Al  Al22  1  0.89866430  0.85183415  0.53365453  1
  Al  Al23  1  0.44268949  0.76723435  0.29049443  1
  Al  Al24  1  0.55841605  0.88649578  0.05904382  1
  Al  Al25  1  0.21723485  0.86345565  0.54272794  1
  Al  Al26  1  0.78016675  0.76022411  0.29087510  1
  Al  Al27  1  0.89517713  0.87182016  0.06078887  1
  Gd  Gd28  1  0.86537611  0.21643599  0.60297217  1
  Gd  Gd29  1  0.19938816  0.20369327  0.55707026  1
  Gd  Gd30  1  0.79634325  0.09518864  0.31495941  1
  Gd  Gd31  1  0.52891368  0.20877507  0.54364151  1
  Gd  Gd32  1  0.89409531  0.54218741  0.07728545  1
  Gd  Gd33  1  0.10874781  0.76638563  0.78716544  1
  Gd  Gd34  1  0.44820979  0.75523695  0.84334908  1
  Gd  Gd35  1  0.56858343  0.84134894  0.55195942  1
  N  N36  1  0.23234468  0.20181531  0.34233011  1
  N  N37  1  0.10598035  0.10236546  0.11793192  1
  N  N38  1  0.89440352  0.19796815  0.85827506  1
  N  N39  1  0.78082047  0.06594990  0.54643332  1
  N  N40  1  0.53434664  0.21385245  0.32846518  1
  N  N41  1  0.44185162  0.09770388  0.10320492  1
  N  N42  1  0.21821741  0.20517918  0.86897475  1
  N  N43  1  0.11585892  0.04978246  0.64310326  1
  N  N44  1  0.91611358  0.22878735  0.38222118  1
  N  N45  1  0.77910828  0.09940046  0.07690568  1
  N  N46  1  0.54880771  0.20699329  0.87010683  1
  N  N47  1  0.43534608  0.07629110  0.64207655  1
  N  N48  1  0.23007926  0.52763335  0.36063270  1
  N  N49  1  0.15197026  0.40922987  0.11302027  1
  N  N50  1  0.88547226  0.53620282  0.83415258  1
  N  N51  1  0.74584437  0.49818245  0.55892606  1
  N  N52  1  0.56274754  0.53709008  0.30721515  1
  N  N53  1  0.44498194  0.43096429  0.10991257  1
  N  N54  1  0.23562636  0.51849791  0.87461124  1
  N  N55  1  0.10706805  0.44807909  0.63106454  1
  N  N56  1  0.89531380  0.53832897  0.30445893  1
  N  N57  1  0.76092548  0.41657313  0.05092552  1
  N  N58  1  0.58089370  0.49503149  0.80304800  1
  N  N59  1  0.41896659  0.44834154  0.62197648  1
  N  N60  1  0.22242284  0.87733473  0.35310731  1
  N  N61  1  0.11520027  0.75541414  0.12034514  1
  N  N62  1  0.87649395  0.87960293  0.88235453  1
  N  N63  1  0.80711132  0.76359070  0.63924726  1
  N  N64  1  0.55475021  0.87313405  0.33538940  1
  N  N65  1  0.44655576  0.76508095  0.10251508  1
  N  N66  1  0.19983381  0.89564118  0.89766386  1
  N  N67  1  0.11092664  0.75543085  0.57177680  1
  N  N68  1  0.90540851  0.83459096  0.35545490  1
  N  N69  1  0.76478632  0.79771047  0.11602823  1
  N  N70  1  0.57074179  0.88709149  0.87886943  1
  N  N71  1  0.41085541  0.75717621  0.62465164  1
