# generated using pymatgen
data_Gd2Al7N9
_symmetry_space_group_name_H-M   'P 1'
_cell_length_a   9.87921894
_cell_length_b   9.89643368
_cell_length_c   10.56960041
_cell_angle_alpha   89.53357322
_cell_angle_beta   90.18969376
_cell_angle_gamma   60.17660878
_symmetry_Int_Tables_number   1
_chemical_formula_structural   Gd2Al7N9
_chemical_formula_sum   'Gd8 Al28 N36'
_cell_volume   896.45944259
_cell_formula_units_Z   4
loop_
 _symmetry_equiv_pos_site_id
 _symmetry_equiv_pos_as_xyz
  1  'x, y, z'
loop_
 _atom_site_type_symbol
 _atom_site_label
 _atom_site_symmetry_multiplicity
 _atom_site_fract_x
 _atom_site_fract_y
 _atom_site_fract_z
 _atom_site_occupancy
  Al  Al0  1  0.11114698  0.10027174  0.34723689  1
  Al  Al1  1  0.22485738  0.21337116  0.15456020  1
  Al  Al2  1  0.77197245  0.10430059  0.93602188  1
  Al  Al3  1  0.42927653  0.11227052  0.38586248  1
  Al  Al4  1  0.53941223  0.21886349  0.14042589  1
  Al  Al5  1  0.10768913  0.10244060  0.91618991  1
  Al  Al6  1  0.87948241  0.21993859  0.15872459  1
  Al  Al7  1  0.44695204  0.09003162  0.92532522  1
  Al  Al8  1  0.10101474  0.43902515  0.39714077  1
  Al  Al9  1  0.22903109  0.53549501  0.15480662  1
  Al  Al10  1  0.77760409  0.40752634  0.90309972  1
  Al  Al11  1  0.90111799  0.53879069  0.66019199  1
  Al  Al12  1  0.43495862  0.43332571  0.39390401  1
  Al  Al13  1  0.55122166  0.53211861  0.15359513  1
  Al  Al14  1  0.13230004  0.41155734  0.90366954  1
  Al  Al15  1  0.23114051  0.52897988  0.63447330  1
  Al  Al16  1  0.77247400  0.44896698  0.39951388  1
  Al  Al17  1  0.44789348  0.41742176  0.90737248  1
  Al  Al18  1  0.54924297  0.53312561  0.64594898  1
  Al  Al19  1  0.11222641  0.75464251  0.33520911  1
  Al  Al20  1  0.21352755  0.87732466  0.10190344  1
  Al  Al21  1  0.77320473  0.78909835  0.83631572  1
  Al  Al22  1  0.91527937  0.84307580  0.57079948  1
  Al  Al23  1  0.43415211  0.75954051  0.32632984  1
  Al  Al24  1  0.54360867  0.88924568  0.16293555  1
  Al  Al25  1  0.22794276  0.85431926  0.56848673  1
  Al  Al26  1  0.78499464  0.75506574  0.32730011  1
  Al  Al27  1  0.88544293  0.87855589  0.09995775  1
  Gd  Gd28  1  0.88672502  0.21116762  0.64862921  1
  Gd  Gd29  1  0.23155316  0.19625882  0.65260233  1
  Gd  Gd30  1  0.76864534  0.09423529  0.37302764  1
  Gd  Gd31  1  0.56404301  0.19378258  0.67211808  1
  Gd  Gd32  1  0.88571994  0.54614559  0.11092578  1
  Gd  Gd33  1  0.10094069  0.76999642  0.83233365  1
  Gd  Gd34  1  0.45632320  0.75242834  0.86866875  1
  Gd  Gd35  1  0.58009110  0.83477533  0.58525784  1
  N  N36  1  0.21496272  0.21763589  0.33949455  1
  N  N37  1  0.10523477  0.10412870  0.13440233  1
  N  N38  1  0.89534549  0.19119139  0.87293157  1
  N  N39  1  0.79601440  0.06208119  0.58937343  1
  N  N40  1  0.51531902  0.23120371  0.32064728  1
  N  N41  1  0.43761853  0.09477517  0.10593917  1
  N  N42  1  0.22750913  0.19529907  0.87382878  1
  N  N43  1  0.12480453  0.06162279  0.60610787  1
  N  N44  1  0.89117479  0.23345439  0.34376929  1
  N  N45  1  0.77530409  0.10408663  0.12334238  1
  N  N46  1  0.55764880  0.19948242  0.89733367  1
  N  N47  1  0.45611457  0.09052197  0.55873682  1
  N  N48  1  0.22281133  0.53404091  0.33711091  1
  N  N49  1  0.14563910  0.41768446  0.08435733  1
  N  N50  1  0.89818660  0.51877644  0.85805916  1
  N  N51  1  0.75500647  0.48376096  0.58074521  1
  N  N52  1  0.55411813  0.53509058  0.33633610  1
  N  N53  1  0.43440836  0.44397017  0.08893420  1
  N  N54  1  0.24742738  0.49682463  0.82316896  1
  N  N55  1  0.09857734  0.44875096  0.57830281  1
  N  N56  1  0.88866841  0.53816911  0.33536563  1
  N  N57  1  0.75214296  0.41990362  0.08317486  1
  N  N58  1  0.58073923  0.48131803  0.82526318  1
  N  N59  1  0.44210890  0.43620253  0.57295969  1
  N  N60  1  0.22058314  0.87047039  0.37912082  1
  N  N61  1  0.10385922  0.76760417  0.14862937  1
  N  N62  1  0.86614526  0.88508159  0.92195421  1
  N  N63  1  0.82522569  0.75128142  0.66643873  1
  N  N64  1  0.54915224  0.87230085  0.35147132  1
  N  N65  1  0.44015504  0.76534115  0.13909552  1
  N  N66  1  0.21010256  0.89045473  0.92588761  1
  N  N67  1  0.12441151  0.74792370  0.61553997  1
  N  N68  1  0.90747875  0.83030528  0.39271316  1
  N  N69  1  0.75827097  0.80064673  0.15239615  1
  N  N70  1  0.55925356  0.90153564  0.83987264  1
  N  N71  1  0.42205235  0.74829599  0.64950414  1
