# generated using pymatgen
data_Gd2Al7N9
_symmetry_space_group_name_H-M   'P 1'
_cell_length_a   9.90893284
_cell_length_b   9.92624543
_cell_length_c   10.48832913
_cell_angle_alpha   88.80045424
_cell_angle_beta   89.90558318
_cell_angle_gamma   60.03214360
_symmetry_Int_Tables_number   1
_chemical_formula_structural   Gd2Al7N9
_chemical_formula_sum   'Gd8 Al28 N36'
_cell_volume   893.45309810
_cell_formula_units_Z   4
loop_
 _symmetry_equiv_pos_site_id
 _symmetry_equiv_pos_as_xyz
  1  'x, y, z'
loop_
 _atom_site_type_symbol
 _atom_site_label
 _atom_site_symmetry_multiplicity
 _atom_site_fract_x
 _atom_site_fract_y
 _atom_site_fract_z
 _atom_site_occupancy
  Al  Al0  1  0.11091245  0.10023683  0.38766160  1
  Al  Al1  1  0.22007552  0.21320339  0.15664550  1
  Al  Al2  1  0.77633175  0.10355028  0.93916393  1
  Al  Al3  1  0.42739957  0.11503920  0.38148326  1
  Al  Al4  1  0.53773709  0.21962465  0.13188560  1
  Al  Al5  1  0.10525409  0.10913547  0.93164144  1
  Al  Al6  1  0.88635170  0.21880445  0.16101055  1
  Al  Al7  1  0.44336383  0.09191983  0.92655678  1
  Al  Al8  1  0.10037882  0.43529029  0.39761344  1
  Al  Al9  1  0.22657804  0.53897119  0.15707487  1
  Al  Al10  1  0.77676626  0.40881614  0.90314111  1
  Al  Al11  1  0.89981606  0.53607445  0.65925882  1
  Al  Al12  1  0.43530347  0.43065467  0.39388206  1
  Al  Al13  1  0.55285051  0.53037608  0.15255581  1
  Al  Al14  1  0.13310300  0.40958444  0.90203541  1
  Al  Al15  1  0.23070740  0.52724227  0.63607713  1
  Al  Al16  1  0.77382660  0.44684313  0.39939448  1
  Al  Al17  1  0.44835798  0.41864796  0.90849154  1
  Al  Al18  1  0.54862394  0.53102339  0.64641233  1
  Al  Al19  1  0.11931014  0.74340425  0.38283405  1
  Al  Al20  1  0.21645796  0.87786222  0.10479042  1
  Al  Al21  1  0.77091481  0.79542951  0.82837269  1
  Al  Al22  1  0.90797757  0.84922806  0.57142844  1
  Al  Al23  1  0.43661476  0.75565044  0.32408990  1
  Al  Al24  1  0.54329461  0.88929825  0.16231040  1
  Al  Al25  1  0.23177830  0.85127935  0.56515216  1
  Al  Al26  1  0.78359086  0.75634598  0.32689278  1
  Al  Al27  1  0.88739273  0.87997424  0.11385147  1
  Gd  Gd28  1  0.89171948  0.20627449  0.65085856  1
  Gd  Gd29  1  0.23327469  0.19055028  0.65127790  1
  Gd  Gd30  1  0.76268193  0.10378764  0.37298114  1
  Gd  Gd31  1  0.56367071  0.19003009  0.67965776  1
  Gd  Gd32  1  0.88504600  0.54854400  0.10782322  1
  Gd  Gd33  1  0.11056754  0.75412967  0.87875002  1
  Gd  Gd34  1  0.45854110  0.75576175  0.86901590  1
  Gd  Gd35  1  0.57470846  0.83912871  0.58157311  1
  N  N36  1  0.21188753  0.21602282  0.34073927  1
  N  N37  1  0.10302967  0.11029430  0.11648213  1
  N  N38  1  0.89611084  0.19375235  0.87270128  1
  N  N39  1  0.79400792  0.06511632  0.59275133  1
  N  N40  1  0.51140720  0.23408367  0.31458201  1
  N  N41  1  0.43336767  0.09460250  0.10750086  1
  N  N42  1  0.22590789  0.19661484  0.87133556  1
  N  N43  1  0.12397877  0.06720662  0.56896856  1
  N  N44  1  0.89500164  0.23312267  0.34455276  1
  N  N45  1  0.78099573  0.10275990  0.12691093  1
  N  N46  1  0.55804261  0.20065999  0.91092620  1
  N  N47  1  0.45609446  0.09546661  0.55630701  1
  N  N48  1  0.22070694  0.53337094  0.33972634  1
  N  N49  1  0.14555187  0.41868526  0.08468001  1
  N  N50  1  0.89662487  0.52180925  0.85684103  1
  N  N51  1  0.75714157  0.47465162  0.58300791  1
  N  N52  1  0.55586803  0.53174774  0.33662484  1
  N  N53  1  0.43160991  0.44894477  0.08905124  1
  N  N54  1  0.25154537  0.49053179  0.82009277  1
  N  N55  1  0.10003753  0.44295705  0.58105498  1
  N  N56  1  0.88783771  0.54008922  0.33748238  1
  N  N57  1  0.75392895  0.41980447  0.08421502  1
  N  N58  1  0.57907264  0.48344544  0.82674412  1
  N  N59  1  0.44363834  0.43232150  0.57464854  1
  N  N60  1  0.22509071  0.86376256  0.37166753  1
  N  N61  1  0.10888609  0.75989192  0.11962478  1
  N  N62  1  0.86172304  0.89106695  0.91402559  1
  N  N63  1  0.82069936  0.74904701  0.65706138  1
  N  N64  1  0.54837186  0.87140434  0.35099371  1
  N  N65  1  0.44436206  0.76367146  0.13609892  1
  N  N66  1  0.21440586  0.89620465  0.92156984  1
  N  N67  1  0.12506081  0.74173364  0.58566546  1
  N  N68  1  0.90118745  0.84108477  0.38357115  1
  N  N69  1  0.75667322  0.80164657  0.14971884  1
  N  N70  1  0.55522331  0.91138971  0.82998293  1
  N  N71  1  0.42073960  0.74777188  0.64839556  1
