# generated using pymatgen
data_Gd2Al7N9
_symmetry_space_group_name_H-M   'P 1'
_cell_length_a   9.86350005
_cell_length_b   9.90227955
_cell_length_c   10.58350821
_cell_angle_alpha   89.01613649
_cell_angle_beta   89.53904640
_cell_angle_gamma   59.99474192
_symmetry_Int_Tables_number   1
_chemical_formula_structural   Gd2Al7N9
_chemical_formula_sum   'Gd8 Al28 N36'
_cell_volume   895.03369626
_cell_formula_units_Z   4
loop_
 _symmetry_equiv_pos_site_id
 _symmetry_equiv_pos_as_xyz
  1  'x, y, z'
loop_
 _atom_site_type_symbol
 _atom_site_label
 _atom_site_symmetry_multiplicity
 _atom_site_fract_x
 _atom_site_fract_y
 _atom_site_fract_z
 _atom_site_occupancy
  Al  Al0  1  0.11277209  0.10443464  0.29572523  1
  Al  Al1  1  0.22827078  0.20247356  0.05222039  1
  Al  Al2  1  0.76802654  0.09934022  0.88089719  1
  Al  Al3  1  0.44140371  0.09431080  0.28025403  1
  Al  Al4  1  0.54181302  0.21716963  0.05560046  1
  Al  Al5  1  0.11290399  0.08927391  0.81915890  1
  Al  Al6  1  0.89720327  0.20078078  0.04814461  1
  Al  Al7  1  0.44586777  0.09478230  0.81782586  1
  Al  Al8  1  0.12462779  0.41937342  0.29102742  1
  Al  Al9  1  0.23473726  0.53319158  0.05135701  1
  Al  Al10  1  0.76601070  0.42788455  0.87364106  1
  Al  Al11  1  0.88884071  0.54781721  0.64183974  1
  Al  Al12  1  0.43843617  0.42723172  0.29345353  1
  Al  Al13  1  0.55733872  0.53589642  0.10874745  1
  Al  Al14  1  0.12544113  0.41880588  0.81114009  1
  Al  Al15  1  0.21701597  0.54212007  0.54287366  1
  Al  Al16  1  0.78731209  0.44703971  0.37496564  1
  Al  Al17  1  0.44333933  0.42472535  0.80277405  1
  Al  Al18  1  0.53886504  0.55041858  0.57429774  1
  Al  Al19  1  0.11688481  0.74567369  0.30292757  1
  Al  Al20  1  0.21800791  0.87440924  0.06710967  1
  Al  Al21  1  0.77463299  0.78071361  0.81425465  1
  Al  Al22  1  0.90268751  0.84945943  0.53245864  1
  Al  Al23  1  0.44138180  0.76498415  0.29331345  1
  Al  Al24  1  0.55666513  0.88209173  0.05745609  1
  Al  Al25  1  0.21380423  0.86535487  0.53328891  1
  Al  Al26  1  0.78120674  0.75882221  0.28651186  1
  Al  Al27  1  0.89297690  0.87256906  0.05823381  1
  Gd  Gd28  1  0.87037670  0.21336926  0.60100904  1
  Gd  Gd29  1  0.20473029  0.19895628  0.55547526  1
  Gd  Gd30  1  0.79342787  0.09540345  0.31351196  1
  Gd  Gd31  1  0.53263617  0.20788377  0.54894799  1
  Gd  Gd32  1  0.89648664  0.54013121  0.07434119  1
  Gd  Gd33  1  0.10405755  0.76693960  0.78836268  1
  Gd  Gd34  1  0.43786404  0.77289436  0.80847582  1
  Gd  Gd35  1  0.57992043  0.84497589  0.54186205  1
  N  N36  1  0.23200525  0.19901200  0.33938219  1
  N  N37  1  0.10668667  0.10082141  0.11285747  1
  N  N38  1  0.88968718  0.20305620  0.85468370  1
  N  N39  1  0.78360593  0.06372198  0.54653517  1
  N  N40  1  0.53204770  0.21307897  0.33288653  1
  N  N41  1  0.44286199  0.09663192  0.09978689  1
  N  N42  1  0.21913432  0.20350698  0.86677254  1
  N  N43  1  0.12044113  0.04536067  0.64243355  1
  N  N44  1  0.91717507  0.22540897  0.37809914  1
  N  N45  1  0.77735267  0.10028813  0.07514688  1
  N  N46  1  0.54747550  0.21164190  0.86498454  1
  N  N47  1  0.43922638  0.07138246  0.64207740  1
  N  N48  1  0.22883514  0.52773032  0.35864447  1
  N  N49  1  0.15343935  0.40717737  0.11119652  1
  N  N50  1  0.88657360  0.53462269  0.83324434  1
  N  N51  1  0.75326279  0.49219562  0.55666207  1
  N  N52  1  0.55845365  0.53592410  0.32279424  1
  N  N53  1  0.44397467  0.43016504  0.11085055  1
  N  N54  1  0.23437205  0.51777727  0.87193292  1
  N  N55  1  0.11070750  0.44436067  0.62885093  1
  N  N56  1  0.89706361  0.53734722  0.30265603  1
  N  N57  1  0.76316103  0.41518388  0.05572438  1
  N  N58  1  0.56251380  0.51782811  0.82742870  1
  N  N59  1  0.42367159  0.45253722  0.61800519  1
  N  N60  1  0.21644565  0.87808923  0.34643838  1
  N  N61  1  0.11368114  0.75428616  0.11562771  1
  N  N62  1  0.87237970  0.88304175  0.87984526  1
  N  N63  1  0.81361546  0.75977013  0.63888053  1
  N  N64  1  0.55582073  0.87274636  0.32903791  1
  N  N65  1  0.44514257  0.76364680  0.10694207  1
  N  N66  1  0.20101174  0.89406438  0.89390693  1
  N  N67  1  0.11339289  0.75418719  0.57173336  1
  N  N68  1  0.90482193  0.83388931  0.35334032  1
  N  N69  1  0.76471388  0.79582380  0.11188308  1
  N  N70  1  0.57024382  0.88538445  0.87775308  1
  N  N71  1  0.41844035  0.75904424  0.58959825  1
