# generated using pymatgen
data_Gd2Al7N9
_symmetry_space_group_name_H-M   'P 1'
_cell_length_a   9.83137744
_cell_length_b   9.91044566
_cell_length_c   10.63429739
_cell_angle_alpha   89.13338315
_cell_angle_beta   89.59283998
_cell_angle_gamma   59.99993133
_symmetry_Int_Tables_number   1
_chemical_formula_structural   Gd2Al7N9
_chemical_formula_sum   'Gd8 Al28 N36'
_cell_volume   897.21586982
_cell_formula_units_Z   4
loop_
 _symmetry_equiv_pos_site_id
 _symmetry_equiv_pos_as_xyz
  1  'x, y, z'
loop_
 _atom_site_type_symbol
 _atom_site_label
 _atom_site_symmetry_multiplicity
 _atom_site_fract_x
 _atom_site_fract_y
 _atom_site_fract_z
 _atom_site_occupancy
  Al  Al0  1  0.11314503  0.10655969  0.30244575  1
  Al  Al1  1  0.22754765  0.20415233  0.05591984  1
  Al  Al2  1  0.77029852  0.09627800  0.88593730  1
  Al  Al3  1  0.44178832  0.09421997  0.28458591  1
  Al  Al4  1  0.54286927  0.21662241  0.06114790  1
  Al  Al5  1  0.11585468  0.08731489  0.82064195  1
  Al  Al6  1  0.89784477  0.20060405  0.05079094  1
  Al  Al7  1  0.44435870  0.09447984  0.81886664  1
  Al  Al8  1  0.12356989  0.42108382  0.29458384  1
  Al  Al9  1  0.23509901  0.53422320  0.05539257  1
  Al  Al10  1  0.77460669  0.42020355  0.87415402  1
  Al  Al11  1  0.88542839  0.55077474  0.64409076  1
  Al  Al12  1  0.43826037  0.42789027  0.29428577  1
  Al  Al13  1  0.56414268  0.53165685  0.12598086  1
  Al  Al14  1  0.12386373  0.42083185  0.81429815  1
  Al  Al15  1  0.21617330  0.54285641  0.54658362  1
  Al  Al16  1  0.78179807  0.45177553  0.38107148  1
  Al  Al17  1  0.44362845  0.41374308  0.80555517  1
  Al  Al18  1  0.54339692  0.54499210  0.62817744  1
  Al  Al19  1  0.11863961  0.74605964  0.31014007  1
  Al  Al20  1  0.21412101  0.87853684  0.07250614  1
  Al  Al21  1  0.77545042  0.78167251  0.81647754  1
  Al  Al22  1  0.89866824  0.85180855  0.53558867  1
  Al  Al23  1  0.44269484  0.76720756  0.29242103  1
  Al  Al24  1  0.55842174  0.88646922  0.06097813  1
  Al  Al25  1  0.21724033  0.86342899  0.54465899  1
  Al  Al26  1  0.78017313  0.76019719  0.29280733  1
  Al  Al27  1  0.89518294  0.87179348  0.06271729  1
  Gd  Gd28  1  0.86538039  0.21641041  0.60490072  1
  Gd  Gd29  1  0.19939467  0.20366608  0.55900250  1
  Gd  Gd30  1  0.79634997  0.09516013  0.31688886  1
  Gd  Gd31  1  0.52891758  0.20874885  0.54556953  1
  Gd  Gd32  1  0.89410127  0.54216053  0.07921682  1
  Gd  Gd33  1  0.10875331  0.76636066  0.78909657  1
  Gd  Gd34  1  0.44821475  0.75521226  0.84528147  1
  Gd  Gd35  1  0.56858741  0.84132286  0.55388895  1
  N  N36  1  0.23235025  0.20178883  0.34426309  1
  N  N37  1  0.10598538  0.10234009  0.11986310  1
  N  N38  1  0.89440787  0.19794218  0.86020352  1
  N  N39  1  0.78082386  0.06592456  0.54836397  1
  N  N40  1  0.53435277  0.21382601  0.33039240  1
  N  N41  1  0.44185537  0.09767793  0.10513546  1
  N  N42  1  0.21822137  0.20515406  0.87090327  1
  N  N43  1  0.11586342  0.04975618  0.64503276  1
  N  N44  1  0.91611735  0.22876124  0.38415090  1
  N  N45  1  0.77911442  0.09937402  0.07883591  1
  N  N46  1  0.54881171  0.20696806  0.87203985  1
  N  N47  1  0.43535286  0.07626433  0.64400872  1
  N  N48  1  0.23008534  0.52760691  0.36256518  1
  N  N49  1  0.15197608  0.40920320  0.11495220  1
  N  N50  1  0.88547740  0.53617664  0.83608197  1
  N  N51  1  0.74584799  0.49815677  0.56085536  1
  N  N52  1  0.56275332  0.53706397  0.30914253  1
  N  N53  1  0.44498567  0.43093899  0.11184273  1
  N  N54  1  0.23563031  0.51847168  0.87653917  1
  N  N55  1  0.10707125  0.44805394  0.63299240  1
  N  N56  1  0.89531937  0.53830219  0.30638963  1
  N  N57  1  0.76093137  0.41654681  0.05285338  1
  N  N58  1  0.58089730  0.49500649  0.80497987  1
  N  N59  1  0.41897311  0.44831406  0.62390661  1
  N  N60  1  0.22242844  0.87730782  0.35503762  1
  N  N61  1  0.11520505  0.75538785  0.12227572  1
  N  N62  1  0.87649861  0.87957759  0.88428403  1
  N  N63  1  0.80711372  0.76356547  0.64117930  1
  N  N64  1  0.55475489  0.87310757  0.33731819  1
  N  N65  1  0.44656060  0.76505441  0.10444339  1
  N  N66  1  0.19983793  0.89561692  0.89959480  1
  N  N67  1  0.11093154  0.75540490  0.57370873  1
  N  N68  1  0.90541399  0.83456349  0.35738888  1
  N  N69  1  0.76479294  0.79768408  0.11796025  1
  N  N70  1  0.57074716  0.88706565  0.88080348  1
  N  N71  1  0.41086004  0.75715051  0.62658362  1
