# generated using pymatgen
data_Gd2Al7N9
_symmetry_space_group_name_H-M   'P 1'
_cell_length_a   9.83644941
_cell_length_b   9.88033903
_cell_length_c   10.60562508
_cell_angle_alpha   88.99339981
_cell_angle_beta   89.61077000
_cell_angle_gamma   60.11419132
_symmetry_Int_Tables_number   1
_chemical_formula_structural   Gd2Al7N9
_chemical_formula_sum   'Gd8 Al28 N36'
_cell_volume   893.52674167
_cell_formula_units_Z   4
loop_
 _symmetry_equiv_pos_site_id
 _symmetry_equiv_pos_as_xyz
  1  'x, y, z'
loop_
 _atom_site_type_symbol
 _atom_site_label
 _atom_site_symmetry_multiplicity
 _atom_site_fract_x
 _atom_site_fract_y
 _atom_site_fract_z
 _atom_site_occupancy
  Al  Al0  1  0.11479659  0.10094076  0.29523143  1
  Al  Al1  1  0.22796641  0.20172477  0.05197075  1
  Al  Al2  1  0.76607986  0.10010329  0.88158278  1
  Al  Al3  1  0.44169937  0.09272500  0.27903564  1
  Al  Al4  1  0.54116321  0.21694666  0.05777549  1
  Al  Al5  1  0.11304711  0.08972568  0.81840263  1
  Al  Al6  1  0.89771984  0.19959177  0.04909082  1
  Al  Al7  1  0.44480685  0.09748565  0.81729692  1
  Al  Al8  1  0.12670275  0.41782449  0.29230493  1
  Al  Al9  1  0.23277927  0.53313832  0.05306594  1
  Al  Al10  1  0.77043923  0.42636427  0.87295857  1
  Al  Al11  1  0.88925396  0.54787395  0.64228341  1
  Al  Al12  1  0.44239051  0.42979397  0.29165696  1
  Al  Al13  1  0.54674440  0.53748237  0.05055666  1
  Al  Al14  1  0.12493121  0.42013443  0.81198178  1
  Al  Al15  1  0.21911042  0.54444468  0.54561676  1
  Al  Al16  1  0.79175787  0.44244796  0.37870797  1
  Al  Al17  1  0.44143288  0.42899528  0.80605871  1
  Al  Al18  1  0.53671324  0.55474799  0.54114067  1
  Al  Al19  1  0.11795014  0.74454021  0.30286222  1
  Al  Al20  1  0.21971297  0.87241987  0.06642298  1
  Al  Al21  1  0.77320951  0.78088127  0.81411709  1
  Al  Al22  1  0.90324657  0.84893298  0.53205942  1
  Al  Al23  1  0.44606463  0.75666707  0.29149800  1
  Al  Al24  1  0.55549699  0.87976700  0.05648655  1
  Al  Al25  1  0.21707725  0.86542260  0.53163945  1
  Al  Al26  1  0.78100435  0.75741186  0.28608909  1
  Al  Al27  1  0.89231745  0.87165710  0.05773336  1
  Gd  Gd28  1  0.87168600  0.20882157  0.59988118  1
  Gd  Gd29  1  0.20254311  0.20242520  0.55537026  1
  Gd  Gd30  1  0.79306217  0.09299459  0.31265288  1
  Gd  Gd31  1  0.52829149  0.21772995  0.54614589  1
  Gd  Gd32  1  0.89569954  0.53812998  0.07729415  1
  Gd  Gd33  1  0.10219712  0.76795785  0.78868070  1
  Gd  Gd34  1  0.43596748  0.77440703  0.79967624  1
  Gd  Gd35  1  0.57992373  0.85401313  0.53983533  1
  N  N36  1  0.23300426  0.19701792  0.34008013  1
  N  N37  1  0.10790866  0.09857093  0.11220532  1
  N  N38  1  0.88770713  0.20337715  0.85129413  1
  N  N39  1  0.77822294  0.06327193  0.54451639  1
  N  N40  1  0.53156484  0.21380509  0.32937789  1
  N  N41  1  0.44254625  0.09482100  0.09890818  1
  N  N42  1  0.21780258  0.20497521  0.86687869  1
  N  N43  1  0.12370054  0.04393114  0.64256606  1
  N  N44  1  0.91895824  0.22133677  0.37765643  1
  N  N45  1  0.77744569  0.09925922  0.07474294  1
  N  N46  1  0.54587139  0.21450587  0.86639459  1
  N  N47  1  0.43782516  0.07920378  0.64115513  1
  N  N48  1  0.23181866  0.52620827  0.36053933  1
  N  N49  1  0.15378229  0.40554687  0.11294507  1
  N  N50  1  0.88559311  0.53607415  0.83352786  1
  N  N51  1  0.75858298  0.48465508  0.56283964  1
  N  N52  1  0.55347819  0.53511148  0.35587658  1
  N  N53  1  0.44404379  0.43208683  0.11118522  1
  N  N54  1  0.23233206  0.51957072  0.87404172  1
  N  N55  1  0.11214309  0.44688999  0.63054686  1
  N  N56  1  0.89768137  0.53553193  0.30449335  1
  N  N57  1  0.76663937  0.41184913  0.05616402  1
  N  N58  1  0.55123119  0.52534183  0.86734113  1
  N  N59  1  0.42834913  0.46070170  0.62438013  1
  N  N60  1  0.21831507  0.87510652  0.34475107  1
  N  N61  1  0.11291886  0.75381623  0.11532998  1
  N  N62  1  0.87059543  0.88395325  0.87975240  1
  N  N63  1  0.81390256  0.75989478  0.63928433  1
  N  N64  1  0.55652117  0.87026017  0.32661442  1
  N  N65  1  0.44733607  0.75666273  0.10618994  1
  N  N66  1  0.20355546  0.89361306  0.89276996  1
  N  N67  1  0.11400038  0.75666385  0.57248160  1
  N  N68  1  0.90593754  0.83124210  0.35361028  1
  N  N69  1  0.76401353  0.79474025  0.11129655  1
  N  N70  1  0.56709152  0.88589574  0.87578724  1
  N  N71  1  0.42394418  0.76060595  0.58473090  1
