# generated using pymatgen
data_Gd2Al7N9
_symmetry_space_group_name_H-M   'P 1'
_cell_length_a   9.84709152
_cell_length_b   9.86220444
_cell_length_c   10.54592212
_cell_angle_alpha   89.47306707
_cell_angle_beta   89.64026243
_cell_angle_gamma   59.91765037
_symmetry_Int_Tables_number   1
_chemical_formula_structural   Gd2Al7N9
_chemical_formula_sum   'Gd8 Al28 N36'
_cell_volume   886.16993614
_cell_formula_units_Z   4
loop_
 _symmetry_equiv_pos_site_id
 _symmetry_equiv_pos_as_xyz
  1  'x, y, z'
loop_
 _atom_site_type_symbol
 _atom_site_label
 _atom_site_symmetry_multiplicity
 _atom_site_fract_x
 _atom_site_fract_y
 _atom_site_fract_z
 _atom_site_occupancy
  Al  Al0  1  0.11190772  0.09890426  0.28697906  1
  Al  Al1  1  0.22598980  0.20314944  0.05138109  1
  Al  Al2  1  0.77630325  0.09073616  0.81449888  1
  Al  Al3  1  0.43705348  0.09752705  0.27915043  1
  Al  Al4  1  0.55124215  0.21074411  0.04128182  1
  Al  Al5  1  0.11437139  0.09289924  0.81360927  1
  Al  Al6  1  0.88625890  0.20485513  0.04025368  1
  Al  Al7  1  0.44584880  0.09539586  0.81689970  1
  Al  Al8  1  0.11437830  0.42384397  0.28951311  1
  Al  Al9  1  0.23075859  0.53283094  0.05698010  1
  Al  Al10  1  0.76752315  0.42901331  0.81027299  1
  Al  Al11  1  0.89278393  0.54780265  0.64239068  1
  Al  Al12  1  0.43726948  0.42692536  0.29605864  1
  Al  Al13  1  0.55296414  0.52771461  0.05783240  1
  Al  Al14  1  0.12851721  0.41953505  0.81325157  1
  Al  Al15  1  0.21895736  0.54742111  0.54364848  1
  Al  Al16  1  0.77938679  0.42636387  0.29607070  1
  Al  Al17  1  0.44439396  0.42728429  0.80996250  1
  Al  Al18  1  0.54280296  0.54975884  0.54568802  1
  Al  Al19  1  0.11055984  0.75233719  0.30538846  1
  Al  Al20  1  0.21724289  0.87433027  0.06177822  1
  Al  Al21  1  0.77438470  0.77968453  0.81234487  1
  Al  Al22  1  0.90076831  0.85841071  0.54665732  1
  Al  Al23  1  0.44274362  0.75851185  0.28995336  1
  Al  Al24  1  0.55535150  0.88095603  0.05872793  1
  Al  Al25  1  0.22152822  0.86739165  0.53179175  1
  Al  Al26  1  0.77987568  0.75771926  0.28789661  1
  Al  Al27  1  0.88769899  0.87792644  0.04892083  1
  Gd  Gd28  1  0.88936226  0.21177025  0.57155057  1
  Gd  Gd29  1  0.21726653  0.20760535  0.54919792  1
  Gd  Gd30  1  0.77898918  0.09424290  0.28963163  1
  Gd  Gd31  1  0.55057131  0.21311725  0.56568023  1
  Gd  Gd32  1  0.88654155  0.53938191  0.06281272  1
  Gd  Gd33  1  0.10963102  0.76014697  0.78965950  1
  Gd  Gd34  1  0.44571840  0.76198876  0.80469465  1
  Gd  Gd35  1  0.57654842  0.85646002  0.53725898  1
  N  N36  1  0.22421710  0.20097802  0.33224734  1
  N  N37  1  0.10510671  0.09945921  0.10447842  1
  N  N38  1  0.88907036  0.20937566  0.85136764  1
  N  N39  1  0.79671101  0.05892298  0.62884083  1
  N  N40  1  0.52677426  0.21297782  0.34944603  1
  N  N41  1  0.44338595  0.09928171  0.09692283  1
  N  N42  1  0.22153417  0.20462693  0.86495828  1
  N  N43  1  0.13249782  0.05571668  0.63342616  1
  N  N44  1  0.90677796  0.21643707  0.35824324  1
  N  N45  1  0.77542615  0.09866627  0.07729590  1
  N  N46  1  0.55330166  0.20931992  0.85451936  1
  N  N47  1  0.44552496  0.08149656  0.63917675  1
  N  N48  1  0.22315281  0.53139941  0.35825968  1
  N  N49  1  0.14146306  0.41199239  0.10979746  1
  N  N50  1  0.89090963  0.53793874  0.83567556  1
  N  N51  1  0.74760317  0.47348228  0.62927450  1
  N  N52  1  0.55508900  0.53226485  0.35806852  1
  N  N53  1  0.44384299  0.42468497  0.11357866  1
  N  N54  1  0.23792081  0.51561732  0.87759028  1
  N  N55  1  0.11291647  0.45123764  0.63079878  1
  N  N56  1  0.88907731  0.53759790  0.30952889  1
  N  N57  1  0.76244017  0.40592269  0.11487531  1
  N  N58  1  0.56494538  0.51181379  0.87832464  1
  N  N59  1  0.42352200  0.46553147  0.62698490  1
  N  N60  1  0.21784928  0.87604588  0.34442159  1
  N  N61  1  0.10828762  0.75881729  0.11498659  1
  N  N62  1  0.87363738  0.88198715  0.87349540  1
  N  N63  1  0.80913262  0.75888434  0.63493242  1
  N  N64  1  0.55150182  0.87357058  0.32325178  1
  N  N65  1  0.44655137  0.75521975  0.10423520  1
  N  N66  1  0.20687768  0.89327874  0.88548200  1
  N  N67  1  0.11533875  0.76133504  0.57235590  1
  N  N68  1  0.89315887  0.84582797  0.36594589  1
  N  N69  1  0.76633483  0.79494323  0.11177585  1
  N  N70  1  0.56830808  0.88416124  0.87560253  1
  N  N71  1  0.42743597  0.75851477  0.58663845  1
