# generated using pymatgen
data_Gd2Al7N9
_symmetry_space_group_name_H-M   'P 1'
_cell_length_a   9.85933214
_cell_length_b   9.89231135
_cell_length_c   10.57960143
_cell_angle_alpha   89.03520940
_cell_angle_beta   89.53780912
_cell_angle_gamma   60.00389870
_symmetry_Int_Tables_number   1
_chemical_formula_structural   Gd2Al7N9
_chemical_formula_sum   'Gd8 Al28 N36'
_cell_volume   893.51256328
_cell_formula_units_Z   4
loop_
 _symmetry_equiv_pos_site_id
 _symmetry_equiv_pos_as_xyz
  1  'x, y, z'
loop_
 _atom_site_type_symbol
 _atom_site_label
 _atom_site_symmetry_multiplicity
 _atom_site_fract_x
 _atom_site_fract_y
 _atom_site_fract_z
 _atom_site_occupancy
  Al  Al0  1  0.11349544  0.10352970  0.29576376  1
  Al  Al1  1  0.22828289  0.20227497  0.05233739  1
  Al  Al2  1  0.76760923  0.09934243  0.88101131  1
  Al  Al3  1  0.44161122  0.09406359  0.28036944  1
  Al  Al4  1  0.54181953  0.21690292  0.05653739  1
  Al  Al5  1  0.11323076  0.08925353  0.81882912  1
  Al  Al6  1  0.89778043  0.20022080  0.04912938  1
  Al  Al7  1  0.44576808  0.09491149  0.81778102  1
  Al  Al8  1  0.12542615  0.41918024  0.29163667  1
  Al  Al9  1  0.23389800  0.53314735  0.05215033  1
  Al  Al10  1  0.76974969  0.42659952  0.87422949  1
  Al  Al11  1  0.88922981  0.54783659  0.64179058  1
  Al  Al12  1  0.44077785  0.42932768  0.29332908  1
  Al  Al13  1  0.54904045  0.53752763  0.06052286  1
  Al  Al14  1  0.12569699  0.41877936  0.81132054  1
  Al  Al15  1  0.21836996  0.54214705  0.54408879  1
  Al  Al16  1  0.78977869  0.44585006  0.37702343  1
  Al  Al17  1  0.44294059  0.42683896  0.80412880  1
  Al  Al18  1  0.53462751  0.55321337  0.54233502  1
  Al  Al19  1  0.11705605  0.74565983  0.30326828  1
  Al  Al20  1  0.21857783  0.87390272  0.06735231  1
  Al  Al21  1  0.77435580  0.78079618  0.81430602  1
  Al  Al22  1  0.90266816  0.84958501  0.53250688  1
  Al  Al23  1  0.44349909  0.76026027  0.29271239  1
  Al  Al24  1  0.55654953  0.88121656  0.05763196  1
  Al  Al25  1  0.21448361  0.86539221  0.53315172  1
  Al  Al26  1  0.78083388  0.75917266  0.28666522  1
  Al  Al27  1  0.89289566  0.87243170  0.05835597  1
  Gd  Gd28  1  0.87030700  0.21351762  0.60063447  1
  Gd  Gd29  1  0.20476527  0.19904282  0.55545393  1
  Gd  Gd30  1  0.79322434  0.09549308  0.31358826  1
  Gd  Gd31  1  0.53190555  0.20989437  0.54914261  1
  Gd  Gd32  1  0.89632247  0.53991046  0.07585093  1
  Gd  Gd33  1  0.10376612  0.76709265  0.78836564  1
  Gd  Gd34  1  0.43748790  0.77265975  0.80421144  1
  Gd  Gd35  1  0.58021914  0.84530909  0.54158914  1
  N  N36  1  0.23218292  0.19874538  0.33947556  1
  N  N37  1  0.10742898  0.09991149  0.11269635  1
  N  N38  1  0.88870604  0.20342990  0.85335438  1
  N  N39  1  0.78261505  0.06404670  0.54645581  1
  N  N40  1  0.53190959  0.21371456  0.33238091  1
  N  N41  1  0.44284053  0.09619253  0.09963720  1
  N  N42  1  0.21887167  0.20370791  0.86688373  1
  N  N43  1  0.12086052  0.04513866  0.64259807  1
  N  N44  1  0.91791805  0.22477802  0.37820758  1
  N  N45  1  0.77745224  0.10015785  0.07498976  1
  N  N46  1  0.54726065  0.21227530  0.86485423  1
  N  N47  1  0.43937000  0.07189672  0.64198755  1
  N  N48  1  0.22978290  0.52736685  0.35924175  1
  N  N49  1  0.15365473  0.40676901  0.11176531  1
  N  N50  1  0.88624373  0.53493692  0.83334457  1
  N  N51  1  0.75448330  0.49121686  0.56022213  1
  N  N52  1  0.55238540  0.53719177  0.35186091  1
  N  N53  1  0.44434520  0.43125470  0.11197478  1
  N  N54  1  0.23383022  0.51802574  0.87252814  1
  N  N55  1  0.11168036  0.44448415  0.62930532  1
  N  N56  1  0.89714637  0.53753813  0.30354307  1
  N  N57  1  0.76707824  0.41309044  0.05812569  1
  N  N58  1  0.55381487  0.52207824  0.86331515  1
  N  N59  1  0.42812163  0.45528178  0.62089430  1
  N  N60  1  0.21667444  0.87752150  0.34593263  1
  N  N61  1  0.11346496  0.75426181  0.11550969  1
  N  N62  1  0.87220322  0.88309564  0.87991828  1
  N  N63  1  0.81404469  0.75990735  0.63920733  1
  N  N64  1  0.55570305  0.87187928  0.32848763  1
  N  N65  1  0.44663240  0.75943997  0.10725973  1
  N  N66  1  0.20288523  0.89361659  0.89353184  1
  N  N67  1  0.11352563  0.75449787  0.57190209  1
  N  N68  1  0.90484986  0.83390133  0.35337956  1
  N  N69  1  0.76439799  0.79615179  0.11193682  1
  N  N70  1  0.56930284  0.88473393  0.87741907  1
  N  N71  1  0.41969405  0.75791619  0.58887943  1
