# generated using pymatgen
data_Gd2Al7N9
_symmetry_space_group_name_H-M   'P 1'
_cell_length_a   9.86350596
_cell_length_b   9.90050855
_cell_length_c   10.58080347
_cell_angle_alpha   89.01880545
_cell_angle_beta   89.53381563
_cell_angle_gamma   59.99538683
_symmetry_Int_Tables_number   1
_chemical_formula_structural   Gd2Al7N9
_chemical_formula_sum   'Gd8 Al28 N36'
_cell_volume   894.65205797
_cell_formula_units_Z   4
loop_
 _symmetry_equiv_pos_site_id
 _symmetry_equiv_pos_as_xyz
  1  'x, y, z'
loop_
 _atom_site_type_symbol
 _atom_site_label
 _atom_site_symmetry_multiplicity
 _atom_site_fract_x
 _atom_site_fract_y
 _atom_site_fract_z
 _atom_site_occupancy
  Al  Al0  1  0.11290738  0.10425978  0.29575497  1
  Al  Al1  1  0.22828910  0.20243029  0.05220450  1
  Al  Al2  1  0.76791042  0.09939494  0.88085794  1
  Al  Al3  1  0.44144279  0.09427060  0.28032288  1
  Al  Al4  1  0.54188951  0.21697365  0.05565965  1
  Al  Al5  1  0.11308627  0.08916755  0.81912629  1
  Al  Al6  1  0.89748809  0.20045431  0.04832737  1
  Al  Al7  1  0.44583824  0.09470302  0.81783842  1
  Al  Al8  1  0.12479443  0.41933565  0.29115951  1
  Al  Al9  1  0.23449060  0.53325450  0.05139123  1
  Al  Al10  1  0.76652664  0.42773358  0.87387695  1
  Al  Al11  1  0.88884903  0.54780440  0.64188919  1
  Al  Al12  1  0.43889354  0.42765908  0.29376195  1
  Al  Al13  1  0.55530119  0.53671638  0.09806262  1
  Al  Al14  1  0.12550925  0.41878162  0.81117841  1
  Al  Al15  1  0.21727794  0.54208432  0.54315364  1
  Al  Al16  1  0.78817623  0.44663552  0.37539882  1
  Al  Al17  1  0.44351421  0.42535960  0.80289892  1
  Al  Al18  1  0.53728305  0.55130185  0.56181199  1
  Al  Al19  1  0.11689008  0.74567948  0.30304049  1
  Al  Al20  1  0.21792877  0.87437917  0.06713688  1
  Al  Al21  1  0.77458640  0.78071416  0.81430788  1
  Al  Al22  1  0.90269022  0.84947892  0.53250403  1
  Al  Al23  1  0.44173300  0.76410117  0.29365051  1
  Al  Al24  1  0.55680623  0.88200055  0.05741487  1
  Al  Al25  1  0.21383055  0.86547725  0.53329413  1
  Al  Al26  1  0.78113441  0.75889104  0.28657845  1
  Al  Al27  1  0.89294777  0.87257619  0.05823939  1
  Gd  Gd28  1  0.87023661  0.21354987  0.60104424  1
  Gd  Gd29  1  0.20472845  0.19895881  0.55549417  1
  Gd  Gd30  1  0.79338577  0.09543291  0.31358203  1
  Gd  Gd31  1  0.53252809  0.20821434  0.54907233  1
  Gd  Gd32  1  0.89668144  0.54012993  0.07455484  1
  Gd  Gd33  1  0.10408110  0.76692086  0.78841235  1
  Gd  Gd34  1  0.43809370  0.77221967  0.80727962  1
  Gd  Gd35  1  0.57998608  0.84514595  0.54191449  1
  N  N36  1  0.23202408  0.19896939  0.33937781  1
  N  N37  1  0.10691959  0.10057448  0.11283642  1
  N  N38  1  0.88959022  0.20312506  0.85459060  1
  N  N39  1  0.78346194  0.06379572  0.54654133  1
  N  N40  1  0.53200904  0.21317840  0.33281827  1
  N  N41  1  0.44285316  0.09653828  0.09977079  1
  N  N42  1  0.21908402  0.20353437  0.86680460  1
  N  N43  1  0.12043731  0.04537208  0.64247393  1
  N  N44  1  0.91736735  0.22523359  0.37810882  1
  N  N45  1  0.77733694  0.10029014  0.07514182  1
  N  N46  1  0.54737913  0.21167986  0.86491746  1
  N  N47  1  0.43919678  0.07150489  0.64206610  1
  N  N48  1  0.22892981  0.52767976  0.35874654  1
  N  N49  1  0.15359723  0.40708505  0.11130234  1
  N  N50  1  0.88655307  0.53462972  0.83337032  1
  N  N51  1  0.75366799  0.49197888  0.55739023  1
  N  N52  1  0.55660805  0.53640793  0.33193353  1
  N  N53  1  0.44398130  0.43031430  0.11143556  1
  N  N54  1  0.23428857  0.51775197  0.87200566  1
  N  N55  1  0.11087960  0.44438334  0.62892983  1
  N  N56  1  0.89712058  0.53740610  0.30275376  1
  N  N57  1  0.76448189  0.41446867  0.05679568  1
  N  N58  1  0.56035692  0.51879596  0.83650597  1
  N  N59  1  0.42488178  0.45322501  0.61828293  1
  N  N60  1  0.21638963  0.87804893  0.34630889  1
  N  N61  1  0.11367022  0.75424247  0.11560789  1
  N  N62  1  0.87235802  0.88307176  0.87985953  1
  N  N63  1  0.81372706  0.75977304  0.63897542  1
  N  N64  1  0.55580627  0.87261982  0.32895966  1
  N  N65  1  0.44550289  0.76275407  0.10751336  1
  N  N66  1  0.20148294  0.89388967  0.89388168  1
  N  N67  1  0.11341973  0.75423891  0.57175584  1
  N  N68  1  0.90481451  0.83390506  0.35333748  1
  N  N69  1  0.76469243  0.79587177  0.11190919  1
  N  N70  1  0.57008147  0.88514992  0.87772849  1
  N  N71  1  0.41872413  0.75875783  0.58917417  1
