# generated using pymatgen
data_Gd2Al7N9
_symmetry_space_group_name_H-M   'P 1'
_cell_length_a   9.88089129
_cell_length_b   9.90042825
_cell_length_c   10.55274964
_cell_angle_alpha   89.80262990
_cell_angle_beta   90.22200956
_cell_angle_gamma   60.21711198
_symmetry_Int_Tables_number   1
_chemical_formula_structural   Gd2Al7N9
_chemical_formula_sum   'Gd8 Al28 N36'
_cell_volume   895.94382321
_cell_formula_units_Z   4
loop_
 _symmetry_equiv_pos_site_id
 _symmetry_equiv_pos_as_xyz
  1  'x, y, z'
loop_
 _atom_site_type_symbol
 _atom_site_label
 _atom_site_symmetry_multiplicity
 _atom_site_fract_x
 _atom_site_fract_y
 _atom_site_fract_z
 _atom_site_occupancy
  Al  Al0  1  0.11077471  0.10069551  0.33547365  1
  Al  Al1  1  0.22378334  0.21230679  0.15477078  1
  Al  Al2  1  0.77432721  0.10381462  0.93531444  1
  Al  Al3  1  0.43043398  0.11206838  0.38549103  1
  Al  Al4  1  0.53875626  0.21898958  0.13785587  1
  Al  Al5  1  0.11692313  0.08464150  0.85266499  1
  Al  Al6  1  0.88104770  0.21948065  0.15912478  1
  Al  Al7  1  0.44528702  0.08951053  0.92355261  1
  Al  Al8  1  0.09945186  0.44241936  0.39614780  1
  Al  Al9  1  0.22872465  0.53674921  0.15458535  1
  Al  Al10  1  0.78064062  0.40349900  0.90249854  1
  Al  Al11  1  0.90017983  0.54054374  0.66147572  1
  Al  Al12  1  0.43484665  0.43369813  0.39324540  1
  Al  Al13  1  0.55045782  0.53340266  0.15424939  1
  Al  Al14  1  0.13411597  0.40726006  0.90224550  1
  Al  Al15  1  0.23159451  0.52974724  0.63412112  1
  Al  Al16  1  0.77088330  0.45160317  0.39952846  1
  Al  Al17  1  0.44882410  0.41604934  0.90744055  1
  Al  Al18  1  0.54877775  0.53323388  0.64593890  1
  Al  Al19  1  0.11242987  0.75713247  0.33727456  1
  Al  Al20  1  0.20922196  0.88573778  0.09788954  1
  Al  Al21  1  0.77298917  0.78981527  0.83757359  1
  Al  Al22  1  0.91523309  0.84289248  0.57157972  1
  Al  Al23  1  0.43104830  0.76297333  0.32850727  1
  Al  Al24  1  0.54271355  0.88965373  0.16290325  1
  Al  Al25  1  0.22612766  0.85723706  0.57975587  1
  Al  Al26  1  0.78442647  0.75542544  0.32714817  1
  Al  Al27  1  0.88559957  0.87936332  0.10081998  1
  Gd  Gd28  1  0.88000803  0.21607142  0.64306789  1
  Gd  Gd29  1  0.23025685  0.20286644  0.64370986  1
  Gd  Gd30  1  0.76764316  0.09332284  0.37090971  1
  Gd  Gd31  1  0.56475493  0.19335578  0.67385611  1
  Gd  Gd32  1  0.88579687  0.54686942  0.10883838  1
  Gd  Gd33  1  0.10180471  0.76576786  0.83466583  1
  Gd  Gd34  1  0.45997031  0.74817033  0.87225266  1
  Gd  Gd35  1  0.58066548  0.83358870  0.58774227  1
  N  N36  1  0.21448439  0.21924859  0.34489092  1
  N  N37  1  0.10668762  0.10059349  0.15122372  1
  N  N38  1  0.89449555  0.18994966  0.86699911  1
  N  N39  1  0.79581084  0.06217953  0.58780944  1
  N  N40  1  0.51454356  0.23185424  0.31917323  1
  N  N41  1  0.43579506  0.09471056  0.10521106  1
  N  N42  1  0.23087185  0.19412866  0.86429853  1
  N  N43  1  0.12785815  0.05082319  0.66176279  1
  N  N44  1  0.89004515  0.23413763  0.35080294  1
  N  N45  1  0.77611561  0.10475738  0.12377914  1
  N  N46  1  0.55869474  0.19788109  0.89982210  1
  N  N47  1  0.45805734  0.08937309  0.55889500  1
  N  N48  1  0.22254069  0.53622239  0.33704250  1
  N  N49  1  0.14642146  0.41602746  0.08394675  1
  N  N50  1  0.89916303  0.51753063  0.85776300  1
  N  N51  1  0.75343047  0.48788913  0.58063183  1
  N  N52  1  0.55229556  0.53767596  0.33695866  1
  N  N53  1  0.43410491  0.44493432  0.08877487  1
  N  N54  1  0.24941964  0.49371467  0.82242267  1
  N  N55  1  0.09548383  0.45398913  0.57701962  1
  N  N56  1  0.88801794  0.53871237  0.33387135  1
  N  N57  1  0.75286850  0.41915321  0.08352525  1
  N  N58  1  0.58273162  0.47796450  0.82440918  1
  N  N59  1  0.44277126  0.43475222  0.57268872  1
  N  N60  1  0.21765177  0.87760276  0.39057538  1
  N  N61  1  0.10447168  0.77008660  0.14947291  1
  N  N62  1  0.86658674  0.88481614  0.92299186  1
  N  N63  1  0.82482526  0.75252894  0.66766523  1
  N  N64  1  0.54873510  0.87341679  0.35184138  1
  N  N65  1  0.43741501  0.76723154  0.14009042  1
  N  N66  1  0.21118246  0.88989607  0.92350952  1
  N  N67  1  0.12380698  0.74761024  0.61755398  1
  N  N68  1  0.90767523  0.82966925  0.39335822  1
  N  N69  1  0.75770588  0.80165718  0.15240473  1
  N  N70  1  0.55996785  0.89915842  0.84072914  1
  N  N71  1  0.42361435  0.74665935  0.65182702  1
