# generated using pymatgen
data_Gd2Al7N9
_symmetry_space_group_name_H-M   'P 1'
_cell_length_a   9.76030132
_cell_length_b   9.87455853
_cell_length_c   10.80757526
_cell_angle_alpha   89.30213188
_cell_angle_beta   89.01438917
_cell_angle_gamma   59.87934712
_symmetry_Int_Tables_number   1
_chemical_formula_structural   Gd2Al7N9
_chemical_formula_sum   'Gd8 Al28 N36'
_cell_volume   900.82951890
_cell_formula_units_Z   4
loop_
 _symmetry_equiv_pos_site_id
 _symmetry_equiv_pos_as_xyz
  1  'x, y, z'
loop_
 _atom_site_type_symbol
 _atom_site_label
 _atom_site_symmetry_multiplicity
 _atom_site_fract_x
 _atom_site_fract_y
 _atom_site_fract_z
 _atom_site_occupancy
  Al  Al0  1  0.10872526  0.09636951  0.32142093  1
  Al  Al1  1  0.23212383  0.20140449  0.14508211  1
  Al  Al2  1  0.76806493  0.09367955  0.91486431  1
  Al  Al3  1  0.44473737  0.09362144  0.37007668  1
  Al  Al4  1  0.54474781  0.21560815  0.14273198  1
  Al  Al5  1  0.12490234  0.08644757  0.83352832  1
  Al  Al6  1  0.89880050  0.19908715  0.06958804  1
  Al  Al7  1  0.43591025  0.10322455  0.91740280  1
  Al  Al8  1  0.11713113  0.43630948  0.30844206  1
  Al  Al9  1  0.23217939  0.53911279  0.07405679  1
  Al  Al10  1  0.77774216  0.41388826  0.89011379  1
  Al  Al11  1  0.88464458  0.55625064  0.66530363  1
  Al  Al12  1  0.44705996  0.43100826  0.38501129  1
  Al  Al13  1  0.56409112  0.52446957  0.14634440  1
  Al  Al14  1  0.13310961  0.41492818  0.82428709  1
  Al  Al15  1  0.21246806  0.54839572  0.55630038  1
  Al  Al16  1  0.78497177  0.45026829  0.40149542  1
  Al  Al17  1  0.46251301  0.40611287  0.90362406  1
  Al  Al18  1  0.54129657  0.53936882  0.64052069  1
  Al  Al19  1  0.11530488  0.75018111  0.32607791  1
  Al  Al20  1  0.21565325  0.87801800  0.08683042  1
  Al  Al21  1  0.77157579  0.78568467  0.83744017  1
  Al  Al22  1  0.89422369  0.85591523  0.55834791  1
  Al  Al23  1  0.44179566  0.76425959  0.30728065  1
  Al  Al24  1  0.55932604  0.87872324  0.08957100  1
  Al  Al25  1  0.21620110  0.86601668  0.56690774  1
  Al  Al26  1  0.78124285  0.75802031  0.30875310  1
  Al  Al27  1  0.89476981  0.87321061  0.08506780  1
  Gd  Gd28  1  0.85738516  0.22015615  0.63543121  1
  Gd  Gd29  1  0.16960102  0.22246142  0.55379315  1
  Gd  Gd30  1  0.78897079  0.10008851  0.35708748  1
  Gd  Gd31  1  0.52685246  0.20265301  0.64892575  1
  Gd  Gd32  1  0.89801482  0.54180537  0.08695353  1
  Gd  Gd33  1  0.11044382  0.76572049  0.80948340  1
  Gd  Gd34  1  0.45615280  0.74540162  0.86263788  1
  Gd  Gd35  1  0.57068380  0.82912981  0.56167228  1
  N  N36  1  0.22456365  0.20452392  0.32986732  1
  N  N37  1  0.10319345  0.09726533  0.14317681  1
  N  N38  1  0.89923236  0.19066429  0.88221692  1
  N  N39  1  0.76933715  0.07333587  0.57054092  1
  N  N40  1  0.52702524  0.22504388  0.31831974  1
  N  N41  1  0.44272159  0.09991748  0.09579258  1
  N  N42  1  0.22697670  0.20242309  0.86061517  1
  N  N43  1  0.11411718  0.05528541  0.66001672  1
  N  N44  1  0.92223849  0.22669834  0.41392744  1
  N  N45  1  0.77772098  0.09998648  0.10305904  1
  N  N46  1  0.55795703  0.19377259  0.86509488  1
  N  N47  1  0.42469103  0.08902715  0.54430440  1
  N  N48  1  0.21987551  0.53673200  0.37729987  1
  N  N49  1  0.15192141  0.41671219  0.13592911  1
  N  N50  1  0.88491971  0.53442853  0.84980472  1
  N  N51  1  0.74811903  0.50173623  0.57796235  1
  N  N52  1  0.56496163  0.53160912  0.32501084  1
  N  N53  1  0.45644776  0.42827892  0.08232972  1
  N  N54  1  0.23503673  0.51878985  0.89439695  1
  N  N55  1  0.11010177  0.45384555  0.64686058  1
  N  N56  1  0.89344203  0.53740999  0.32181003  1
  N  N57  1  0.76212828  0.41769582  0.06708903  1
  N  N58  1  0.58478790  0.47560415  0.81228174  1
  N  N59  1  0.44227956  0.44296577  0.56232328  1
  N  N60  1  0.22272753  0.87450570  0.37728771  1
  N  N61  1  0.11544557  0.75756364  0.14148154  1
  N  N62  1  0.87833678  0.87570442  0.90916193  1
  N  N63  1  0.79696200  0.77324956  0.66388973  1
  N  N64  1  0.55731681  0.86475462  0.34781443  1
  N  N65  1  0.44511915  0.76110993  0.12557562  1
  N  N66  1  0.20661145  0.89413489  0.91621473  1
  N  N67  1  0.10801867  0.75872183  0.59700902  1
  N  N68  1  0.90085161  0.83672201  0.38049548  1
  N  N69  1  0.76804605  0.79416496  0.13820107  1
  N  N70  1  0.56960130  0.88212164  0.90596572  1
  N  N71  1  0.40953661  0.75478453  0.65134961  1
