# generated using pymatgen
data_Gd2Al7N9
_symmetry_space_group_name_H-M   'P 1'
_cell_length_a   9.80452110
_cell_length_b   9.86628546
_cell_length_c   10.73569563
_cell_angle_alpha   89.51248043
_cell_angle_beta   89.33909989
_cell_angle_gamma   60.14292741
_symmetry_Int_Tables_number   1
_chemical_formula_structural   Gd2Al7N9
_chemical_formula_sum   'Gd8 Al28 N36'
_cell_volume   900.60315929
_cell_formula_units_Z   4
loop_
 _symmetry_equiv_pos_site_id
 _symmetry_equiv_pos_as_xyz
  1  'x, y, z'
loop_
 _atom_site_type_symbol
 _atom_site_label
 _atom_site_symmetry_multiplicity
 _atom_site_fract_x
 _atom_site_fract_y
 _atom_site_fract_z
 _atom_site_occupancy
  Al  Al0  1  0.10877366  0.10449462  0.30901244  1
  Al  Al1  1  0.21873890  0.20722555  0.07190662  1
  Al  Al2  1  0.77015396  0.09355295  0.90588416  1
  Al  Al3  1  0.43601512  0.09652163  0.29192708  1
  Al  Al4  1  0.54656422  0.22065989  0.12356695  1
  Al  Al5  1  0.11813804  0.08575153  0.82829724  1
  Al  Al6  1  0.89487726  0.20290945  0.06225800  1
  Al  Al7  1  0.44305219  0.09378336  0.88308099  1
  Al  Al8  1  0.11965975  0.42480134  0.29806024  1
  Al  Al9  1  0.22791624  0.54011737  0.06666178  1
  Al  Al10  1  0.77300248  0.41579817  0.87851160  1
  Al  Al11  1  0.88903420  0.55078209  0.65302109  1
  Al  Al12  1  0.44399574  0.43215730  0.37084796  1
  Al  Al13  1  0.55958457  0.53072192  0.13645864  1
  Al  Al14  1  0.12810945  0.41714939  0.82113416  1
  Al  Al15  1  0.21537997  0.54482068  0.54560260  1
  Al  Al16  1  0.78285928  0.45071668  0.38775914  1
  Al  Al17  1  0.45731349  0.41354850  0.89569273  1
  Al  Al18  1  0.54513511  0.53999586  0.62253565  1
  Al  Al19  1  0.11429227  0.74892690  0.31637523  1
  Al  Al20  1  0.21479885  0.87746607  0.07722273  1
  Al  Al21  1  0.77376963  0.78125681  0.82693452  1
  Al  Al22  1  0.90067895  0.85155657  0.54748986  1
  Al  Al23  1  0.43795278  0.76816992  0.30044875  1
  Al  Al24  1  0.55739266  0.87700760  0.07682289  1
  Al  Al25  1  0.22026576  0.86376622  0.55470134  1
  Al  Al26  1  0.77934262  0.75852920  0.29991463  1
  Al  Al27  1  0.89296624  0.87316087  0.07589849  1
  Gd  Gd28  1  0.87243829  0.21722069  0.61117877  1
  Gd  Gd29  1  0.20564125  0.20632515  0.55664021  1
  Gd  Gd30  1  0.78434469  0.09701847  0.34402739  1
  Gd  Gd31  1  0.54781689  0.21065112  0.64774132  1
  Gd  Gd32  1  0.89189456  0.54370784  0.08219024  1
  Gd  Gd33  1  0.10503189  0.76409938  0.79937695  1
  Gd  Gd34  1  0.45045154  0.75067777  0.84111399  1
  Gd  Gd35  1  0.57409700  0.84357102  0.55438431  1
  N  N36  1  0.22580659  0.20447510  0.34147247  1
  N  N37  1  0.10280998  0.10111181  0.12810133  1
  N  N38  1  0.89612882  0.19277368  0.87190922  1
  N  N39  1  0.77959025  0.06739480  0.55979504  1
  N  N40  1  0.52481194  0.22820361  0.30122553  1
  N  N41  1  0.43960485  0.09682341  0.10153417  1
  N  N42  1  0.21579050  0.20572897  0.88683072  1
  N  N43  1  0.12158120  0.05329232  0.65269439  1
  N  N44  1  0.91341044  0.22757542  0.39185651  1
  N  N45  1  0.77815444  0.10020250  0.09331342  1
  N  N46  1  0.55689502  0.19791711  0.86660572  1
  N  N47  1  0.43523168  0.07616341  0.63298673  1
  N  N48  1  0.21761127  0.53452710  0.36452940  1
  N  N49  1  0.14875304  0.41295161  0.12244368  1
  N  N50  1  0.88479682  0.53245632  0.84095035  1
  N  N51  1  0.75246777  0.49705524  0.56646344  1
  N  N52  1  0.56142708  0.53661992  0.31534080  1
  N  N53  1  0.45095809  0.43519779  0.07329999  1
  N  N54  1  0.23255327  0.51937504  0.88588502  1
  N  N55  1  0.11406522  0.44853745  0.64242689  1
  N  N56  1  0.89197822  0.53745239  0.30914918  1
  N  N57  1  0.75611499  0.42000923  0.05663185  1
  N  N58  1  0.57857974  0.48027186  0.80029069  1
  N  N59  1  0.44085944  0.44559649  0.54773749  1
  N  N60  1  0.21934114  0.87770624  0.36518722  1
  N  N61  1  0.11243133  0.75846890  0.13105574  1
  N  N62  1  0.87534024  0.87674426  0.89940160  1
  N  N63  1  0.80856520  0.76527811  0.65395668  1
  N  N64  1  0.55093068  0.87604845  0.33852762  1
  N  N65  1  0.44205020  0.76411953  0.11648485  1
  N  N66  1  0.20539544  0.89092441  0.90485499  1
  N  N67  1  0.11334277  0.75536325  0.58612362  1
  N  N68  1  0.90201370  0.83330851  0.37007382  1
  N  N69  1  0.76376128  0.79718754  0.12870909  1
  N  N70  1  0.57188196  0.87817894  0.89681998  1
  N  N71  1  0.41761027  0.75427471  0.62997184  1
