# generated using pymatgen
data_Gd2Al7N9
_symmetry_space_group_name_H-M   'P 1'
_cell_length_a   9.88984940
_cell_length_b   9.93346334
_cell_length_c   10.51604019
_cell_angle_alpha   89.00695330
_cell_angle_beta   89.56647566
_cell_angle_gamma   59.88563502
_symmetry_Int_Tables_number   1
_chemical_formula_structural   Gd2Al7N9
_chemical_formula_sum   'Gd8 Al28 N36'
_cell_volume   893.52353054
_cell_formula_units_Z   4
loop_
 _symmetry_equiv_pos_site_id
 _symmetry_equiv_pos_as_xyz
  1  'x, y, z'
loop_
 _atom_site_type_symbol
 _atom_site_label
 _atom_site_symmetry_multiplicity
 _atom_site_fract_x
 _atom_site_fract_y
 _atom_site_fract_z
 _atom_site_occupancy
  Al  Al0  1  0.10988012  0.09997915  0.38816319  1
  Al  Al1  1  0.22162204  0.21147476  0.15633533  1
  Al  Al2  1  0.78618815  0.09002730  0.93037256  1
  Al  Al3  1  0.42821031  0.11619128  0.38024369  1
  Al  Al4  1  0.54437615  0.21387126  0.13069111  1
  Al  Al5  1  0.10795115  0.10704542  0.93017897  1
  Al  Al6  1  0.88551507  0.21353845  0.15881926  1
  Al  Al7  1  0.44637435  0.08835226  0.92690479  1
  Al  Al8  1  0.10063933  0.43578344  0.39665599  1
  Al  Al9  1  0.22649579  0.53892786  0.15903498  1
  Al  Al10  1  0.77718775  0.40650293  0.90427281  1
  Al  Al11  1  0.89650251  0.53915678  0.65086794  1
  Al  Al12  1  0.43420095  0.43302922  0.39200429  1
  Al  Al13  1  0.55231848  0.52959702  0.15290619  1
  Al  Al14  1  0.13555095  0.40747636  0.90221080  1
  Al  Al15  1  0.22587894  0.53281175  0.63584978  1
  Al  Al16  1  0.77192372  0.44635424  0.39734095  1
  Al  Al17  1  0.45292293  0.41319440  0.91002170  1
  Al  Al18  1  0.54572402  0.53476168  0.64474082  1
  Al  Al19  1  0.10966508  0.74743895  0.39720020  1
  Al  Al20  1  0.21653789  0.87808172  0.10305315  1
  Al  Al21  1  0.77393352  0.77791082  0.82876560  1
  Al  Al22  1  0.90328738  0.87152825  0.65173255  1
  Al  Al23  1  0.43406815  0.75725990  0.32397720  1
  Al  Al24  1  0.54491235  0.88698174  0.15801529  1
  Al  Al25  1  0.22806249  0.85522936  0.56924911  1
  Al  Al26  1  0.78076557  0.75633201  0.32450048  1
  Al  Al27  1  0.89635518  0.87570901  0.15939485  1
  Gd  Gd28  1  0.88874826  0.21548530  0.65329141  1
  Gd  Gd29  1  0.23066890  0.19513450  0.65055307  1
  Gd  Gd30  1  0.76375686  0.10027654  0.38463011  1
  Gd  Gd31  1  0.55351738  0.20422992  0.68084303  1
  Gd  Gd32  1  0.88675258  0.54282599  0.11066686  1
  Gd  Gd33  1  0.11918493  0.74217002  0.89297601  1
  Gd  Gd34  1  0.46020721  0.75062537  0.87117087  1
  Gd  Gd35  1  0.57014719  0.84400782  0.58188845  1
  N  N36  1  0.21176877  0.21602416  0.34016629  1
  N  N37  1  0.10430453  0.10896488  0.11551000  1
  N  N38  1  0.89992771  0.19348502  0.87200160  1
  N  N39  1  0.78783532  0.07683682  0.59713161  1
  N  N40  1  0.51527885  0.23346170  0.31375626  1
  N  N41  1  0.43502765  0.09343884  0.10748182  1
  N  N42  1  0.22868186  0.19485918  0.87053501  1
  N  N43  1  0.12164294  0.07163133  0.56941165  1
  N  N44  1  0.89310936  0.23113096  0.34240702  1
  N  N45  1  0.78627318  0.09341280  0.11746447  1
  N  N46  1  0.56285824  0.19495155  0.91020802  1
  N  N47  1  0.45515643  0.10047525  0.55570605  1
  N  N48  1  0.21768556  0.53778482  0.34145079  1
  N  N49  1  0.14760603  0.41738578  0.08441312  1
  N  N50  1  0.89524157  0.52617358  0.85656609  1
  N  N51  1  0.75402391  0.47741024  0.57966114  1
  N  N52  1  0.55482446  0.53351484  0.33553671  1
  N  N53  1  0.43258035  0.44687909  0.08922919  1
  N  N54  1  0.25714726  0.48417130  0.81750166  1
  N  N55  1  0.09907774  0.44560273  0.57901220  1
  N  N56  1  0.88699234  0.54065507  0.33811708  1
  N  N57  1  0.75348770  0.41646275  0.08397900  1
  N  N58  1  0.58221787  0.47731323  0.82332319  1
  N  N59  1  0.43760419  0.44106135  0.57154753  1
  N  N60  1  0.22325123  0.86274171  0.37674425  1
  N  N61  1  0.10984341  0.75800054  0.11247010  1
  N  N62  1  0.87293079  0.89676467  0.84349756  1
  N  N63  1  0.81234417  0.74914738  0.65065209  1
  N  N64  1  0.54932735  0.87217836  0.34853564  1
  N  N65  1  0.44298855  0.76324510  0.13644910  1
  N  N66  1  0.21517898  0.89447365  0.92051848  1
  N  N67  1  0.11179010  0.75199680  0.59079647  1
  N  N68  1  0.90372734  0.84726916  0.34152601  1
  N  N69  1  0.75871072  0.79757116  0.13774706  1
  N  N70  1  0.55927624  0.90217818  0.83915656  1
  N  N71  1  0.41734390  0.75048302  0.65150291  1
