# generated using pymatgen
data_Gd2Al7N9
_symmetry_space_group_name_H-M   'P 1'
_cell_length_a   9.83962189
_cell_length_b   9.92453186
_cell_length_c   10.55701147
_cell_angle_alpha   89.33929553
_cell_angle_beta   89.59157914
_cell_angle_gamma   59.94577145
_symmetry_Int_Tables_number   1
_chemical_formula_structural   Gd2Al7N9
_chemical_formula_sum   'Gd8 Al28 N36'
_cell_volume   892.26340707
_cell_formula_units_Z   4
loop_
 _symmetry_equiv_pos_site_id
 _symmetry_equiv_pos_as_xyz
  1  'x, y, z'
loop_
 _atom_site_type_symbol
 _atom_site_label
 _atom_site_symmetry_multiplicity
 _atom_site_fract_x
 _atom_site_fract_y
 _atom_site_fract_z
 _atom_site_occupancy
  Al  Al0  1  0.10587224  0.10551327  0.33748121  1
  Al  Al1  1  0.22494953  0.21431159  0.15764466  1
  Al  Al2  1  0.76626172  0.09765611  0.92817200  1
  Al  Al3  1  0.43903982  0.10416873  0.38345475  1
  Al  Al4  1  0.54031333  0.21738626  0.13922732  1
  Al  Al5  1  0.12440616  0.08433019  0.84957346  1
  Al  Al6  1  0.89646333  0.20311987  0.08530303  1
  Al  Al7  1  0.43919387  0.09113331  0.91845038  1
  Al  Al8  1  0.10252877  0.44433277  0.39353045  1
  Al  Al9  1  0.23155990  0.53773013  0.15413792  1
  Al  Al10  1  0.78066257  0.41245525  0.89874887  1
  Al  Al11  1  0.89707791  0.54407104  0.66170586  1
  Al  Al12  1  0.43964282  0.43130074  0.39473749  1
  Al  Al13  1  0.55887531  0.52691617  0.15695021  1
  Al  Al14  1  0.13489399  0.41154954  0.88865311  1
  Al  Al15  1  0.22775495  0.53133511  0.63351636  1
  Al  Al16  1  0.77995505  0.45106442  0.41244729  1
  Al  Al17  1  0.44835073  0.41715968  0.90687030  1
  Al  Al18  1  0.54262022  0.53587816  0.65034978  1
  Al  Al19  1  0.11451148  0.75657302  0.34357280  1
  Al  Al20  1  0.21384168  0.88310575  0.10389293  1
  Al  Al21  1  0.77688563  0.78662721  0.83617156  1
  Al  Al22  1  0.90398434  0.84948015  0.56715136  1
  Al  Al23  1  0.43786231  0.75930010  0.32833395  1
  Al  Al24  1  0.54662700  0.88777450  0.15959525  1
  Al  Al25  1  0.22164940  0.85465084  0.57814261  1
  Al  Al26  1  0.78504378  0.75864802  0.32534956  1
  Al  Al27  1  0.89179437  0.87622064  0.09809577  1
  Gd  Gd28  1  0.86319516  0.21689022  0.64316892  1
  Gd  Gd29  1  0.19775891  0.19339261  0.60324488  1
  Gd  Gd30  1  0.78243185  0.10309359  0.36412483  1
  Gd  Gd31  1  0.53902626  0.19596631  0.66899027  1
  Gd  Gd32  1  0.89072536  0.54515161  0.10906582  1
  Gd  Gd33  1  0.10603524  0.78581041  0.82018794  1
  Gd  Gd34  1  0.46568004  0.74315489  0.88301453  1
  Gd  Gd35  1  0.57428200  0.82909876  0.59242091  1
  N  N36  1  0.21867085  0.21743990  0.34522999  1
  N  N37  1  0.10192505  0.10414105  0.15568535  1
  N  N38  1  0.90150538  0.19019691  0.89630342  1
  N  N39  1  0.77634714  0.06694483  0.58690841  1
  N  N40  1  0.52310598  0.22701756  0.32180328  1
  N  N41  1  0.43570465  0.09435031  0.10282299  1
  N  N42  1  0.23106775  0.20017783  0.84346606  1
  N  N43  1  0.10932072  0.03387020  0.67869846  1
  N  N44  1  0.91451299  0.22908574  0.42086813  1
  N  N45  1  0.77674247  0.10314395  0.11741697  1
  N  N46  1  0.55313137  0.19894942  0.89321110  1
  N  N47  1  0.44030776  0.08419183  0.55729833  1
  N  N48  1  0.22683242  0.53522330  0.33734341  1
  N  N49  1  0.15128634  0.41444891  0.08248521  1
  N  N50  1  0.89764354  0.52341357  0.85562660  1
  N  N51  1  0.74371900  0.50198678  0.58834819  1
  N  N52  1  0.56165406  0.53120668  0.33911177  1
  N  N53  1  0.44009213  0.44179826  0.08959907  1
  N  N54  1  0.24668850  0.50933025  0.82221637  1
  N  N55  1  0.09682366  0.45142260  0.58007774  1
  N  N56  1  0.89081566  0.54023982  0.33513276  1
  N  N57  1  0.75679280  0.42136852  0.07985428  1
  N  N58  1  0.58741970  0.47259037  0.82388411  1
  N  N59  1  0.44131689  0.43648746  0.57300578  1
  N  N60  1  0.22244094  0.87882444  0.39093431  1
  N  N61  1  0.10805830  0.77029697  0.15382200  1
  N  N62  1  0.87358605  0.88039212  0.91860109  1
  N  N63  1  0.81885302  0.75566466  0.66434888  1
  N  N64  1  0.55249542  0.87104694  0.35013012  1
  N  N65  1  0.44348799  0.76286711  0.14197585  1
  N  N66  1  0.21721371  0.89545437  0.93161589  1
  N  N67  1  0.11762102  0.74550820  0.60179441  1
  N  N68  1  0.90228785  0.84010548  0.38867932  1
  N  N69  1  0.76232990  0.80002596  0.14926646  1
  N  N70  1  0.56186594  0.89531932  0.84532435  1
  N  N71  1  0.41160083  0.74812531  0.66314974  1
