# generated using pymatgen
data_Gd2Al7N9
_symmetry_space_group_name_H-M   'P 1'
_cell_length_a   9.84658598
_cell_length_b   9.86524166
_cell_length_c   10.54945154
_cell_angle_alpha   89.15832318
_cell_angle_beta   89.71683728
_cell_angle_gamma   59.98430976
_symmetry_Int_Tables_number   1
_chemical_formula_structural   Gd2Al7N9
_chemical_formula_sum   'Gd8 Al28 N36'
_cell_volume   887.23097218
_cell_formula_units_Z   4
loop_
 _symmetry_equiv_pos_site_id
 _symmetry_equiv_pos_as_xyz
  1  'x, y, z'
loop_
 _atom_site_type_symbol
 _atom_site_label
 _atom_site_symmetry_multiplicity
 _atom_site_fract_x
 _atom_site_fract_y
 _atom_site_fract_z
 _atom_site_occupancy
  Al  Al0  1  0.11343146  0.09747563  0.28890592  1
  Al  Al1  1  0.22596344  0.20286746  0.05220366  1
  Al  Al2  1  0.77191755  0.09855579  0.84311547  1
  Al  Al3  1  0.43794420  0.09546229  0.28074926  1
  Al  Al4  1  0.54515429  0.21428913  0.04588283  1
  Al  Al5  1  0.11371232  0.09294668  0.81570374  1
  Al  Al6  1  0.88823847  0.20709193  0.04447410  1
  Al  Al7  1  0.44496707  0.09610038  0.81795386  1
  Al  Al8  1  0.11649645  0.42152961  0.29043841  1
  Al  Al9  1  0.22983223  0.53439495  0.05702489  1
  Al  Al10  1  0.76635694  0.43135044  0.81159723  1
  Al  Al11  1  0.89341114  0.54773403  0.64509746  1
  Al  Al12  1  0.43842019  0.42613962  0.29694002  1
  Al  Al13  1  0.55231354  0.52908741  0.05859973  1
  Al  Al14  1  0.12858011  0.42066966  0.81491153  1
  Al  Al15  1  0.21987115  0.54603581  0.54527724  1
  Al  Al16  1  0.78032811  0.42502230  0.29726119  1
  Al  Al17  1  0.44249452  0.43042016  0.81064126  1
  Al  Al18  1  0.54357876  0.55044570  0.54721430  1
  Al  Al19  1  0.11273337  0.74938070  0.30635728  1
  Al  Al20  1  0.21805011  0.87354686  0.06345695  1
  Al  Al21  1  0.77352671  0.78183528  0.81259561  1
  Al  Al22  1  0.90160316  0.85702867  0.54239254  1
  Al  Al23  1  0.44415930  0.75716201  0.29196140  1
  Al  Al24  1  0.55505314  0.88040142  0.05951856  1
  Al  Al25  1  0.22183041  0.86643232  0.53167609  1
  Al  Al26  1  0.78114052  0.75494046  0.28768392  1
  Al  Al27  1  0.88973611  0.87500055  0.05085883  1
  Gd  Gd28  1  0.88772990  0.21135838  0.57268846  1
  Gd  Gd29  1  0.21482815  0.20629143  0.55263628  1
  Gd  Gd30  1  0.78137359  0.09139901  0.29029793  1
  Gd  Gd31  1  0.54700540  0.21502713  0.56431628  1
  Gd  Gd32  1  0.88709932  0.53904838  0.06398017  1
  Gd  Gd33  1  0.10586220  0.76523467  0.78743725  1
  Gd  Gd34  1  0.44355753  0.76467606  0.80367047  1
  Gd  Gd35  1  0.57852441  0.85777168  0.53824214  1
  N  N36  1  0.22608873  0.19883555  0.33524308  1
  N  N37  1  0.10597734  0.09908552  0.10639224  1
  N  N38  1  0.88888843  0.21193899  0.85535091  1
  N  N39  1  0.79316100  0.05946342  0.61142153  1
  N  N40  1  0.52928201  0.21086676  0.34680816  1
  N  N41  1  0.44261927  0.09817268  0.09876698  1
  N  N42  1  0.22098978  0.20505431  0.86615064  1
  N  N43  1  0.13130991  0.05180994  0.63652803  1
  N  N44  1  0.90829017  0.21460920  0.35831172  1
  N  N45  1  0.77474190  0.09969133  0.07128598  1
  N  N46  1  0.54827103  0.21307029  0.85904148  1
  N  N47  1  0.44431002  0.08087108  0.64089323  1
  N  N48  1  0.22545926  0.52834005  0.35974896  1
  N  N49  1  0.14289103  0.41099159  0.11031731  1
  N  N50  1  0.89111892  0.53865110  0.83745786  1
  N  N51  1  0.74743063  0.47460101  0.63117400  1
  N  N52  1  0.55648771  0.53065062  0.35956553  1
  N  N53  1  0.44252168  0.42664693  0.11473034  1
  N  N54  1  0.23564292  0.51987589  0.87760533  1
  N  N55  1  0.11358443  0.44995404  0.63248288  1
  N  N56  1  0.89118854  0.53496395  0.30858688  1
  N  N57  1  0.76172135  0.40651438  0.11644236  1
  N  N58  1  0.56398420  0.51405647  0.87928342  1
  N  N59  1  0.42412979  0.46700172  0.62869707  1
  N  N60  1  0.21900465  0.87452001  0.34453204  1
  N  N61  1  0.10895024  0.75803611  0.11626479  1
  N  N62  1  0.87266902  0.88342244  0.87501152  1
  N  N63  1  0.81178282  0.75831580  0.63615907  1
  N  N64  1  0.55381354  0.87134185  0.32403889  1
  N  N65  1  0.44682549  0.75499980  0.10604744  1
  N  N66  1  0.20630786  0.89329390  0.88758674  1
  N  N67  1  0.11611143  0.75957827  0.57045346  1
  N  N68  1  0.89620207  0.84111070  0.36243254  1
  N  N69  1  0.76631550  0.79417057  0.11176853  1
  N  N70  1  0.56785418  0.88460548  0.87653728  1
  N  N71  1  0.42856463  0.75971195  0.58521244  1
