# generated using pymatgen
data_Gd2Al7N9
_symmetry_space_group_name_H-M   'P 1'
_cell_length_a   9.75529587
_cell_length_b   9.87660563
_cell_length_c   10.81270005
_cell_angle_alpha   89.28391809
_cell_angle_beta   88.91591932
_cell_angle_gamma   59.86747322
_symmetry_Int_Tables_number   1
_chemical_formula_structural   Gd2Al7N9
_chemical_formula_sum   'Gd8 Al28 N36'
_cell_volume   900.84707000
_cell_formula_units_Z   4
loop_
 _symmetry_equiv_pos_site_id
 _symmetry_equiv_pos_as_xyz
  1  'x, y, z'
loop_
 _atom_site_type_symbol
 _atom_site_label
 _atom_site_symmetry_multiplicity
 _atom_site_fract_x
 _atom_site_fract_y
 _atom_site_fract_z
 _atom_site_occupancy
  Al  Al0  1  0.10819643  0.09648244  0.32555116  1
  Al  Al1  1  0.23274049  0.20120387  0.15083166  1
  Al  Al2  1  0.76915266  0.09348327  0.91809328  1
  Al  Al3  1  0.44469359  0.09352713  0.37396051  1
  Al  Al4  1  0.54484093  0.21546799  0.14553096  1
  Al  Al5  1  0.12564224  0.08604351  0.83558194  1
  Al  Al6  1  0.89951408  0.19906136  0.07293786  1
  Al  Al7  1  0.43605186  0.10318139  0.91993758  1
  Al  Al8  1  0.11642835  0.43688430  0.31241215  1
  Al  Al9  1  0.23257623  0.53872291  0.07729816  1
  Al  Al10  1  0.77852716  0.41358050  0.89328171  1
  Al  Al11  1  0.88383198  0.55664771  0.66809205  1
  Al  Al12  1  0.44679456  0.43098765  0.38812297  1
  Al  Al13  1  0.56444616  0.52436119  0.14948564  1
  Al  Al14  1  0.13342178  0.41519373  0.82594112  1
  Al  Al15  1  0.21175119  0.54877123  0.55905512  1
  Al  Al16  1  0.78437603  0.45054515  0.40468396  1
  Al  Al17  1  0.46319757  0.40566825  0.90685223  1
  Al  Al18  1  0.54056293  0.53924817  0.64392905  1
  Al  Al19  1  0.11496447  0.75039777  0.32899818  1
  Al  Al20  1  0.21603702  0.87830169  0.09009413  1
  Al  Al21  1  0.77206127  0.78594686  0.84035174  1
  Al  Al22  1  0.89324216  0.85625391  0.56160051  1
  Al  Al23  1  0.44161582  0.76432009  0.31016517  1
  Al  Al24  1  0.55954144  0.87888475  0.09244048  1
  Al  Al25  1  0.21550041  0.86560660  0.56981149  1
  Al  Al26  1  0.78084816  0.75830996  0.31165143  1
  Al  Al27  1  0.89529149  0.87311765  0.08794023  1
  Gd  Gd28  1  0.85620656  0.22043515  0.63843523  1
  Gd  Gd29  1  0.17006081  0.22151433  0.55876555  1
  Gd  Gd30  1  0.78832025  0.10019392  0.36034023  1
  Gd  Gd31  1  0.52574535  0.20260768  0.65277724  1
  Gd  Gd32  1  0.89879594  0.54176723  0.08979215  1
  Gd  Gd33  1  0.11214299  0.76559181  0.81248045  1
  Gd  Gd34  1  0.45726205  0.74487566  0.86629236  1
  Gd  Gd35  1  0.57003971  0.82823719  0.56462971  1
  N  N36  1  0.22409995  0.20474917  0.33446016  1
  N  N37  1  0.10364778  0.09739876  0.14714072  1
  N  N38  1  0.90032445  0.19057458  0.88571844  1
  N  N39  1  0.76815554  0.07371329  0.57362806  1
  N  N40  1  0.52644385  0.22509227  0.32111629  1
  N  N41  1  0.44216265  0.10021406  0.09838375  1
  N  N42  1  0.22955095  0.20144361  0.85786315  1
  N  N43  1  0.11273041  0.05434297  0.66287987  1
  N  N44  1  0.92116236  0.22702975  0.41741065  1
  N  N45  1  0.77826718  0.09984598  0.10612273  1
  N  N46  1  0.55904481  0.19331832  0.86862317  1
  N  N47  1  0.42500720  0.08816208  0.54776430  1
  N  N48  1  0.21959631  0.53720302  0.38032992  1
  N  N49  1  0.15247379  0.41629371  0.13989942  1
  N  N50  1  0.88541236  0.53423469  0.85263077  1
  N  N51  1  0.74709665  0.50239044  0.58095075  1
  N  N52  1  0.56462078  0.53171164  0.32807074  1
  N  N53  1  0.45689029  0.42817796  0.08535267  1
  N  N54  1  0.23541836  0.51824951  0.89746269  1
  N  N55  1  0.10906293  0.45474700  0.64897617  1
  N  N56  1  0.89273214  0.53782772  0.32485518  1
  N  N57  1  0.76277142  0.41776322  0.07026717  1
  N  N58  1  0.58560471  0.47498715  0.81534960  1
  N  N59  1  0.44180419  0.44273026  0.56552262  1
  N  N60  1  0.22243845  0.87441500  0.38053931  1
  N  N61  1  0.11580429  0.75750972  0.14446100  1
  N  N62  1  0.87942941  0.87542508  0.91192768  1
  N  N63  1  0.79551371  0.77368717  0.66684507  1
  N  N64  1  0.55681912  0.86499891  0.35076763  1
  N  N65  1  0.44550933  0.76098469  0.12861378  1
  N  N66  1  0.20748661  0.89466997  0.91958588  1
  N  N67  1  0.10703483  0.75879524  0.60024139  1
  N  N68  1  0.90036050  0.83689840  0.38365379  1
  N  N69  1  0.76830562  0.79425507  0.14113473  1
  N  N70  1  0.57017327  0.88204402  0.90926345  1
  N  N71  1  0.40825626  0.75460598  0.65530684  1
