# generated using pymatgen
data_Gd2Al7N9
_symmetry_space_group_name_H-M   'P 1'
_cell_length_a   9.78097514
_cell_length_b   9.89751097
_cell_length_c   10.73587085
_cell_angle_alpha   89.40128297
_cell_angle_beta   89.33546905
_cell_angle_gamma   59.90912520
_symmetry_Int_Tables_number   1
_chemical_formula_structural   Gd2Al7N9
_chemical_formula_sum   'Gd8 Al28 N36'
_cell_volume   899.17080249
_cell_formula_units_Z   4
loop_
 _symmetry_equiv_pos_site_id
 _symmetry_equiv_pos_as_xyz
  1  'x, y, z'
loop_
 _atom_site_type_symbol
 _atom_site_label
 _atom_site_symmetry_multiplicity
 _atom_site_fract_x
 _atom_site_fract_y
 _atom_site_fract_z
 _atom_site_occupancy
  Al  Al0  1  0.10911814  0.09637520  0.32813791  1
  Al  Al1  1  0.22919273  0.20258070  0.14339114  1
  Al  Al2  1  0.76625106  0.09500351  0.92382476  1
  Al  Al3  1  0.44068378  0.09987119  0.37938820  1
  Al  Al4  1  0.54431933  0.21539929  0.14738093  1
  Al  Al5  1  0.12656029  0.08703928  0.84472088  1
  Al  Al6  1  0.89809060  0.19971556  0.07863072  1
  Al  Al7  1  0.43927750  0.09556854  0.92131528  1
  Al  Al8  1  0.11811390  0.43431795  0.31524451  1
  Al  Al9  1  0.23137774  0.54033908  0.08279762  1
  Al  Al10  1  0.77794005  0.41337657  0.89793734  1
  Al  Al11  1  0.88900292  0.55026045  0.67104109  1
  Al  Al12  1  0.44685097  0.42840850  0.39460056  1
  Al  Al13  1  0.56518987  0.52380837  0.15714508  1
  Al  Al14  1  0.13376026  0.41500338  0.83535357  1
  Al  Al15  1  0.21456253  0.54547273  0.56680197  1
  Al  Al16  1  0.78636123  0.44809697  0.41196140  1
  Al  Al17  1  0.46108556  0.41003014  0.91332244  1
  Al  Al18  1  0.54182354  0.53734438  0.65037346  1
  Al  Al19  1  0.11697147  0.74913726  0.33430090  1
  Al  Al20  1  0.21534828  0.87786840  0.09604547  1
  Al  Al21  1  0.77060502  0.79165901  0.83238871  1
  Al  Al22  1  0.89952324  0.85365450  0.56440749  1
  Al  Al23  1  0.43801702  0.75808252  0.32458787  1
  Al  Al24  1  0.55002926  0.88503016  0.15824937  1
  Al  Al25  1  0.21785997  0.86449037  0.57763759  1
  Al  Al26  1  0.78991047  0.75275337  0.32191699  1
  Al  Al27  1  0.89224525  0.87437219  0.09385873  1
  Gd  Gd28  1  0.85809911  0.21732059  0.64614064  1
  Gd  Gd29  1  0.16687649  0.22242784  0.55990742  1
  Gd  Gd30  1  0.78753116  0.10112542  0.36538926  1
  Gd  Gd31  1  0.52734809  0.19936371  0.66198310  1
  Gd  Gd32  1  0.89562686  0.54647874  0.08996495  1
  Gd  Gd33  1  0.11128699  0.76780252  0.81964260  1
  Gd  Gd34  1  0.46305722  0.74688131  0.87702516  1
  Gd  Gd35  1  0.56566604  0.83813640  0.58713039  1
  N  N36  1  0.22382612  0.20488370  0.33472737  1
  N  N37  1  0.10272439  0.09607082  0.15032489  1
  N  N38  1  0.89894476  0.19012199  0.89102860  1
  N  N39  1  0.76933350  0.07044966  0.58101452  1
  N  N40  1  0.52605938  0.22506913  0.32439085  1
  N  N41  1  0.44558789  0.09183220  0.10222455  1
  N  N42  1  0.22113547  0.20705297  0.88216930  1
  N  N43  1  0.11603290  0.05484232  0.66987675  1
  N  N44  1  0.92346279  0.22464452  0.42167098  1
  N  N45  1  0.77771540  0.10024840  0.11261163  1
  N  N46  1  0.55482869  0.19845457  0.88042904  1
  N  N47  1  0.42161678  0.09280471  0.55111746  1
  N  N48  1  0.22023068  0.53577308  0.38556836  1
  N  N49  1  0.14981413  0.41810241  0.14178748  1
  N  N50  1  0.88282994  0.53556902  0.85724723  1
  N  N51  1  0.74981905  0.49629808  0.58803301  1
  N  N52  1  0.56543162  0.52955789  0.33695389  1
  N  N53  1  0.45505956  0.43062453  0.09314246  1
  N  N54  1  0.23425396  0.52144605  0.90267565  1
  N  N55  1  0.11490490  0.44734543  0.65647239  1
  N  N56  1  0.89521738  0.53559538  0.33361046  1
  N  N57  1  0.76269133  0.41859475  0.07711115  1
  N  N58  1  0.58465109  0.47642543  0.82242617  1
  N  N59  1  0.44401925  0.43826038  0.57265444  1
  N  N60  1  0.22218386  0.87412216  0.38727736  1
  N  N61  1  0.11453187  0.75803928  0.14898970  1
  N  N62  1  0.87419847  0.87695292  0.91671120  1
  N  N63  1  0.81181501  0.76127568  0.66133946  1
  N  N64  1  0.55446471  0.86858333  0.34697937  1
  N  N65  1  0.44441967  0.76132204  0.13933715  1
  N  N66  1  0.21106308  0.89377971  0.92502588  1
  N  N67  1  0.11173429  0.75611416  0.60606494  1
  N  N68  1  0.90415092  0.83850343  0.38666509  1
  N  N69  1  0.76656931  0.79517552  0.14895825  1
  N  N70  1  0.55577309  0.90231122  0.84365168  1
  N  N71  1  0.41006119  0.75028619  0.66066323  1
