# generated using pymatgen
data_Gd2Al7N9
_symmetry_space_group_name_H-M   'P 1'
_cell_length_a   9.91207682
_cell_length_b   9.92790737
_cell_length_c   10.49368220
_cell_angle_alpha   88.69469380
_cell_angle_beta   89.83996735
_cell_angle_gamma   59.99377130
_symmetry_Int_Tables_number   1
_chemical_formula_structural   Gd2Al7N9
_chemical_formula_sum   'Gd8 Al28 N36'
_cell_volume   893.96294487
_cell_formula_units_Z   4
loop_
 _symmetry_equiv_pos_site_id
 _symmetry_equiv_pos_as_xyz
  1  'x, y, z'
loop_
 _atom_site_type_symbol
 _atom_site_label
 _atom_site_symmetry_multiplicity
 _atom_site_fract_x
 _atom_site_fract_y
 _atom_site_fract_z
 _atom_site_occupancy
  Al  Al0  1  0.11069131  0.10048248  0.38764750  1
  Al  Al1  1  0.21992454  0.21334392  0.15653915  1
  Al  Al2  1  0.77971415  0.09759071  0.93999211  1
  Al  Al3  1  0.42728274  0.11572796  0.38110341  1
  Al  Al4  1  0.53819073  0.21903075  0.13055514  1
  Al  Al5  1  0.10495007  0.10929668  0.93160099  1
  Al  Al6  1  0.88629682  0.21881135  0.16054477  1
  Al  Al7  1  0.44352137  0.09139466  0.92678841  1
  Al  Al8  1  0.10053980  0.43501533  0.39775095  1
  Al  Al9  1  0.22732915  0.53817018  0.15812671  1
  Al  Al10  1  0.77622514  0.40873253  0.90347180  1
  Al  Al11  1  0.89952964  0.53515043  0.65783791  1
  Al  Al12  1  0.43494144  0.43072857  0.39407588  1
  Al  Al13  1  0.55270139  0.53049381  0.15258708  1
  Al  Al14  1  0.13335266  0.40943067  0.90144021  1
  Al  Al15  1  0.23074382  0.52682511  0.63636591  1
  Al  Al16  1  0.77386374  0.44660597  0.39938691  1
  Al  Al17  1  0.44865432  0.41811288  0.90851155  1
  Al  Al18  1  0.54848428  0.53035866  0.64646134  1
  Al  Al19  1  0.12009046  0.74327847  0.38473730  1
  Al  Al20  1  0.21703791  0.87873259  0.10472693  1
  Al  Al21  1  0.77083593  0.79364801  0.82526414  1
  Al  Al22  1  0.90806761  0.85192780  0.57945345  1
  Al  Al23  1  0.43646680  0.75563376  0.32387106  1
  Al  Al24  1  0.54337654  0.88921195  0.16138202  1
  Al  Al25  1  0.23131412  0.85161309  0.56508432  1
  Al  Al26  1  0.78134104  0.75594755  0.32673292  1
  Al  Al27  1  0.89219898  0.87982633  0.14561887  1
  Gd  Gd28  1  0.89209025  0.20591932  0.65277689  1
  Gd  Gd29  1  0.23380547  0.19020347  0.65145186  1
  Gd  Gd30  1  0.76022472  0.10804671  0.37558720  1
  Gd  Gd31  1  0.56460148  0.18832363  0.68180486  1
  Gd  Gd32  1  0.88474813  0.54934643  0.10681049  1
  Gd  Gd33  1  0.11069788  0.75084607  0.88832684  1
  Gd  Gd34  1  0.45741083  0.75556769  0.86859404  1
  Gd  Gd35  1  0.57244101  0.83969639  0.58084344  1
  N  N36  1  0.21176105  0.21621365  0.34064527  1
  N  N37  1  0.10315726  0.11044077  0.11666096  1
  N  N38  1  0.89594797  0.19450348  0.87385951  1
  N  N39  1  0.79369667  0.06615268  0.59139675  1
  N  N40  1  0.51070687  0.23487930  0.31347925  1
  N  N41  1  0.43286128  0.09455068  0.10766282  1
  N  N42  1  0.22583538  0.19668699  0.87135638  1
  N  N43  1  0.12370706  0.06756088  0.56908262  1
  N  N44  1  0.89500645  0.23357752  0.34387877  1
  N  N45  1  0.78232125  0.10118475  0.12734522  1
  N  N46  1  0.55855600  0.20005739  0.91344813  1
  N  N47  1  0.45663046  0.09612467  0.55595713  1
  N  N48  1  0.22043400  0.53359188  0.34021956  1
  N  N49  1  0.14550712  0.41937415  0.08437145  1
  N  N50  1  0.89591141  0.52321881  0.85599405  1
  N  N51  1  0.75724034  0.47325505  0.58283253  1
  N  N52  1  0.55580783  0.53164873  0.33666123  1
  N  N53  1  0.43123436  0.44974533  0.08888934  1
  N  N54  1  0.25231051  0.48930239  0.81906968  1
  N  N55  1  0.10021935  0.44242385  0.58094692  1
  N  N56  1  0.88777767  0.54044883  0.33792592  1
  N  N57  1  0.75368831  0.42026462  0.08441453  1
  N  N58  1  0.57912341  0.48292592  0.82649787  1
  N  N59  1  0.44391880  0.43140744  0.57478050  1
  N  N60  1  0.22551339  0.86394595  0.37209304  1
  N  N61  1  0.10949999  0.76013749  0.12060989  1
  N  N62  1  0.86315999  0.89504061  0.89164826  1
  N  N63  1  0.81827373  0.74785065  0.65204962  1
  N  N64  1  0.54860636  0.87132105  0.35057207  1
  N  N65  1  0.44440386  0.76380026  0.13627516  1
  N  N66  1  0.21390630  0.89660879  0.92177837  1
  N  N67  1  0.12383666  0.74142504  0.58163428  1
  N  N68  1  0.90214988  0.84564198  0.36685933  1
  N  N69  1  0.75660618  0.80199996  0.14749028  1
  N  N70  1  0.55429030  0.91102049  0.82946163  1
  N  N71  1  0.41980502  0.74705021  0.64824569  1
