# generated using pymatgen
data_Gd2Al7N9
_symmetry_space_group_name_H-M   'P 1'
_cell_length_a   9.84429374
_cell_length_b   9.88759842
_cell_length_c   10.58601727
_cell_angle_alpha   88.96690085
_cell_angle_beta   89.58006659
_cell_angle_gamma   60.11724412
_symmetry_Int_Tables_number   1
_chemical_formula_structural   Gd2Al7N9
_chemical_formula_sum   'Gd8 Al28 N36'
_cell_volume   893.26249061
_cell_formula_units_Z   4
loop_
 _symmetry_equiv_pos_site_id
 _symmetry_equiv_pos_as_xyz
  1  'x, y, z'
loop_
 _atom_site_type_symbol
 _atom_site_label
 _atom_site_symmetry_multiplicity
 _atom_site_fract_x
 _atom_site_fract_y
 _atom_site_fract_z
 _atom_site_occupancy
  Al  Al0  1  0.11386635  0.10073591  0.29452094  1
  Al  Al1  1  0.22778007  0.20191640  0.05205441  1
  Al  Al2  1  0.76636606  0.10094994  0.88110786  1
  Al  Al3  1  0.44049616  0.09317879  0.27954333  1
  Al  Al4  1  0.54096020  0.21721124  0.05734894  1
  Al  Al5  1  0.11328622  0.08996675  0.81808907  1
  Al  Al6  1  0.89737393  0.20052228  0.04933315  1
  Al  Al7  1  0.44508115  0.09740546  0.81777673  1
  Al  Al8  1  0.12541619  0.41802645  0.29243205  1
  Al  Al9  1  0.23298026  0.53312363  0.05368631  1
  Al  Al10  1  0.77048989  0.42677115  0.87173984  1
  Al  Al11  1  0.88930031  0.54740563  0.64334142  1
  Al  Al12  1  0.44190650  0.42938881  0.29245492  1
  Al  Al13  1  0.54712599  0.53742793  0.05100222  1
  Al  Al14  1  0.12573228  0.42023215  0.81238013  1
  Al  Al15  1  0.21908212  0.54470742  0.54586769  1
  Al  Al16  1  0.78969574  0.44137198  0.37555442  1
  Al  Al17  1  0.44142069  0.42947089  0.80646629  1
  Al  Al18  1  0.53761564  0.55413515  0.54265249  1
  Al  Al19  1  0.11777580  0.74435697  0.30276227  1
  Al  Al20  1  0.21985450  0.87252750  0.06610586  1
  Al  Al21  1  0.77327707  0.78184324  0.81423496  1
  Al  Al22  1  0.90380931  0.84815546  0.53221958  1
  Al  Al23  1  0.44565246  0.75691257  0.29196253  1
  Al  Al24  1  0.55535515  0.87998290  0.05699111  1
  Al  Al25  1  0.21761537  0.86535060  0.53138304  1
  Al  Al26  1  0.78087438  0.75663727  0.28600656  1
  Al  Al27  1  0.89217862  0.87223297  0.05743243  1
  Gd  Gd28  1  0.87343292  0.20754625  0.59773125  1
  Gd  Gd29  1  0.20412920  0.20272982  0.55581232  1
  Gd  Gd30  1  0.79134975  0.09135411  0.31209746  1
  Gd  Gd31  1  0.52971542  0.21773151  0.54815343  1
  Gd  Gd32  1  0.89584604  0.53898922  0.07550324  1
  Gd  Gd33  1  0.10280610  0.76753275  0.78906188  1
  Gd  Gd34  1  0.43665615  0.77419297  0.79954867  1
  Gd  Gd35  1  0.58048971  0.85412736  0.53984795  1
  N  N36  1  0.23144798  0.19708335  0.33989704  1
  N  N37  1  0.10803272  0.09848916  0.11134691  1
  N  N38  1  0.88811203  0.20384898  0.85109747  1
  N  N39  1  0.77896095  0.06215425  0.54431091  1
  N  N40  1  0.53004351  0.21387991  0.33112292  1
  N  N41  1  0.44234844  0.09524328  0.09896529  1
  N  N42  1  0.21818929  0.20506449  0.86664417  1
  N  N43  1  0.12487540  0.04442876  0.64163184  1
  N  N44  1  0.91631395  0.22096082  0.37429372  1
  N  N45  1  0.77712261  0.09990767  0.07456087  1
  N  N46  1  0.54611863  0.21470826  0.86598858  1
  N  N47  1  0.43889350  0.07887758  0.64135816  1
  N  N48  1  0.23119746  0.52625246  0.36052774  1
  N  N49  1  0.15342565  0.40578786  0.11296736  1
  N  N50  1  0.88640819  0.53673486  0.83463659  1
  N  N51  1  0.75851984  0.48213831  0.56674109  1
  N  N52  1  0.55369498  0.53465973  0.35637480  1
  N  N53  1  0.44429774  0.43188860  0.11167653  1
  N  N54  1  0.23287562  0.51947887  0.87459173  1
  N  N55  1  0.11207412  0.44736394  0.63093323  1
  N  N56  1  0.89645559  0.53523264  0.30452163  1
  N  N57  1  0.76680869  0.41262375  0.05636284  1
  N  N58  1  0.55134061  0.52543216  0.86768896  1
  N  N59  1  0.42742254  0.46170457  0.62489533  1
  N  N60  1  0.21802825  0.87495078  0.34437089  1
  N  N61  1  0.11278427  0.75409290  0.11492471  1
  N  N62  1  0.87065022  0.88500131  0.87923872  1
  N  N63  1  0.81423364  0.75928717  0.63932772  1
  N  N64  1  0.55617895  0.87043951  0.32639053  1
  N  N65  1  0.44723418  0.75672687  0.10636471  1
  N  N66  1  0.20419290  0.89359825  0.89203157  1
  N  N67  1  0.11430119  0.75693721  0.57263263  1
  N  N68  1  0.90618760  0.82975862  0.35367136  1
  N  N69  1  0.76400823  0.79524975  0.11112113  1
  N  N70  1  0.56730547  0.88598410  0.87594470  1
  N  N71  1  0.42447244  0.76064589  0.58409643  1
