# generated using pymatgen
data_Gd2Al7N9
_symmetry_space_group_name_H-M   'P 1'
_cell_length_a   9.80392661
_cell_length_b   9.93397145
_cell_length_c   10.64728198
_cell_angle_alpha   89.13964508
_cell_angle_beta   89.50573133
_cell_angle_gamma   59.83015110
_symmetry_Int_Tables_number   1
_chemical_formula_structural   Gd2Al7N9
_chemical_formula_sum   'Gd8 Al28 N36'
_cell_volume   896.39040047
_cell_formula_units_Z   4
loop_
 _symmetry_equiv_pos_site_id
 _symmetry_equiv_pos_as_xyz
  1  'x, y, z'
loop_
 _atom_site_type_symbol
 _atom_site_label
 _atom_site_symmetry_multiplicity
 _atom_site_fract_x
 _atom_site_fract_y
 _atom_site_fract_z
 _atom_site_occupancy
  Al  Al0  1  0.11550753  0.10731751  0.31198578  1
  Al  Al1  1  0.22967046  0.20411046  0.06214648  1
  Al  Al2  1  0.76191129  0.09888152  0.89996359  1
  Al  Al3  1  0.44194285  0.08786737  0.29266099  1
  Al  Al4  1  0.54820491  0.21381141  0.11141661  1
  Al  Al5  1  0.11430710  0.08701380  0.83096161  1
  Al  Al6  1  0.89791786  0.20077643  0.06004430  1
  Al  Al7  1  0.44435269  0.09468066  0.82171341  1
  Al  Al8  1  0.12644864  0.42061347  0.30250030  1
  Al  Al9  1  0.23877816  0.53275304  0.06153849  1
  Al  Al10  1  0.77531109  0.41925515  0.88372891  1
  Al  Al11  1  0.88489704  0.55209832  0.65455924  1
  Al  Al12  1  0.43891478  0.43433640  0.30324408  1
  Al  Al13  1  0.56621036  0.53408692  0.13584267  1
  Al  Al14  1  0.12554233  0.42075451  0.82232275  1
  Al  Al15  1  0.21540832  0.54431932  0.55604175  1
  Al  Al16  1  0.78593586  0.45039576  0.39259135  1
  Al  Al17  1  0.44725831  0.40868445  0.80942370  1
  Al  Al18  1  0.54311667  0.54556166  0.63532015  1
  Al  Al19  1  0.12044197  0.74426101  0.31848894  1
  Al  Al20  1  0.21490063  0.87889344  0.08240772  1
  Al  Al21  1  0.77491492  0.78333659  0.82599218  1
  Al  Al22  1  0.89592201  0.85244304  0.54418839  1
  Al  Al23  1  0.44351884  0.76758078  0.30231625  1
  Al  Al24  1  0.55915217  0.88632747  0.06671966  1
  Al  Al25  1  0.21408381  0.86517808  0.55531500  1
  Al  Al26  1  0.78145078  0.75855001  0.30150833  1
  Al  Al27  1  0.89610776  0.87123057  0.07302030  1
  Gd  Gd28  1  0.85309968  0.21691821  0.62203021  1
  Gd  Gd29  1  0.18592055  0.20747669  0.56750610  1
  Gd  Gd30  1  0.80691547  0.09094543  0.33010442  1
  Gd  Gd31  1  0.51756238  0.21046906  0.54256561  1
  Gd  Gd32  1  0.89691270  0.54179083  0.08662820  1
  Gd  Gd33  1  0.10759002  0.76869246  0.79911572  1
  Gd  Gd34  1  0.44959184  0.75116977  0.85548757  1
  Gd  Gd35  1  0.56582952  0.84219891  0.56459971  1
  N  N36  1  0.23540705  0.20223577  0.35532219  1
  N  N37  1  0.10663435  0.10317269  0.13011588  1
  N  N38  1  0.89272803  0.19688500  0.87257347  1
  N  N39  1  0.77166940  0.06844111  0.54934659  1
  N  N40  1  0.53905959  0.21271188  0.31654712  1
  N  N41  1  0.44224261  0.09454785  0.11460450  1
  N  N42  1  0.21716016  0.20546030  0.87842723  1
  N  N43  1  0.10722716  0.04996825  0.65662469  1
  N  N44  1  0.92128056  0.22797826  0.39939487  1
  N  N45  1  0.77970879  0.09915793  0.09150166  1
  N  N46  1  0.55093681  0.20235698  0.86195357  1
  N  N47  1  0.42672220  0.07898949  0.64658829  1
  N  N48  1  0.23245407  0.52632390  0.37253434  1
  N  N49  1  0.15618937  0.40797206  0.12334188  1
  N  N50  1  0.88573414  0.53637937  0.84528823  1
  N  N51  1  0.74797468  0.49718435  0.57071756  1
  N  N52  1  0.56495851  0.53820772  0.31964183  1
  N  N53  1  0.44580392  0.43612061  0.12182067  1
  N  N54  1  0.23771395  0.51856570  0.88299676  1
  N  N55  1  0.10744195  0.44908549  0.64156166  1
  N  N56  1  0.89783809  0.53667801  0.31459033  1
  N  N57  1  0.76257321  0.41740436  0.06236502  1
  N  N58  1  0.58352882  0.49178924  0.81050948  1
  N  N59  1  0.42273474  0.44556565  0.62625235  1
  N  N60  1  0.22213702  0.87817384  0.36493603  1
  N  N61  1  0.11684731  0.75480386  0.13159151  1
  N  N62  1  0.87534181  0.88065504  0.89571228  1
  N  N63  1  0.80559551  0.76504565  0.65105977  1
  N  N64  1  0.55611150  0.87172252  0.34831916  1
  N  N65  1  0.44797148  0.76555198  0.11448603  1
  N  N66  1  0.20069151  0.89559757  0.91006525  1
  N  N67  1  0.10866668  0.75661243  0.58358476  1
  N  N68  1  0.90764487  0.83134269  0.36621792  1
  N  N69  1  0.76503575  0.79695000  0.12690250  1
  N  N70  1  0.56841033  0.88699606  0.88698144  1
  N  N71  1  0.40821506  0.75748359  0.63753967  1
