# generated using pymatgen
data_Gd2Al7N9
_symmetry_space_group_name_H-M   'P 1'
_cell_length_a   9.77625587
_cell_length_b   9.87344750
_cell_length_c   10.77471595
_cell_angle_alpha   89.31871298
_cell_angle_beta   89.19114674
_cell_angle_gamma   59.91052047
_symmetry_Int_Tables_number   1
_chemical_formula_structural   Gd2Al7N9
_chemical_formula_sum   'Gd8 Al28 N36'
_cell_volume   899.77837999
_cell_formula_units_Z   4
loop_
 _symmetry_equiv_pos_site_id
 _symmetry_equiv_pos_as_xyz
  1  'x, y, z'
loop_
 _atom_site_type_symbol
 _atom_site_label
 _atom_site_symmetry_multiplicity
 _atom_site_fract_x
 _atom_site_fract_y
 _atom_site_fract_z
 _atom_site_occupancy
  Al  Al0  1  0.11075438  0.09923067  0.31742962  1
  Al  Al1  1  0.22577720  0.20436760  0.11695670  1
  Al  Al2  1  0.76649319  0.09381949  0.91408747  1
  Al  Al3  1  0.44297463  0.09454353  0.36788932  1
  Al  Al4  1  0.54365129  0.21585037  0.14422320  1
  Al  Al5  1  0.12299999  0.08710819  0.83828711  1
  Al  Al6  1  0.89557415  0.19976408  0.06949533  1
  Al  Al7  1  0.44010952  0.10090315  0.91818849  1
  Al  Al8  1  0.12050459  0.43072608  0.30508105  1
  Al  Al9  1  0.23078158  0.54049317  0.07379262  1
  Al  Al10  1  0.77633356  0.41443982  0.89021830  1
  Al  Al11  1  0.88711392  0.55435338  0.66625945  1
  Al  Al12  1  0.44700959  0.43112373  0.38475248  1
  Al  Al13  1  0.56248134  0.52477740  0.14664323  1
  Al  Al14  1  0.13147359  0.41484620  0.83062570  1
  Al  Al15  1  0.21401560  0.54676926  0.55707262  1
  Al  Al16  1  0.78597390  0.44988390  0.40104213  1
  Al  Al17  1  0.46142009  0.40672835  0.90334941  1
  Al  Al18  1  0.54256210  0.53950785  0.63995303  1
  Al  Al19  1  0.11578848  0.74922973  0.32684872  1
  Al  Al20  1  0.21453325  0.87729964  0.08715209  1
  Al  Al21  1  0.77199344  0.78430175  0.83772279  1
  Al  Al22  1  0.89652061  0.85481393  0.55801901  1
  Al  Al23  1  0.44127196  0.76465649  0.30807787  1
  Al  Al24  1  0.55822504  0.87903007  0.09155611  1
  Al  Al25  1  0.21770323  0.86704367  0.56726600  1
  Al  Al26  1  0.78181965  0.75773296  0.30973436  1
  Al  Al27  1  0.89373333  0.87355370  0.08548124  1
  Gd  Gd28  1  0.86118032  0.21962466  0.63494968  1
  Gd  Gd29  1  0.17009423  0.22367110  0.54989717  1
  Gd  Gd30  1  0.79105811  0.09944613  0.35624086  1
  Gd  Gd31  1  0.53113489  0.20254572  0.64590434  1
  Gd  Gd32  1  0.89341941  0.54347304  0.08987642  1
  Gd  Gd33  1  0.10833319  0.76565502  0.80937772  1
  Gd  Gd34  1  0.45481155  0.74535653  0.86261305  1
  Gd  Gd35  1  0.57231038  0.82998508  0.56224511  1
  N  N36  1  0.22478336  0.20539796  0.32933085  1
  N  N37  1  0.10113469  0.09785066  0.13963189  1
  N  N38  1  0.89704157  0.19099138  0.88180069  1
  N  N39  1  0.77379303  0.07192460  0.57073694  1
  N  N40  1  0.52858932  0.22454379  0.31989374  1
  N  N41  1  0.44440763  0.09936832  0.09643671  1
  N  N42  1  0.21872338  0.20580908  0.88776485  1
  N  N43  1  0.11850993  0.05737062  0.66269343  1
  N  N44  1  0.92381572  0.22639866  0.41242349  1
  N  N45  1  0.77584572  0.10037980  0.10304250  1
  N  N46  1  0.55639527  0.19453060  0.86286945  1
  N  N47  1  0.42545181  0.08945827  0.54514900  1
  N  N48  1  0.21992231  0.53479698  0.37683765  1
  N  N49  1  0.14879490  0.41855396  0.13174001  1
  N  N50  1  0.88448457  0.53431660  0.85113764  1
  N  N51  1  0.74996002  0.50067778  0.57836368  1
  N  N52  1  0.56484102  0.53197092  0.32539945  1
  N  N53  1  0.45499896  0.42826234  0.08289612  1
  N  N54  1  0.23506521  0.51977724  0.89428666  1
  N  N55  1  0.11377091  0.44961591  0.65129647  1
  N  N56  1  0.89486374  0.53654734  0.32128402  1
  N  N57  1  0.75957643  0.41778525  0.06716479  1
  N  N58  1  0.58372520  0.47623335  0.81244033  1
  N  N59  1  0.44269653  0.44395531  0.56203906  1
  N  N60  1  0.22248832  0.87584950  0.37651441  1
  N  N61  1  0.11442969  0.75783258  0.14182201  1
  N  N62  1  0.87697407  0.87615901  0.90936574  1
  N  N63  1  0.80092687  0.77107524  0.66391021  1
  N  N64  1  0.55774751  0.86451747  0.34792496  1
  N  N65  1  0.44411748  0.76144194  0.12561884  1
  N  N66  1  0.20586313  0.89231815  0.91611118  1
  N  N67  1  0.11036420  0.75808109  0.59634152  1
  N  N68  1  0.90174777  0.83618097  0.38051320  1
  N  N69  1  0.76674604  0.79548885  0.13884222  1
  N  N70  1  0.56957551  0.88131441  0.90498585  1
  N  N71  1  0.41168055  0.75485600  0.65030356  1
