# generated using pymatgen
data_Gd2Al7N9
_symmetry_space_group_name_H-M   'P 1'
_cell_length_a   9.85280300
_cell_length_b   9.89667072
_cell_length_c   10.55611363
_cell_angle_alpha   88.91967167
_cell_angle_beta   89.61242585
_cell_angle_gamma   60.07240042
_symmetry_Int_Tables_number   1
_chemical_formula_structural   Gd2Al7N9
_chemical_formula_sum   'Gd8 Al28 N36'
_cell_volume   891.90944686
_cell_formula_units_Z   4
loop_
 _symmetry_equiv_pos_site_id
 _symmetry_equiv_pos_as_xyz
  1  'x, y, z'
loop_
 _atom_site_type_symbol
 _atom_site_label
 _atom_site_symmetry_multiplicity
 _atom_site_fract_x
 _atom_site_fract_y
 _atom_site_fract_z
 _atom_site_occupancy
  Al  Al0  1  0.11478218  0.09963073  0.29293609  1
  Al  Al1  1  0.22728614  0.20206016  0.05215640  1
  Al  Al2  1  0.76641468  0.10239060  0.88114243  1
  Al  Al3  1  0.43983726  0.09332223  0.27977663  1
  Al  Al4  1  0.54074012  0.21745504  0.05719874  1
  Al  Al5  1  0.11272011  0.09061154  0.81829003  1
  Al  Al6  1  0.89422329  0.20542361  0.04833696  1
  Al  Al7  1  0.44499737  0.09732866  0.81832649  1
  Al  Al8  1  0.12444988  0.41846167  0.29222393  1
  Al  Al9  1  0.23274530  0.53331580  0.05430287  1
  Al  Al10  1  0.76774662  0.43198106  0.83819033  1
  Al  Al11  1  0.89051101  0.54836905  0.64720370  1
  Al  Al12  1  0.44138873  0.42835570  0.29285081  1
  Al  Al13  1  0.54999023  0.53535229  0.05247751  1
  Al  Al14  1  0.12763316  0.42035316  0.81346844  1
  Al  Al15  1  0.21942953  0.54510890  0.54649650  1
  Al  Al16  1  0.78581122  0.43147468  0.32643029  1
  Al  Al17  1  0.44192165  0.42954121  0.80769147  1
  Al  Al18  1  0.54325188  0.55093810  0.54827061  1
  Al  Al19  1  0.11778436  0.74423326  0.30243952  1
  Al  Al20  1  0.21983598  0.87281304  0.06577542  1
  Al  Al21  1  0.77343033  0.78343301  0.81442511  1
  Al  Al22  1  0.90412804  0.84826128  0.53216903  1
  Al  Al23  1  0.44533433  0.75841779  0.29279236  1
  Al  Al24  1  0.55502308  0.87983399  0.05732946  1
  Al  Al25  1  0.21810696  0.86508727  0.53128375  1
  Al  Al26  1  0.78123069  0.75554305  0.28565196  1
  Al  Al27  1  0.89190576  0.87258105  0.05697276  1
  Gd  Gd28  1  0.87536422  0.20821240  0.59051797  1
  Gd  Gd29  1  0.20493381  0.20341197  0.55662260  1
  Gd  Gd30  1  0.78985811  0.08855469  0.31005765  1
  Gd  Gd31  1  0.53056195  0.21829430  0.54954474  1
  Gd  Gd32  1  0.89507313  0.53956455  0.06851810  1
  Gd  Gd33  1  0.10306716  0.76752519  0.78934994  1
  Gd  Gd34  1  0.43821317  0.77186852  0.79930526  1
  Gd  Gd35  1  0.58015485  0.85546863  0.54076232  1
  N  N36  1  0.23062321  0.19701301  0.34000427  1
  N  N37  1  0.10757416  0.09881144  0.11017190  1
  N  N38  1  0.88743985  0.20717442  0.85413165  1
  N  N39  1  0.77900443  0.06191982  0.54352148  1
  N  N40  1  0.52938810  0.21351869  0.33195006  1
  N  N41  1  0.44215518  0.09538750  0.09882391  1
  N  N42  1  0.21855682  0.20513901  0.86631929  1
  N  N43  1  0.12479699  0.04520978  0.64096930  1
  N  N44  1  0.91411221  0.22108557  0.36943856  1
  N  N45  1  0.77664489  0.10014880  0.07392047  1
  N  N46  1  0.54607879  0.21462769  0.86566173  1
  N  N47  1  0.43920908  0.07938559  0.64138291  1
  N  N48  1  0.23140262  0.52627366  0.36072186  1
  N  N49  1  0.15226753  0.40626535  0.11287157  1
  N  N50  1  0.89078620  0.53944895  0.83877628  1
  N  N51  1  0.74930938  0.47750884  0.61896611  1
  N  N52  1  0.55895875  0.53192075  0.35827562  1
  N  N53  1  0.44355873  0.43201584  0.11247841  1
  N  N54  1  0.23404405  0.51967916  0.87507001  1
  N  N55  1  0.11225579  0.44790786  0.63140833  1
  N  N56  1  0.89613444  0.53553111  0.30653937  1
  N  N57  1  0.76536158  0.41309302  0.08173808  1
  N  N58  1  0.55350459  0.52334149  0.87231890  1
  N  N59  1  0.42651281  0.46276898  0.62585975  1
  N  N60  1  0.21792135  0.87483220  0.34405502  1
  N  N61  1  0.11253910  0.75449191  0.11455320  1
  N  N62  1  0.87052830  0.88659313  0.87841672  1
  N  N63  1  0.81464522  0.75957654  0.63879504  1
  N  N64  1  0.55639834  0.87070937  0.32664744  1
  N  N65  1  0.44694382  0.75687820  0.10716529  1
  N  N66  1  0.20528012  0.89332011  0.89102054  1
  N  N67  1  0.11445561  0.75735261  0.57255040  1
  N  N68  1  0.90663158  0.82843698  0.35342126  1
  N  N69  1  0.76410953  0.79504645  0.11069065  1
  N  N70  1  0.56724822  0.88547631  0.87549893  1
  N  N71  1  0.42508338  0.76029972  0.58203505  1
