# generated using pymatgen
data_Gd2Al7N9
_symmetry_space_group_name_H-M   'P 1'
_cell_length_a   9.77827875
_cell_length_b   9.87153843
_cell_length_c   10.77492827
_cell_angle_alpha   89.32471072
_cell_angle_beta   89.22123015
_cell_angle_gamma   59.92988326
_symmetry_Int_Tables_number   1
_chemical_formula_structural   Gd2Al7N9
_chemical_formula_sum   'Gd8 Al28 N36'
_cell_volume   899.99002275
_cell_formula_units_Z   4
loop_
 _symmetry_equiv_pos_site_id
 _symmetry_equiv_pos_as_xyz
  1  'x, y, z'
loop_
 _atom_site_type_symbol
 _atom_site_label
 _atom_site_symmetry_multiplicity
 _atom_site_fract_x
 _atom_site_fract_y
 _atom_site_fract_z
 _atom_site_occupancy
  Al  Al0  1  0.11169509  0.10173027  0.30916954  1
  Al  Al1  1  0.22211003  0.20649678  0.08997710  1
  Al  Al2  1  0.76673511  0.09390825  0.90670342  1
  Al  Al3  1  0.44193618  0.09528820  0.36149403  1
  Al  Al4  1  0.54239848  0.21592475  0.13741073  1
  Al  Al5  1  0.12196558  0.08663743  0.83187712  1
  Al  Al6  1  0.89459457  0.20031782  0.06262132  1
  Al  Al7  1  0.44389352  0.09890886  0.91002950  1
  Al  Al8  1  0.12202469  0.42750304  0.29711521  1
  Al  Al9  1  0.23028034  0.54051630  0.06678150  1
  Al  Al10  1  0.77615230  0.41464829  0.88297339  1
  Al  Al11  1  0.88763236  0.55402713  0.65901033  1
  Al  Al12  1  0.44678275  0.43131694  0.37718210  1
  Al  Al13  1  0.56191232  0.52503084  0.13947677  1
  Al  Al14  1  0.13040480  0.41617346  0.82457108  1
  Al  Al15  1  0.21431693  0.54651149  0.54947169  1
  Al  Al16  1  0.78606464  0.45001683  0.39346407  1
  Al  Al17  1  0.46129026  0.40696216  0.89618568  1
  Al  Al18  1  0.54269377  0.53960070  0.63248670  1
  Al  Al19  1  0.11579958  0.74906107  0.31963096  1
  Al  Al20  1  0.21428643  0.87748904  0.08027249  1
  Al  Al21  1  0.77270316  0.78371688  0.83035901  1
  Al  Al22  1  0.89701899  0.85460170  0.55051188  1
  Al  Al23  1  0.44081069  0.76513575  0.30095637  1
  Al  Al24  1  0.55728122  0.87972115  0.08508524  1
  Al  Al25  1  0.21800121  0.86704273  0.55977387  1
  Al  Al26  1  0.78164091  0.75808029  0.30267055  1
  Al  Al27  1  0.89348176  0.87376963  0.07818213  1
  Gd  Gd28  1  0.86222687  0.21967112  0.62656525  1
  Gd  Gd29  1  0.17173407  0.22303318  0.54419591  1
  Gd  Gd30  1  0.79145863  0.09925698  0.34847901  1
  Gd  Gd31  1  0.53293428  0.20273713  0.63794628  1
  Gd  Gd32  1  0.89180409  0.54434274  0.08435368  1
  Gd  Gd33  1  0.10825476  0.76571120  0.80175753  1
  Gd  Gd34  1  0.45469283  0.74513553  0.85532514  1
  Gd  Gd35  1  0.57310736  0.82942839  0.55503997  1
  N  N36  1  0.22391089  0.20679553  0.32912922  1
  N  N37  1  0.10118631  0.09932278  0.13112819  1
  N  N38  1  0.89683801  0.19129368  0.87473337  1
  N  N39  1  0.77511649  0.07156715  0.56321344  1
  N  N40  1  0.52863717  0.22436699  0.31295741  1
  N  N41  1  0.44328898  0.09999885  0.08816057  1
  N  N42  1  0.21738316  0.20642751  0.88736928  1
  N  N43  1  0.11913780  0.05678622  0.65673203  1
  N  N44  1  0.92316612  0.22669728  0.40452925  1
  N  N45  1  0.77526408  0.10064936  0.09565409  1
  N  N46  1  0.55673555  0.19478970  0.85478885  1
  N  N47  1  0.42726206  0.08843282  0.53997454  1
  N  N48  1  0.21977036  0.53444082  0.36899684  1
  N  N49  1  0.14825293  0.41753344  0.12321725  1
  N  N50  1  0.88488424  0.53399384  0.84411173  1
  N  N51  1  0.75010954  0.50090734  0.57106312  1
  N  N52  1  0.56457094  0.53234749  0.31805477  1
  N  N53  1  0.45456064  0.42824168  0.07575604  1
  N  N54  1  0.23511339  0.51993559  0.88720330  1
  N  N55  1  0.11456860  0.44932897  0.64544937  1
  N  N56  1  0.89488306  0.53667360  0.31338681  1
  N  N57  1  0.75871415  0.41819235  0.05971923  1
  N  N58  1  0.58361820  0.47631529  0.80512944  1
  N  N59  1  0.44264598  0.44442402  0.55438137  1
  N  N60  1  0.22212599  0.87654755  0.36879857  1
  N  N61  1  0.11406461  0.75799664  0.13455407  1
  N  N62  1  0.87702736  0.87627883  0.90201388  1
  N  N63  1  0.80193139  0.77059640  0.65667881  1
  N  N64  1  0.55739649  0.86503662  0.34073145  1
  N  N65  1  0.44383655  0.76166198  0.11834374  1
  N  N66  1  0.20592911  0.89203542  0.90914477  1
  N  N67  1  0.11081954  0.75784036  0.58877704  1
  N  N68  1  0.90187549  0.83604780  0.37327780  1
  N  N69  1  0.76587871  0.79659862  0.13173753  1
  N  N70  1  0.57021791  0.88050712  0.89724149  1
  N  N71  1  0.41186251  0.75489112  0.64304097  1
