# generated using pymatgen
data_Gd2Al7N9
_symmetry_space_group_name_H-M   'P 1'
_cell_length_a   9.83231181
_cell_length_b   9.92528385
_cell_length_c   10.65552085
_cell_angle_alpha   89.20858894
_cell_angle_beta   89.38236713
_cell_angle_gamma   59.93564948
_symmetry_Int_Tables_number   1
_chemical_formula_structural   Gd2Al7N9
_chemical_formula_sum   'Gd8 Al28 N36'
_cell_volume   899.86251972
_cell_formula_units_Z   4
loop_
 _symmetry_equiv_pos_site_id
 _symmetry_equiv_pos_as_xyz
  1  'x, y, z'
loop_
 _atom_site_type_symbol
 _atom_site_label
 _atom_site_symmetry_multiplicity
 _atom_site_fract_x
 _atom_site_fract_y
 _atom_site_fract_z
 _atom_site_occupancy
  Al  Al0  1  0.10612681  0.09961574  0.33454867  1
  Al  Al1  1  0.22902373  0.20363984  0.15400115  1
  Al  Al2  1  0.76554651  0.09737373  0.92876565  1
  Al  Al3  1  0.44201860  0.10093474  0.38336695  1
  Al  Al4  1  0.54067163  0.21739676  0.14208121  1
  Al  Al5  1  0.12712032  0.08603015  0.84782846  1
  Al  Al6  1  0.89708689  0.20228712  0.08406180  1
  Al  Al7  1  0.43860620  0.09306111  0.92073257  1
  Al  Al8  1  0.11250776  0.43411128  0.32407248  1
  Al  Al9  1  0.23800887  0.54288090  0.15773326  1
  Al  Al10  1  0.77905704  0.41189744  0.89972227  1
  Al  Al11  1  0.88557432  0.54876619  0.66621819  1
  Al  Al12  1  0.44084721  0.43150452  0.39729911  1
  Al  Al13  1  0.56246957  0.52568827  0.15795053  1
  Al  Al14  1  0.13028174  0.41275177  0.82568395  1
  Al  Al15  1  0.23039837  0.53485983  0.63697484  1
  Al  Al16  1  0.78297107  0.44949189  0.41267547  1
  Al  Al17  1  0.45004481  0.41675397  0.90846792  1
  Al  Al18  1  0.54253022  0.53516737  0.65180937  1
  Al  Al19  1  0.11408552  0.75814114  0.34532227  1
  Al  Al20  1  0.21494759  0.88189750  0.10174679  1
  Al  Al21  1  0.77364023  0.78949152  0.83434252  1
  Al  Al22  1  0.90203302  0.84990783  0.56689714  1
  Al  Al23  1  0.43873214  0.75792468  0.32835696  1
  Al  Al24  1  0.54888881  0.88586495  0.16095543  1
  Al  Al25  1  0.22049554  0.85667635  0.57948539  1
  Al  Al26  1  0.78826407  0.75467927  0.32478031  1
  Al  Al27  1  0.89126586  0.87680552  0.09853342  1
  Gd  Gd28  1  0.86100365  0.21636469  0.64580227  1
  Gd  Gd29  1  0.18157398  0.20384483  0.57536461  1
  Gd  Gd30  1  0.78206401  0.10363871  0.36640042  1
  Gd  Gd31  1  0.53480842  0.19487877  0.66982250  1
  Gd  Gd32  1  0.89494287  0.54801575  0.09221595  1
  Gd  Gd33  1  0.10584004  0.78650808  0.82222331  1
  Gd  Gd34  1  0.46597481  0.74368197  0.88127423  1
  Gd  Gd35  1  0.56788747  0.83461080  0.59180731  1
  N  N36  1  0.22255840  0.20672067  0.34436801  1
  N  N37  1  0.10221608  0.10062920  0.15511231  1
  N  N38  1  0.90153202  0.18933209  0.89599788  1
  N  N39  1  0.77398413  0.06755895  0.58682595  1
  N  N40  1  0.52261410  0.22729905  0.32288302  1
  N  N41  1  0.43994507  0.09217068  0.10334351  1
  N  N42  1  0.22867031  0.20228825  0.86128336  1
  N  N43  1  0.11257397  0.04042066  0.67653516  1
  N  N44  1  0.91853598  0.22621144  0.42273626  1
  N  N45  1  0.77643310  0.10308423  0.11718552  1
  N  N46  1  0.55352843  0.19922782  0.89211728  1
  N  N47  1  0.43269858  0.08867822  0.55627604  1
  N  N48  1  0.23083557  0.53949903  0.34158103  1
  N  N49  1  0.14730998  0.41714711  0.14040027  1
  N  N50  1  0.88663559  0.53167313  0.85759642  1
  N  N51  1  0.74384046  0.49892510  0.58788306  1
  N  N52  1  0.56400176  0.52947339  0.33922446  1
  N  N53  1  0.44318274  0.44039651  0.08993262  1
  N  N54  1  0.25103914  0.51508389  0.82789112  1
  N  N55  1  0.10281535  0.44132879  0.64338043  1
  N  N56  1  0.89218647  0.53823244  0.33614170  1
  N  N57  1  0.76013971  0.42081530  0.08011109  1
  N  N58  1  0.58796374  0.47270120  0.82400641  1
  N  N59  1  0.44189437  0.43559877  0.57447453  1
  N  N60  1  0.22291763  0.87748372  0.39225140  1
  N  N61  1  0.10827318  0.77146178  0.15448953  1
  N  N62  1  0.87247319  0.87918358  0.91978967  1
  N  N63  1  0.81320216  0.75872889  0.66267535  1
  N  N64  1  0.55378835  0.86957061  0.35029771  1
  N  N65  1  0.44381988  0.76246347  0.14301721  1
  N  N66  1  0.21731799  0.89603997  0.93075446  1
  N  N67  1  0.11510227  0.74772695  0.60395092  1
  N  N68  1  0.90162698  0.84086532  0.38927591  1
  N  N69  1  0.76459202  0.79764499  0.15072221  1
  N  N70  1  0.55888745  0.89896626  0.84392261  1
  N  N71  1  0.41054893  0.74723141  0.66375949  1
