# generated using pymatgen
data_Gd2Al7N9
_symmetry_space_group_name_H-M   'P 1'
_cell_length_a   9.83141366
_cell_length_b   9.91075059
_cell_length_c   10.63414413
_cell_angle_alpha   89.13723874
_cell_angle_beta   89.59037738
_cell_angle_gamma   59.99900105
_symmetry_Int_Tables_number   1
_chemical_formula_structural   Gd2Al7N9
_chemical_formula_sum   'Gd8 Al28 N36'
_cell_volume   897.22638825
_cell_formula_units_Z   4
loop_
 _symmetry_equiv_pos_site_id
 _symmetry_equiv_pos_as_xyz
  1  'x, y, z'
loop_
 _atom_site_type_symbol
 _atom_site_label
 _atom_site_symmetry_multiplicity
 _atom_site_fract_x
 _atom_site_fract_y
 _atom_site_fract_z
 _atom_site_occupancy
  Al  Al0  1  0.11311152  0.10657979  0.30434445  1
  Al  Al1  1  0.22754408  0.20413863  0.05783487  1
  Al  Al2  1  0.77037941  0.09618733  0.88779451  1
  Al  Al3  1  0.44176182  0.09424435  0.28653484  1
  Al  Al4  1  0.54289270  0.21657181  0.06298515  1
  Al  Al5  1  0.11595864  0.08722163  0.82251732  1
  Al  Al6  1  0.89786415  0.20055360  0.05268935  1
  Al  Al7  1  0.44437200  0.09437408  0.82075988  1
  Al  Al8  1  0.12349906  0.42111805  0.29646810  1
  Al  Al9  1  0.23511074  0.53417470  0.05731198  1
  Al  Al10  1  0.77467472  0.42009902  0.87604522  1
  Al  Al11  1  0.88542003  0.55079297  0.64598295  1
  Al  Al12  1  0.43821975  0.42786106  0.29624914  1
  Al  Al13  1  0.56415276  0.53157302  0.12793082  1
  Al  Al14  1  0.12388427  0.42078062  0.81620390  1
  Al  Al15  1  0.21614319  0.54284005  0.54845397  1
  Al  Al16  1  0.78175251  0.45182910  0.38297301  1
  Al  Al17  1  0.44366809  0.41364064  0.80742626  1
  Al  Al18  1  0.54334365  0.54496676  0.63007672  1
  Al  Al19  1  0.11860066  0.74609141  0.31205943  1
  Al  Al20  1  0.21412629  0.87851162  0.07440005  1
  Al  Al21  1  0.77547563  0.78165324  0.81838525  1
  Al  Al22  1  0.89865049  0.85184438  0.53752622  1
  Al  Al23  1  0.44266453  0.76720703  0.29431922  1
  Al  Al24  1  0.55842539  0.88646944  0.06290637  1
  Al  Al25  1  0.21721637  0.86343827  0.54659506  1
  Al  Al26  1  0.78013156  0.76024990  0.29472251  1
  Al  Al27  1  0.89520429  0.87177029  0.06462066  1
  Gd  Gd28  1  0.86539761  0.21650778  0.60683956  1
  Gd  Gd29  1  0.19945900  0.20364535  0.56086297  1
  Gd  Gd30  1  0.79630504  0.09522554  0.31882704  1
  Gd  Gd31  1  0.52903162  0.20863129  0.54762032  1
  Gd  Gd32  1  0.89404209  0.54217837  0.08112053  1
  Gd  Gd33  1  0.10888854  0.76624298  0.79099177  1
  Gd  Gd34  1  0.44837528  0.75497391  0.84734273  1
  Gd  Gd35  1  0.56855948  0.84117394  0.55582513  1
  N  N36  1  0.23228637  0.20183189  0.34611578  1
  N  N37  1  0.10599432  0.10229778  0.12176270  1
  N  N38  1  0.89450501  0.19784125  0.86211808  1
  N  N39  1  0.78094889  0.06594406  0.55035254  1
  N  N40  1  0.53431272  0.21382277  0.33245988  1
  N  N41  1  0.44185940  0.09768366  0.10706553  1
  N  N42  1  0.21825573  0.20510812  0.87281315  1
  N  N43  1  0.11587421  0.04981103  0.64689191  1
  N  N44  1  0.91607511  0.22882665  0.38604461  1
  N  N45  1  0.77911509  0.09934597  0.08073272  1
  N  N46  1  0.54887422  0.20685197  0.87388504  1
  N  N47  1  0.43537918  0.07614943  0.64590552  1
  N  N48  1  0.23000277  0.52764365  0.36444177  1
  N  N49  1  0.15191107  0.40921624  0.11683328  1
  N  N50  1  0.88548151  0.53613894  0.83797563  1
  N  N51  1  0.74575666  0.49829148  0.56272934  1
  N  N52  1  0.56270441  0.53706202  0.31107168  1
  N  N53  1  0.44499863  0.43085070  0.11378463  1
  N  N54  1  0.23569458  0.51837993  0.87845445  1
  N  N55  1  0.10705914  0.44803815  0.63489404  1
  N  N56  1  0.89525642  0.53836495  0.30828612  1
  N  N57  1  0.76092908  0.41650321  0.05474857  1
  N  N58  1  0.58103528  0.49478107  0.80681600  1
  N  N59  1  0.41891567  0.44829807  0.62578324  1
  N  N60  1  0.22241357  0.87732081  0.35696416  1
  N  N61  1  0.11521693  0.75537096  0.12418254  1
  N  N62  1  0.87659321  0.87949139  0.88618332  1
  N  N63  1  0.80707999  0.76358557  0.64307750  1
  N  N64  1  0.55470428  0.87312056  0.33924338  1
  N  N65  1  0.44658423  0.76499657  0.10635092  1
  N  N66  1  0.19994620  0.89553728  0.90147595  1
  N  N67  1  0.11091864  0.75538861  0.57560002  1
  N  N68  1  0.90535890  0.83464068  0.35931009  1
  N  N69  1  0.76478545  0.79770355  0.11987956  1
  N  N70  1  0.57077281  0.88699563  0.88272702  1
  N  N71  1  0.41076017  0.75712373  0.62863745  1
