# generated using pymatgen
data_Gd2Al7N9
_symmetry_space_group_name_H-M   'P 1'
_cell_length_a   9.80188946
_cell_length_b   9.87766278
_cell_length_c   10.70592899
_cell_angle_alpha   89.71895125
_cell_angle_beta   89.45471652
_cell_angle_gamma   60.10107467
_symmetry_Int_Tables_number   1
_chemical_formula_structural   Gd2Al7N9
_chemical_formula_sum   'Gd8 Al28 N36'
_cell_volume   898.54687240
_cell_formula_units_Z   4
loop_
 _symmetry_equiv_pos_site_id
 _symmetry_equiv_pos_as_xyz
  1  'x, y, z'
loop_
 _atom_site_type_symbol
 _atom_site_label
 _atom_site_symmetry_multiplicity
 _atom_site_fract_x
 _atom_site_fract_y
 _atom_site_fract_z
 _atom_site_occupancy
  Al  Al0  1  0.11103168  0.10739492  0.30936661  1
  Al  Al1  1  0.22773406  0.20378488  0.06448057  1
  Al  Al2  1  0.76612340  0.09267824  0.90329566  1
  Al  Al3  1  0.43772841  0.09571355  0.29547631  1
  Al  Al4  1  0.54484873  0.21858569  0.12628210  1
  Al  Al5  1  0.11705268  0.08417555  0.82730143  1
  Al  Al6  1  0.89569563  0.20160629  0.06015938  1
  Al  Al7  1  0.43987043  0.08567758  0.83198677  1
  Al  Al8  1  0.12158527  0.42359809  0.29785910  1
  Al  Al9  1  0.22845939  0.53872966  0.06560067  1
  Al  Al10  1  0.77455414  0.41266163  0.87702518  1
  Al  Al11  1  0.88830915  0.55176329  0.65078606  1
  Al  Al12  1  0.44432224  0.43512549  0.36973157  1
  Al  Al13  1  0.56001560  0.52970596  0.13517028  1
  Al  Al14  1  0.12652353  0.41762863  0.82017132  1
  Al  Al15  1  0.21305276  0.54714218  0.54293575  1
  Al  Al16  1  0.78192652  0.45396788  0.38686853  1
  Al  Al17  1  0.45789004  0.40573459  0.89314762  1
  Al  Al18  1  0.54214108  0.54313577  0.62456661  1
  Al  Al19  1  0.11475109  0.74958346  0.31426750  1
  Al  Al20  1  0.21331424  0.87984453  0.07788155  1
  Al  Al21  1  0.77388606  0.77954742  0.82595436  1
  Al  Al22  1  0.89968168  0.85272056  0.54483525  1
  Al  Al23  1  0.43972324  0.77008015  0.29925669  1
  Al  Al24  1  0.55548704  0.88531737  0.06924327  1
  Al  Al25  1  0.21910923  0.86378074  0.55493096  1
  Al  Al26  1  0.77724034  0.76096891  0.30040764  1
  Al  Al27  1  0.89192885  0.87279289  0.07491203  1
  Gd  Gd28  1  0.87204642  0.22047422  0.60940364  1
  Gd  Gd29  1  0.20938039  0.20441557  0.56174751  1
  Gd  Gd30  1  0.78936826  0.09761817  0.33953400  1
  Gd  Gd31  1  0.55117765  0.21642712  0.63925628  1
  Gd  Gd32  1  0.89180446  0.54271114  0.08409365  1
  Gd  Gd33  1  0.10529755  0.76344890  0.79857718  1
  Gd  Gd34  1  0.45253936  0.73977513  0.85379874  1
  Gd  Gd35  1  0.57063603  0.84172098  0.56305402  1
  N  N36  1  0.22794599  0.20584662  0.34910632  1
  N  N37  1  0.10430659  0.10302588  0.12746408  1
  N  N38  1  0.89581574  0.19035967  0.87099242  1
  N  N39  1  0.78249357  0.06840041  0.55676130  1
  N  N40  1  0.52793136  0.22828291  0.30668028  1
  N  N41  1  0.44024333  0.09566373  0.11449122  1
  N  N42  1  0.21702360  0.20366058  0.88038267  1
  N  N43  1  0.12008182  0.05493542  0.65063140  1
  N  N44  1  0.91427847  0.23122612  0.39168879  1
  N  N45  1  0.77691107  0.10043339  0.09209813  1
  N  N46  1  0.55515256  0.19292449  0.85711152  1
  N  N47  1  0.43712392  0.07676991  0.65301007  1
  N  N48  1  0.21805065  0.53584099  0.36176957  1
  N  N49  1  0.15052940  0.41018152  0.12082230  1
  N  N50  1  0.88413666  0.53183396  0.83907275  1
  N  N51  1  0.74746850  0.50311630  0.56531146  1
  N  N52  1  0.56141095  0.53871834  0.31366006  1
  N  N53  1  0.45231434  0.43200927  0.07186365  1
  N  N54  1  0.23253191  0.51854707  0.88435208  1
  N  N55  1  0.11291131  0.44916460  0.63992035  1
  N  N56  1  0.89276763  0.53909316  0.30896135  1
  N  N57  1  0.75643093  0.41935345  0.05519312  1
  N  N58  1  0.58150452  0.47184689  0.79772538  1
  N  N59  1  0.43724153  0.45237252  0.54623496  1
  N  N60  1  0.22056428  0.87864931  0.36463912  1
  N  N61  1  0.11260279  0.75850171  0.12944634  1
  N  N62  1  0.87471374  0.87547721  0.89837166  1
  N  N63  1  0.80883742  0.76573987  0.65193722  1
  N  N64  1  0.55173624  0.87572034  0.34792668  1
  N  N65  1  0.44332350  0.76528072  0.11369722  1
  N  N66  1  0.20408993  0.89112294  0.90479255  1
  N  N67  1  0.11151678  0.75651732  0.58481970  1
  N  N68  1  0.90248621  0.83490826  0.36730866  1
  N  N69  1  0.76106429  0.79810420  0.12743917  1
  N  N70  1  0.56802647  0.87904677  0.88941979  1
  N  N71  1  0.41213767  0.75618469  0.63954778  1
