# generated using pymatgen
data_Gd2Al7N9
_symmetry_space_group_name_H-M   'P 1'
_cell_length_a   9.80340357
_cell_length_b   9.86262004
_cell_length_c   10.72178838
_cell_angle_alpha   89.58667148
_cell_angle_beta   89.38954377
_cell_angle_gamma   60.16254702
_symmetry_Int_Tables_number   1
_chemical_formula_structural   Gd2Al7N9
_chemical_formula_sum   'Gd8 Al28 N36'
_cell_volume   899.18769779
_cell_formula_units_Z   4
loop_
 _symmetry_equiv_pos_site_id
 _symmetry_equiv_pos_as_xyz
  1  'x, y, z'
loop_
 _atom_site_type_symbol
 _atom_site_label
 _atom_site_symmetry_multiplicity
 _atom_site_fract_x
 _atom_site_fract_y
 _atom_site_fract_z
 _atom_site_occupancy
  Al  Al0  1  0.10959800  0.10537585  0.30969117  1
  Al  Al1  1  0.22453435  0.20475112  0.06772925  1
  Al  Al2  1  0.76827976  0.09336659  0.90614657  1
  Al  Al3  1  0.43575158  0.09648821  0.29207116  1
  Al  Al4  1  0.54477932  0.21911708  0.12348097  1
  Al  Al5  1  0.11684987  0.08585288  0.82843524  1
  Al  Al6  1  0.89537508  0.20263455  0.06232419  1
  Al  Al7  1  0.44082771  0.08860257  0.84502557  1
  Al  Al8  1  0.12028073  0.42370488  0.29865468  1
  Al  Al9  1  0.22780337  0.53955996  0.06699954  1
  Al  Al10  1  0.77315764  0.41481052  0.87814842  1
  Al  Al11  1  0.88891959  0.55050455  0.65238948  1
  Al  Al12  1  0.44384678  0.43307285  0.37018573  1
  Al  Al13  1  0.55933621  0.53101895  0.13629686  1
  Al  Al14  1  0.12699668  0.41746114  0.82154204  1
  Al  Al15  1  0.21447685  0.54566557  0.54478893  1
  Al  Al16  1  0.78220240  0.45160648  0.38712610  1
  Al  Al17  1  0.45705032  0.41121369  0.89583688  1
  Al  Al18  1  0.54466658  0.54146416  0.62216056  1
  Al  Al19  1  0.11424239  0.74910963  0.31568195  1
  Al  Al20  1  0.21468148  0.87832287  0.07770301  1
  Al  Al21  1  0.77414461  0.77996092  0.82733093  1
  Al  Al22  1  0.90100990  0.85143622  0.54681557  1
  Al  Al23  1  0.43876233  0.76901445  0.30094828  1
  Al  Al24  1  0.55553267  0.88218351  0.07286674  1
  Al  Al25  1  0.22019380  0.86338032  0.55411126  1
  Al  Al26  1  0.77800841  0.75932108  0.30069380  1
  Al  Al27  1  0.89236823  0.87292329  0.07623252  1
  Gd  Gd28  1  0.87370159  0.21762240  0.60916238  1
  Gd  Gd29  1  0.21192546  0.20361242  0.56153034  1
  Gd  Gd30  1  0.78492886  0.09700709  0.34179195  1
  Gd  Gd31  1  0.55140696  0.21567346  0.64704097  1
  Gd  Gd32  1  0.89182428  0.54329200  0.08341838  1
  Gd  Gd33  1  0.10454774  0.76396217  0.80004974  1
  Gd  Gd34  1  0.45067103  0.74724502  0.84436594  1
  Gd  Gd35  1  0.57287321  0.84647007  0.56003608  1
  N  N36  1  0.22667956  0.20454240  0.34738156  1
  N  N37  1  0.10380558  0.10184273  0.12815673  1
  N  N38  1  0.89565244  0.19205921  0.87169687  1
  N  N39  1  0.77982007  0.06727034  0.55934343  1
  N  N40  1  0.52531277  0.22867129  0.30344321  1
  N  N41  1  0.43935651  0.09574876  0.11092434  1
  N  N42  1  0.21576761  0.20501879  0.88422681  1
  N  N43  1  0.12210764  0.05421885  0.65149214  1
  N  N44  1  0.91280169  0.22840044  0.39128800  1
  N  N45  1  0.77796580  0.10020096  0.09364174  1
  N  N46  1  0.55575618  0.19633322  0.86513455  1
  N  N47  1  0.43704020  0.07669711  0.65841766  1
  N  N48  1  0.21741421  0.53502426  0.36399923  1
  N  N49  1  0.14950350  0.41130419  0.12237021  1
  N  N50  1  0.88457512  0.53222492  0.84046998  1
  N  N51  1  0.75147379  0.49823460  0.56607402  1
  N  N52  1  0.56133602  0.53740689  0.31522762  1
  N  N53  1  0.45090153  0.43464450  0.07346855  1
  N  N54  1  0.23209700  0.51930025  0.88571114  1
  N  N55  1  0.11367160  0.44782241  0.64152561  1
  N  N56  1  0.89212478  0.53771245  0.30921105  1
  N  N57  1  0.75580772  0.41998812  0.05625586  1
  N  N58  1  0.57896123  0.47767062  0.79895001  1
  N  N59  1  0.43930590  0.44815710  0.54720970  1
  N  N60  1  0.21949690  0.87776778  0.36526587  1
  N  N61  1  0.11230628  0.75853632  0.13072686  1
  N  N62  1  0.87495670  0.87623074  0.89963391  1
  N  N63  1  0.80940141  0.76467891  0.65356719  1
  N  N64  1  0.55101422  0.87640693  0.34479390  1
  N  N65  1  0.44244459  0.76496407  0.11613459  1
  N  N66  1  0.20488504  0.89114106  0.90468654  1
  N  N67  1  0.11309966  0.75562540  0.58653689  1
  N  N68  1  0.90221513  0.83341678  0.36967884  1
  N  N69  1  0.76199010  0.79778894  0.12879445  1
  N  N70  1  0.57036625  0.87855137  0.89387039  1
  N  N71  1  0.41715390  0.75552407  0.63119916  1
