# generated using pymatgen
data_Gd2Al7N9
_symmetry_space_group_name_H-M   'P 1'
_cell_length_a   9.83126329
_cell_length_b   9.91045586
_cell_length_c   10.63441180
_cell_angle_alpha   89.13317214
_cell_angle_beta   89.59373214
_cell_angle_gamma   59.99939927
_symmetry_Int_Tables_number   1
_chemical_formula_structural   Gd2Al7N9
_chemical_formula_sum   'Gd8 Al28 N36'
_cell_volume   897.21115808
_cell_formula_units_Z   4
loop_
 _symmetry_equiv_pos_site_id
 _symmetry_equiv_pos_as_xyz
  1  'x, y, z'
loop_
 _atom_site_type_symbol
 _atom_site_label
 _atom_site_symmetry_multiplicity
 _atom_site_fract_x
 _atom_site_fract_y
 _atom_site_fract_z
 _atom_site_occupancy
  Al  Al0  1  0.11317980  0.10645317  0.30985939  1
  Al  Al1  1  0.22756859  0.20405223  0.06332534  1
  Al  Al2  1  0.77031020  0.09617805  0.89335913  1
  Al  Al3  1  0.44181965  0.09410770  0.29198273  1
  Al  Al4  1  0.54288927  0.21652234  0.06857144  1
  Al  Al5  1  0.11587018  0.08721406  0.82805526  1
  Al  Al6  1  0.89787007  0.20049952  0.05820077  1
  Al  Al7  1  0.44436760  0.09438939  0.82627057  1
  Al  Al8  1  0.12360636  0.42097760  0.30199230  1
  Al  Al9  1  0.23512230  0.53412742  0.06279498  1
  Al  Al10  1  0.77463070  0.42010063  0.88156547  1
  Al  Al11  1  0.88543660  0.55068156  0.65150049  1
  Al  Al12  1  0.43828856  0.42779370  0.30167844  1
  Al  Al13  1  0.56417325  0.53155813  0.13338880  1
  Al  Al14  1  0.12387807  0.42073938  0.82170475  1
  Al  Al15  1  0.21618713  0.54276134  0.55399578  1
  Al  Al16  1  0.78183387  0.45166556  0.38848862  1
  Al  Al17  1  0.44365111  0.41363507  0.81296170  1
  Al  Al18  1  0.54341559  0.54489150  0.63558774  1
  Al  Al19  1  0.11866860  0.74595451  0.31755073  1
  Al  Al20  1  0.21414752  0.87843470  0.07991932  1
  Al  Al21  1  0.77546650  0.78157428  0.82388517  1
  Al  Al22  1  0.89867208  0.85171475  0.54299219  1
  Al  Al23  1  0.44272863  0.76710049  0.29983284  1
  Al  Al24  1  0.55844500  0.88636621  0.06837794  1
  Al  Al25  1  0.21725288  0.86333053  0.55207169  1
  Al  Al26  1  0.78019942  0.76009045  0.30021751  1
  Al  Al27  1  0.89520737  0.87168951  0.07013063  1
  Gd  Gd28  1  0.86536559  0.21630500  0.61232615  1
  Gd  Gd29  1  0.19936265  0.20358336  0.56641076  1
  Gd  Gd30  1  0.79638582  0.09505672  0.32429724  1
  Gd  Gd31  1  0.52888604  0.20866883  0.55293099  1
  Gd  Gd32  1  0.89413029  0.54205722  0.08662708  1
  Gd  Gd33  1  0.10876661  0.76627389  0.79650302  1
  Gd  Gd34  1  0.44823779  0.75510126  0.85269613  1
  Gd  Gd35  1  0.56858163  0.84124998  0.56130677  1
  N  N36  1  0.23238912  0.20168222  0.35168014  1
  N  N37  1  0.10601102  0.10223873  0.12727907  1
  N  N38  1  0.89442379  0.19783876  0.86761884  1
  N  N39  1  0.78079797  0.06583493  0.55575651  1
  N  N40  1  0.53438628  0.21372290  0.33775313  1
  N  N41  1  0.44187646  0.09756942  0.11253881  1
  N  N42  1  0.21822911  0.20506202  0.87831326  1
  N  N43  1  0.11585957  0.04964929  0.65245256  1
  N  N44  1  0.91616079  0.22864912  0.39158269  1
  N  N45  1  0.77914094  0.09926949  0.08624801  1
  N  N46  1  0.54882340  0.20686820  0.87946048  1
  N  N47  1  0.43533471  0.07619511  0.65141342  1
  N  N48  1  0.23012079  0.52749964  0.36997809  1
  N  N49  1  0.15201037  0.40909947  0.12236298  1
  N  N50  1  0.88549173  0.53608235  0.84349080  1
  N  N51  1  0.74587070  0.49804633  0.56826705  1
  N  N52  1  0.56278789  0.53695639  0.31654853  1
  N  N53  1  0.44500989  0.43084960  0.11924182  1
  N  N54  1  0.23564597  0.51837962  0.88394293  1
  N  N55  1  0.10708217  0.44796290  0.64040085  1
  N  N56  1  0.89535302  0.53819210  0.31380033  1
  N  N57  1  0.76096144  0.41644375  0.06026292  1
  N  N58  1  0.58092228  0.49489686  0.81238575  1
  N  N59  1  0.41899775  0.44820592  0.63131345  1
  N  N60  1  0.22245917  0.87720216  0.36245116  1
  N  N61  1  0.11523207  0.75528554  0.12968863  1
  N  N62  1  0.87651577  0.87947629  0.89169761  1
  N  N63  1  0.80711917  0.76347364  0.64858719  1
  N  N64  1  0.55478520  0.87300179  0.34473312  1
  N  N65  1  0.44658977  0.76495267  0.11185513  1
  N  N66  1  0.19986000  0.89551665  0.90701116  1
  N  N67  1  0.11094012  0.75531015  0.58111661  1
  N  N68  1  0.90544051  0.83445966  0.36479460  1
  N  N69  1  0.76481632  0.79757933  0.12536997  1
  N  N70  1  0.57075935  0.88696859  0.88820409  1
  N  N71  1  0.41087404  0.75705105  0.63400170  1
