# generated using pymatgen
data_Gd2Al7N9
_symmetry_space_group_name_H-M   'P 1'
_cell_length_a   9.83079594
_cell_length_b   9.97672089
_cell_length_c   10.59293303
_cell_angle_alpha   89.29197079
_cell_angle_beta   89.40034714
_cell_angle_gamma   59.76086078
_symmetry_Int_Tables_number   1
_chemical_formula_structural   Gd2Al7N9
_chemical_formula_sum   'Gd8 Al28 N36'
_cell_volume   897.49777820
_cell_formula_units_Z   4
loop_
 _symmetry_equiv_pos_site_id
 _symmetry_equiv_pos_as_xyz
  1  'x, y, z'
loop_
 _atom_site_type_symbol
 _atom_site_label
 _atom_site_symmetry_multiplicity
 _atom_site_fract_x
 _atom_site_fract_y
 _atom_site_fract_z
 _atom_site_occupancy
  Al  Al0  1  0.11195922  0.11004810  0.31032126  1
  Al  Al1  1  0.22907774  0.20527875  0.06364225  1
  Al  Al2  1  0.75888675  0.09977230  0.89545713  1
  Al  Al3  1  0.43912112  0.08970177  0.29946721  1
  Al  Al4  1  0.54797640  0.21498743  0.13288721  1
  Al  Al5  1  0.11557997  0.08622345  0.83001193  1
  Al  Al6  1  0.89358673  0.20248569  0.05960172  1
  Al  Al7  1  0.44246276  0.08982017  0.81903240  1
  Al  Al8  1  0.12227875  0.42361416  0.30040515  1
  Al  Al9  1  0.23928882  0.53163055  0.06509354  1
  Al  Al10  1  0.77462104  0.41815459  0.88204444  1
  Al  Al11  1  0.88838902  0.55251790  0.65451349  1
  Al  Al12  1  0.43910498  0.43574394  0.31969629  1
  Al  Al13  1  0.56294267  0.53335970  0.13951526  1
  Al  Al14  1  0.12804262  0.41894657  0.82328764  1
  Al  Al15  1  0.21782545  0.54350727  0.55108034  1
  Al  Al16  1  0.78448649  0.45372076  0.39230106  1
  Al  Al17  1  0.44966954  0.40747120  0.80984588  1
  Al  Al18  1  0.54366873  0.54558783  0.62981960  1
  Al  Al19  1  0.11746044  0.74600453  0.31535966  1
  Al  Al20  1  0.21273661  0.88046434  0.08117407  1
  Al  Al21  1  0.77354303  0.78527901  0.82623738  1
  Al  Al22  1  0.90146122  0.84835602  0.54488501  1
  Al  Al23  1  0.43977629  0.77055696  0.30198767  1
  Al  Al24  1  0.55669108  0.88919573  0.06911893  1
  Al  Al25  1  0.21409280  0.86566565  0.55588773  1
  Al  Al26  1  0.77948900  0.76036718  0.30108334  1
  Al  Al27  1  0.89228734  0.87395623  0.07260063  1
  Gd  Gd28  1  0.85871679  0.22007396  0.62122370  1
  Gd  Gd29  1  0.19050613  0.20756644  0.56522295  1
  Gd  Gd30  1  0.80828260  0.09031442  0.33566080  1
  Gd  Gd31  1  0.53771811  0.19476683  0.56925569  1
  Gd  Gd32  1  0.89201444  0.54350327  0.08558587  1
  Gd  Gd33  1  0.10867937  0.76587162  0.80055679  1
  Gd  Gd34  1  0.45165118  0.74788866  0.85659567  1
  Gd  Gd35  1  0.56911242  0.83301889  0.56300116  1
  N  N36  1  0.22960102  0.20589893  0.35154592  1
  N  N37  1  0.10354104  0.10438551  0.12806172  1
  N  N38  1  0.89269670  0.19613860  0.87193735  1
  N  N39  1  0.79056956  0.06201827  0.55195208  1
  N  N40  1  0.53883966  0.21225835  0.32792295  1
  N  N41  1  0.44200656  0.09813145  0.11808491  1
  N  N42  1  0.21890753  0.20425997  0.87875751  1
  N  N43  1  0.10995365  0.05255237  0.65442733  1
  N  N44  1  0.91797836  0.23269254  0.39716000  1
  N  N45  1  0.77283376  0.10295531  0.09083367  1
  N  N46  1  0.55808858  0.19480196  0.82836900  1
  N  N47  1  0.42565861  0.06763640  0.64449976  1
  N  N48  1  0.22471581  0.53129583  0.36811713  1
  N  N49  1  0.15103952  0.41066082  0.12034083  1
  N  N50  1  0.88625960  0.53514716  0.84491705  1
  N  N51  1  0.74876534  0.50228636  0.57041978  1
  N  N52  1  0.56276845  0.54233627  0.32323541  1
  N  N53  1  0.44429717  0.43450846  0.13000113  1
  N  N54  1  0.24349927  0.51456318  0.88386436  1
  N  N55  1  0.11150195  0.44907658  0.64205659  1
  N  N56  1  0.89455807  0.53980008  0.31337050  1
  N  N57  1  0.75757529  0.41908969  0.06136118  1
  N  N58  1  0.58435742  0.48816747  0.80604598  1
  N  N59  1  0.42957161  0.44618897  0.60373891  1
  N  N60  1  0.21865683  0.88072453  0.36413723  1
  N  N61  1  0.11402399  0.75734093  0.12884140  1
  N  N62  1  0.87407050  0.88218020  0.89506512  1
  N  N63  1  0.80685709  0.76538244  0.65108442  1
  N  N64  1  0.55328262  0.87310761  0.34762436  1
  N  N65  1  0.44537104  0.76620222  0.11464812  1
  N  N66  1  0.20233147  0.89474392  0.90762561  1
  N  N67  1  0.11238228  0.75402376  0.58495617  1
  N  N68  1  0.90620999  0.83143657  0.36583364  1
  N  N69  1  0.76313289  0.79834641  0.12619589  1
  N  N70  1  0.56723092  0.88689810  0.88859537  1
  N  N71  1  0.40762046  0.75623862  0.63892771  1
