# generated using pymatgen
data_Gd2Al7N9
_symmetry_space_group_name_H-M   'P 1'
_cell_length_a   9.77827434
_cell_length_b   9.87154736
_cell_length_c   10.77491655
_cell_angle_alpha   89.32466028
_cell_angle_beta   89.22114460
_cell_angle_gamma   59.92979668
_symmetry_Int_Tables_number   1
_chemical_formula_structural   Gd2Al7N9
_chemical_formula_sum   'Gd8 Al28 N36'
_cell_volume   899.98864541
_cell_formula_units_Z   4
loop_
 _symmetry_equiv_pos_site_id
 _symmetry_equiv_pos_as_xyz
  1  'x, y, z'
loop_
 _atom_site_type_symbol
 _atom_site_label
 _atom_site_symmetry_multiplicity
 _atom_site_fract_x
 _atom_site_fract_y
 _atom_site_fract_z
 _atom_site_occupancy
  Al  Al0  1  0.11169726  0.10171049  0.31031213  1
  Al  Al1  1  0.22211770  0.20647816  0.09114353  1
  Al  Al2  1  0.76673729  0.09389298  0.90784323  1
  Al  Al3  1  0.44193991  0.09527234  0.36263288  1
  Al  Al4  1  0.54240441  0.21590903  0.13855067  1
  Al  Al5  1  0.12197028  0.08662365  0.83301820  1
  Al  Al6  1  0.89459932  0.20030029  0.06376152  1
  Al  Al7  1  0.44389052  0.09889748  0.91117349  1
  Al  Al8  1  0.12202619  0.42749187  0.29825530  1
  Al  Al9  1  0.23028450  0.54050167  0.06792326  1
  Al  Al10  1  0.77615497  0.41463282  0.88411624  1
  Al  Al11  1  0.88763382  0.55401240  0.66015306  1
  Al  Al12  1  0.44678607  0.43130141  0.37832410  1
  Al  Al13  1  0.56191696  0.52501463  0.14061918  1
  Al  Al14  1  0.13040919  0.41615614  0.82571318  1
  Al  Al15  1  0.21431825  0.54649747  0.55061285  1
  Al  Al16  1  0.78606799  0.45000103  0.39460593  1
  Al  Al17  1  0.46129336  0.40694696  0.89732767  1
  Al  Al18  1  0.54269607  0.53958556  0.63362875  1
  Al  Al19  1  0.11580227  0.74904638  0.32077137  1
  Al  Al20  1  0.21429033  0.87747302  0.08141328  1
  Al  Al21  1  0.77270462  0.78370304  0.83150102  1
  Al  Al22  1  0.89701987  0.85458732  0.55165408  1
  Al  Al23  1  0.44081488  0.76511976  0.30209783  1
  Al  Al24  1  0.55728647  0.87970432  0.08622430  1
  Al  Al25  1  0.21800286  0.86702882  0.56091599  1
  Al  Al26  1  0.78164454  0.75806422  0.30381138  1
  Al  Al27  1  0.89348525  0.87375405  0.07932251  1
  Gd  Gd28  1  0.86222674  0.21965601  0.62770998  1
  Gd  Gd29  1  0.17173012  0.22302239  0.54533114  1
  Gd  Gd30  1  0.79146109  0.09924233  0.34962158  1
  Gd  Gd31  1  0.53293147  0.20272263  0.63908792  1
  Gd  Gd32  1  0.89180944  0.54432590  0.08549201  1
  Gd  Gd33  1  0.10825892  0.76569511  0.80289944  1
  Gd  Gd34  1  0.45469627  0.74512069  0.85646672  1
  Gd  Gd35  1  0.57310721  0.82941595  0.55618151  1
  N  N36  1  0.22391511  0.20677811  0.33025693  1
  N  N37  1  0.10118888  0.09930379  0.13227140  1
  N  N38  1  0.89684086  0.19127818  0.87587384  1
  N  N39  1  0.77511551  0.07155307  0.56435560  1
  N  N40  1  0.52864040  0.22435228  0.31409790  1
  N  N41  1  0.44329520  0.09998185  0.08930457  1
  N  N42  1  0.21738571  0.20641261  0.88850933  1
  N  N43  1  0.11914004  0.05677446  0.65787166  1
  N  N44  1  0.92317100  0.22668105  0.40567235  1
  N  N45  1  0.77526783  0.10063315  0.09679438  1
  N  N46  1  0.55673678  0.19477487  0.85593089  1
  N  N47  1  0.42725880  0.08842084  0.54111164  1
  N  N48  1  0.21977329  0.53442615  0.37013813  1
  N  N49  1  0.14825660  0.41752066  0.12435886  1
  N  N50  1  0.88488568  0.53397970  0.84525399  1
  N  N51  1  0.75011258  0.50089089  0.57220506  1
  N  N52  1  0.56457465  0.53233164  0.31919703  1
  N  N53  1  0.45456480  0.42822668  0.07689770  1
  N  N54  1  0.23511656  0.51992024  0.88834491  1
  N  N55  1  0.11457051  0.44931348  0.64659008  1
  N  N56  1  0.89488664  0.53665772  0.31452898  1
  N  N57  1  0.75871935  0.41817504  0.06086211  1
  N  N58  1  0.58362128  0.47630010  0.80627146  1
  N  N59  1  0.44264794  0.44440901  0.55552346  1
  N  N60  1  0.22212974  0.87653096  0.36994058  1
  N  N61  1  0.11406834  0.75798132  0.13569475  1
  N  N62  1  0.87703034  0.87626376  0.90315413  1
  N  N63  1  0.80193162  0.77058187  0.65782031  1
  N  N64  1  0.55740056  0.86502027  0.34187266  1
  N  N65  1  0.44384088  0.76164582  0.11948490  1
  N  N66  1  0.20593221  0.89202068  0.91028539  1
  N  N67  1  0.11082083  0.75782651  0.58991879  1
  N  N68  1  0.90187804  0.83603311  0.37441890  1
  N  N69  1  0.76588388  0.79658093  0.13287779  1
  N  N70  1  0.57021892  0.88049447  0.89838295  1
  N  N71  1  0.41186442  0.75487606  0.64418260  1
