# generated using pymatgen
data_Gd2Al7N9
_symmetry_space_group_name_H-M   'P 1'
_cell_length_a   9.84975295
_cell_length_b   9.87695877
_cell_length_c   10.55921323
_cell_angle_alpha   89.03908607
_cell_angle_beta   89.75012624
_cell_angle_gamma   60.06670093
_symmetry_Int_Tables_number   1
_chemical_formula_structural   Gd2Al7N9
_chemical_formula_sum   'Gd8 Al28 N36'
_cell_volume   890.09539251
_cell_formula_units_Z   4
loop_
 _symmetry_equiv_pos_site_id
 _symmetry_equiv_pos_as_xyz
  1  'x, y, z'
loop_
 _atom_site_type_symbol
 _atom_site_label
 _atom_site_symmetry_multiplicity
 _atom_site_fract_x
 _atom_site_fract_y
 _atom_site_fract_z
 _atom_site_occupancy
  Al  Al0  1  0.11451301  0.09716528  0.28975011  1
  Al  Al1  1  0.22585382  0.20283063  0.05193790  1
  Al  Al2  1  0.76911365  0.10380110  0.87555666  1
  Al  Al3  1  0.43746866  0.09485509  0.28094582  1
  Al  Al4  1  0.54009493  0.21700548  0.05185423  1
  Al  Al5  1  0.11247359  0.09287353  0.81660103  1
  Al  Al6  1  0.89033707  0.20884251  0.05036954  1
  Al  Al7  1  0.44520403  0.09643262  0.81858355  1
  Al  Al8  1  0.11735758  0.42068633  0.29107346  1
  Al  Al9  1  0.22980330  0.53438644  0.05620781  1
  Al  Al10  1  0.76618411  0.43174834  0.81198838  1
  Al  Al11  1  0.89332989  0.54877542  0.64604992  1
  Al  Al12  1  0.43835350  0.42685366  0.29655660  1
  Al  Al13  1  0.55213752  0.53005865  0.05856023  1
  Al  Al14  1  0.12876796  0.42059492  0.81467412  1
  Al  Al15  1  0.22044984  0.54590796  0.54603563  1
  Al  Al16  1  0.78079800  0.42514167  0.29760564  1
  Al  Al17  1  0.44294038  0.43060009  0.81110234  1
  Al  Al18  1  0.54353348  0.55176865  0.54763508  1
  Al  Al19  1  0.11551582  0.74638401  0.30376833  1
  Al  Al20  1  0.21914293  0.87305753  0.06332744  1
  Al  Al21  1  0.77330805  0.78387937  0.81303972  1
  Al  Al22  1  0.90525926  0.85046509  0.53425646  1
  Al  Al23  1  0.44472647  0.75702045  0.29277980  1
  Al  Al24  1  0.55474163  0.87991488  0.05904260  1
  Al  Al25  1  0.22109754  0.86613897  0.53165813  1
  Al  Al26  1  0.78194401  0.75244458  0.28598102  1
  Al  Al27  1  0.89157668  0.87223530  0.05386763  1
  Gd  Gd28  1  0.88490052  0.21160262  0.57168045  1
  Gd  Gd29  1  0.21304999  0.20487801  0.55438320  1
  Gd  Gd30  1  0.78319655  0.08824977  0.30292928  1
  Gd  Gd31  1  0.54038889  0.21877330  0.55998745  1
  Gd  Gd32  1  0.88803138  0.53826479  0.06377067  1
  Gd  Gd33  1  0.10446683  0.76629576  0.78797051  1
  Gd  Gd34  1  0.44321459  0.76523373  0.80246117  1
  Gd  Gd35  1  0.58001032  0.85910753  0.53851025  1
  N  N36  1  0.22697675  0.19798652  0.33694062  1
  N  N37  1  0.10734659  0.09847327  0.10728398  1
  N  N38  1  0.88817242  0.21268076  0.85885282  1
  N  N39  1  0.78794870  0.06158497  0.55957845  1
  N  N40  1  0.52625297  0.21264793  0.34287474  1
  N  N41  1  0.44169282  0.09710110  0.09924552  1
  N  N42  1  0.22048991  0.20513874  0.86612006  1
  N  N43  1  0.12796646  0.05059305  0.63767621  1
  N  N44  1  0.91085224  0.21642747  0.35783295  1
  N  N45  1  0.77461840  0.10038548  0.07111012  1
  N  N46  1  0.54725338  0.21401840  0.86298112  1
  N  N47  1  0.44379621  0.08062012  0.64183629  1
  N  N48  1  0.22698538  0.52735888  0.36035622  1
  N  N49  1  0.14403980  0.41014682  0.11065048  1
  N  N50  1  0.89153046  0.53920437  0.83761384  1
  N  N51  1  0.74709103  0.47600584  0.63171563  1
  N  N52  1  0.55695449  0.53043048  0.35998556  1
  N  N53  1  0.44142681  0.42876529  0.11489479  1
  N  N54  1  0.23543427  0.52013390  0.87712648  1
  N  N55  1  0.11375482  0.44917387  0.63221590  1
  N  N56  1  0.89214991  0.53372721  0.30762631  1
  N  N57  1  0.76102259  0.40791964  0.11717567  1
  N  N58  1  0.56401734  0.51485702  0.87960341  1
  N  N59  1  0.42471210  0.46857669  0.62982617  1
  N  N60  1  0.21908908  0.87385131  0.34428637  1
  N  N61  1  0.11078069  0.75663887  0.11482112  1
  N  N62  1  0.87123937  0.88695351  0.87595718  1
  N  N63  1  0.81385028  0.75956059  0.63697257  1
  N  N64  1  0.55519583  0.87075009  0.32413332  1
  N  N65  1  0.44694764  0.75509958  0.10660084  1
  N  N66  1  0.20679168  0.89307026  0.88778374  1
  N  N67  1  0.11657187  0.75846156  0.57160249  1
  N  N68  1  0.90286981  0.83141378  0.35584249  1
  N  N69  1  0.76600553  0.79276254  0.11021594  1
  N  N70  1  0.56766206  0.88477328  0.87632408  1
  N  N71  1  0.42854125  0.76141047  0.58392727  1
