# generated using pymatgen
data_Gd2Al7N9
_symmetry_space_group_name_H-M   'P 1'
_cell_length_a   9.86331285
_cell_length_b   9.90282434
_cell_length_c   10.58523403
_cell_angle_alpha   89.01401673
_cell_angle_beta   89.54285273
_cell_angle_gamma   59.99442486
_symmetry_Int_Tables_number   1
_chemical_formula_structural   Gd2Al7N9
_chemical_formula_sum   'Gd8 Al28 N36'
_cell_volume   895.20841706
_cell_formula_units_Z   4
loop_
 _symmetry_equiv_pos_site_id
 _symmetry_equiv_pos_as_xyz
  1  'x, y, z'
loop_
 _atom_site_type_symbol
 _atom_site_label
 _atom_site_symmetry_multiplicity
 _atom_site_fract_x
 _atom_site_fract_y
 _atom_site_fract_z
 _atom_site_occupancy
  Al  Al0  1  0.11270322  0.10452296  0.29572360  1
  Al  Al1  1  0.22825497  0.20250369  0.05223277  1
  Al  Al2  1  0.76809593  0.09928929  0.88092045  1
  Al  Al3  1  0.44138306  0.09433183  0.28022470  1
  Al  Al4  1  0.54178332  0.21725732  0.05561496  1
  Al  Al5  1  0.11277955  0.08936358  0.81914947  1
  Al  Al6  1  0.89703660  0.20096457  0.04804213  1
  Al  Al7  1  0.44588230  0.09486239  0.81779924  1
  Al  Al8  1  0.12454223  0.41939640  0.29097280  1
  Al  Al9  1  0.23482850  0.53316933  0.05137428  1
  Al  Al10  1  0.76589981  0.42791517  0.87339231  1
  Al  Al11  1  0.88884965  0.54781158  0.64177122  1
  Al  Al12  1  0.43828616  0.42709987  0.29329500  1
  Al  Al13  1  0.55817836  0.53553070  0.11269192  1
  Al  Al14  1  0.12540352  0.41882996  0.81110712  1
  Al  Al15  1  0.21694787  0.54212742  0.54275111  1
  Al  Al16  1  0.78677979  0.44730280  0.37486114  1
  Al  Al17  1  0.44314162  0.42434532  0.80266092  1
  Al  Al18  1  0.53984478  0.54985193  0.58137972  1
  Al  Al19  1  0.11689110  0.74566697  0.30288911  1
  Al  Al20  1  0.21801646  0.87444986  0.06712370  1
  Al  Al21  1  0.77466435  0.78071413  0.81420414  1
  Al  Al22  1  0.90266989  0.84945719  0.53242664  1
  Al  Al23  1  0.44128614  0.76526735  0.29311624  1
  Al  Al24  1  0.55659640  0.88214966  0.05750466  1
  Al  Al25  1  0.21391524  0.86519965  0.53331861  1
  Al  Al26  1  0.78123713  0.75878514  0.28648298  1
  Al  Al27  1  0.89299991  0.87255738  0.05823468  1
  Gd  Gd28  1  0.87046993  0.21327557  0.60091906  1
  Gd  Gd29  1  0.20473419  0.19896119  0.55546909  1
  Gd  Gd30  1  0.79344631  0.09538953  0.31348282  1
  Gd  Gd31  1  0.53266378  0.20776320  0.54885190  1
  Gd  Gd32  1  0.89634959  0.54012462  0.07427558  1
  Gd  Gd33  1  0.10402999  0.76695908  0.78828629  1
  Gd  Gd34  1  0.43761669  0.77348066  0.80912739  1
  Gd  Gd35  1  0.57986730  0.84478479  0.54182594  1
  N  N36  1  0.23199682  0.19903443  0.33938363  1
  N  N37  1  0.10654427  0.10097164  0.11286505  1
  N  N38  1  0.88970230  0.20303399  0.85469304  1
  N  N39  1  0.78365791  0.06368955  0.54651674  1
  N  N40  1  0.53206119  0.21305729  0.33287240  1
  N  N41  1  0.44285788  0.09668546  0.09979487  1
  N  N42  1  0.21915906  0.20349779  0.86676356  1
  N  N43  1  0.12046877  0.04534018  0.64242743  1
  N  N44  1  0.91706756  0.22550745  0.37808079  1
  N  N45  1  0.77736829  0.10028779  0.07513825  1
  N  N46  1  0.54754061  0.21165775  0.86505713  1
  N  N47  1  0.43926184  0.07130458  0.64209536  1
  N  N48  1  0.22881057  0.52774511  0.35858285  1
  N  N49  1  0.15333898  0.40723252  0.11114439  1
  N  N50  1  0.88658126  0.53463906  0.83318394  1
  N  N51  1  0.75307972  0.49228720  0.55643613  1
  N  N52  1  0.55930266  0.53570040  0.31892922  1
  N  N53  1  0.44399937  0.43013949  0.11054347  1
  N  N54  1  0.23441871  0.51781296  0.87193462  1
  N  N55  1  0.11063694  0.44435200  0.62882603  1
  N  N56  1  0.89700555  0.53730407  0.30260946  1
  N  N57  1  0.76244348  0.41556950  0.05503317  1
  N  N58  1  0.56366633  0.51732107  0.82263136  1
  N  N59  1  0.42305242  0.45217416  0.61797747  1
  N  N60  1  0.21651320  0.87808299  0.34649556  1
  N  N61  1  0.11368332  0.75431661  0.11563907  1
  N  N62  1  0.87239781  0.88301752  0.87984188  1
  N  N63  1  0.81355624  0.75978216  0.63883945  1
  N  N64  1  0.55581537  0.87278601  0.32904507  1
  N  N65  1  0.44498796  0.76401948  0.10658822  1
  N  N66  1  0.20075141  0.89418357  0.89393319  1
  N  N67  1  0.11336679  0.75417134  0.57170713  1
  N  N68  1  0.90482722  0.83387503  0.35333279  1
  N  N69  1  0.76472889  0.79579831  0.11186498  1
  N  N70  1  0.57031888  0.88553489  0.87777873  1
  N  N71  1  0.41836700  0.75906164  0.59001777  1
