# generated using pymatgen
data_Gd2Al7N9
_symmetry_space_group_name_H-M   'P 1'
_cell_length_a   9.84712124
_cell_length_b   9.86738755
_cell_length_c   10.55168673
_cell_angle_alpha   89.13671570
_cell_angle_beta   89.72183505
_cell_angle_gamma   59.99644763
_symmetry_Int_Tables_number   1
_chemical_formula_structural   Gd2Al7N9
_chemical_formula_sum   'Gd8 Al28 N36'
_cell_volume   887.76305431
_cell_formula_units_Z   4
loop_
 _symmetry_equiv_pos_site_id
 _symmetry_equiv_pos_as_xyz
  1  'x, y, z'
loop_
 _atom_site_type_symbol
 _atom_site_label
 _atom_site_symmetry_multiplicity
 _atom_site_fract_x
 _atom_site_fract_y
 _atom_site_fract_z
 _atom_site_occupancy
  Al  Al0  1  0.11360076  0.09741502  0.28907365  1
  Al  Al1  1  0.22590571  0.20290886  0.05214562  1
  Al  Al2  1  0.77124418  0.10002777  0.85263913  1
  Al  Al3  1  0.43789139  0.09534349  0.28084642  1
  Al  Al4  1  0.54352893  0.21517239  0.04678295  1
  Al  Al5  1  0.11369548  0.09285202  0.81574131  1
  Al  Al6  1  0.88897488  0.20769905  0.04537374  1
  Al  Al7  1  0.44498858  0.09607445  0.81793826  1
  Al  Al8  1  0.11659111  0.42142443  0.29052037  1
  Al  Al9  1  0.22971996  0.53450880  0.05687107  1
  Al  Al10  1  0.76629618  0.43148098  0.81155757  1
  Al  Al11  1  0.89342639  0.54771346  0.64518794  1
  Al  Al12  1  0.43842426  0.42622037  0.29695625  1
  Al  Al13  1  0.55226654  0.52923577  0.05858184  1
  Al  Al14  1  0.12857426  0.42071130  0.81487966  1
  Al  Al15  1  0.22007900  0.54585294  0.54539393  1
  Al  Al16  1  0.78037899  0.42503077  0.29737596  1
  Al  Al17  1  0.44243643  0.43058704  0.81059353  1
  Al  Al18  1  0.54358548  0.55059810  0.54734079  1
  Al  Al19  1  0.11308914  0.74898613  0.30617981  1
  Al  Al20  1  0.21824338  0.87343986  0.06343026  1
  Al  Al21  1  0.77346511  0.78214810  0.81240611  1
  Al  Al22  1  0.90212689  0.85605931  0.54089631  1
  Al  Al23  1  0.44424120  0.75713211  0.29210943  1
  Al  Al24  1  0.55498849  0.88035113  0.05944414  1
  Al  Al25  1  0.22177801  0.86632528  0.53167243  1
  Al  Al26  1  0.78123756  0.75463230  0.28749856  1
  Al  Al27  1  0.89041944  0.87396307  0.05120974  1
  Gd  Gd28  1  0.88745777  0.21118780  0.57251448  1
  Gd  Gd29  1  0.21460603  0.20604331  0.55292785  1
  Gd  Gd30  1  0.78168041  0.09098134  0.29126635  1
  Gd  Gd31  1  0.54619897  0.21543142  0.56369083  1
  Gd  Gd32  1  0.88711570  0.53906176  0.06394848  1
  Gd  Gd33  1  0.10554303  0.76561077  0.78712814  1
  Gd  Gd34  1  0.44350889  0.76473721  0.80345984  1
  Gd  Gd35  1  0.57881413  0.85795123  0.53831520  1
  N  N36  1  0.22619880  0.19875338  0.33545565  1
  N  N37  1  0.10622166  0.09897924  0.10655687  1
  N  N38  1  0.88899251  0.21219440  0.85604064  1
  N  N39  1  0.79254883  0.05946112  0.60285595  1
  N  N40  1  0.52917624  0.21093944  0.34604153  1
  N  N41  1  0.44241968  0.09803561  0.09890354  1
  N  N42  1  0.22094095  0.20506821  0.86618463  1
  N  N43  1  0.13110857  0.05138826  0.63675523  1
  N  N44  1  0.90854316  0.21471405  0.35795093  1
  N  N45  1  0.77466735  0.09995604  0.06953728  1
  N  N46  1  0.54770798  0.21341609  0.85979290  1
  N  N47  1  0.44421225  0.08068950  0.64106502  1
  N  N48  1  0.22568274  0.52811951  0.35979119  1
  N  N49  1  0.14296757  0.41093545  0.11031658  1
  N  N50  1  0.89117602  0.53868965  0.83752112  1
  N  N51  1  0.74727333  0.47482629  0.63130198  1
  N  N52  1  0.55653074  0.53061897  0.35960879  1
  N  N53  1  0.44227175  0.42702235  0.11480090  1
  N  N54  1  0.23549427  0.52010354  0.87751921  1
  N  N55  1  0.11365332  0.44976570  0.63247988  1
  N  N56  1  0.89128281  0.53482201  0.30844548  1
  N  N57  1  0.76160681  0.40670494  0.11661094  1
  N  N58  1  0.56402499  0.51408013  0.87937044  1
  N  N59  1  0.42420063  0.46731430  0.62892529  1
  N  N60  1  0.21904939  0.87443829  0.34445883  1
  N  N61  1  0.10918303  0.75788550  0.11614757  1
  N  N62  1  0.87256372  0.88369350  0.87506433  1
  N  N63  1  0.81220545  0.75821369  0.63616776  1
  N  N64  1  0.55398898  0.87125871  0.32402735  1
  N  N65  1  0.44686749  0.75499042  0.10612365  1
  N  N66  1  0.20633440  0.89323725  0.88764818  1
  N  N67  1  0.11631569  0.75918904  0.57031305  1
  N  N68  1  0.89705216  0.83993687  0.36122265  1
  N  N69  1  0.76624033  0.79411198  0.11162316  1
  N  N70  1  0.56787325  0.88460494  0.87654231  1
  N  N71  1  0.42861722  0.75992019  0.58502411  1
