# generated using pymatgen
data_Gd2Al7N9
_symmetry_space_group_name_H-M   'P 1'
_cell_length_a   9.79929345
_cell_length_b   9.91694160
_cell_length_c   10.69828227
_cell_angle_alpha   89.37408411
_cell_angle_beta   89.19471150
_cell_angle_gamma   59.91349233
_symmetry_Int_Tables_number   1
_chemical_formula_structural   Gd2Al7N9
_chemical_formula_sum   'Gd8 Al28 N36'
_cell_volume   899.47832789
_cell_formula_units_Z   4
loop_
 _symmetry_equiv_pos_site_id
 _symmetry_equiv_pos_as_xyz
  1  'x, y, z'
loop_
 _atom_site_type_symbol
 _atom_site_label
 _atom_site_symmetry_multiplicity
 _atom_site_fract_x
 _atom_site_fract_y
 _atom_site_fract_z
 _atom_site_occupancy
  Al  Al0  1  0.10782788  0.09720499  0.33055279  1
  Al  Al1  1  0.23039872  0.20206357  0.14757203  1
  Al  Al2  1  0.76733508  0.09390758  0.92813216  1
  Al  Al3  1  0.44144396  0.10069691  0.38284767  1
  Al  Al4  1  0.54479133  0.21441269  0.14455259  1
  Al  Al5  1  0.12807475  0.08530854  0.84744222  1
  Al  Al6  1  0.89883500  0.20067079  0.08187365  1
  Al  Al7  1  0.43925621  0.09367451  0.92272837  1
  Al  Al8  1  0.11340981  0.43173005  0.31981513  1
  Al  Al9  1  0.24085403  0.54174322  0.15701789  1
  Al  Al10  1  0.77844464  0.41156267  0.89953294  1
  Al  Al11  1  0.88378608  0.54931140  0.66854416  1
  Al  Al12  1  0.44526089  0.42991669  0.39463706  1
  Al  Al13  1  0.56765860  0.52448129  0.15897545  1
  Al  Al14  1  0.13509242  0.41216834  0.82704217  1
  Al  Al15  1  0.22062452  0.54048634  0.60372638  1
  Al  Al16  1  0.78495774  0.44763065  0.41449335  1
  Al  Al17  1  0.45138695  0.41486050  0.91418902  1
  Al  Al18  1  0.53988994  0.53644768  0.65317382  1
  Al  Al19  1  0.11369585  0.75957555  0.34513801  1
  Al  Al20  1  0.21676741  0.87950797  0.09995059  1
  Al  Al21  1  0.77179509  0.79119151  0.83277749  1
  Al  Al22  1  0.89632201  0.85474535  0.56722991  1
  Al  Al23  1  0.44013758  0.75764186  0.32892769  1
  Al  Al24  1  0.55161913  0.88420608  0.16290483  1
  Al  Al25  1  0.21859033  0.86196324  0.58019975  1
  Al  Al26  1  0.79008600  0.75225435  0.32591539  1
  Al  Al27  1  0.89333804  0.87491699  0.09858341  1
  Gd  Gd28  1  0.85693018  0.21648561  0.65036351  1
  Gd  Gd29  1  0.16848791  0.21334911  0.56308008  1
  Gd  Gd30  1  0.78321565  0.10363397  0.36831124  1
  Gd  Gd31  1  0.52338716  0.20288782  0.67068108  1
  Gd  Gd32  1  0.89993230  0.54792141  0.08565433  1
  Gd  Gd33  1  0.11175802  0.77380921  0.82195666  1
  Gd  Gd34  1  0.46677671  0.74357458  0.88172288  1
  Gd  Gd35  1  0.56143911  0.84260319  0.59604068  1
  N  N36  1  0.22376901  0.20470470  0.33884201  1
  N  N37  1  0.10362407  0.09791909  0.15267376  1
  N  N38  1  0.90065641  0.18833795  0.89458335  1
  N  N39  1  0.76556993  0.07169410  0.58740582  1
  N  N40  1  0.52426790  0.22590985  0.32365055  1
  N  N41  1  0.44506720  0.08923689  0.10407271  1
  N  N42  1  0.22369502  0.20552506  0.87644827  1
  N  N43  1  0.11367333  0.04850986  0.67430756  1
  N  N44  1  0.92234101  0.22389791  0.42388881  1
  N  N45  1  0.77893897  0.10085530  0.11672294  1
  N  N46  1  0.55525463  0.19796846  0.89167506  1
  N  N47  1  0.42274747  0.09542220  0.55517215  1
  N  N48  1  0.22935224  0.53917738  0.34919717  1
  N  N49  1  0.15016235  0.41668910  0.14205290  1
  N  N50  1  0.88273815  0.53401573  0.85614912  1
  N  N51  1  0.74510986  0.49487499  0.58978406  1
  N  N52  1  0.56705327  0.52883181  0.33923800  1
  N  N53  1  0.44959025  0.43643081  0.09542006  1
  N  N54  1  0.24836776  0.51501643  0.84844692  1
  N  N55  1  0.10484072  0.44246866  0.64638460  1
  N  N56  1  0.89432522  0.53624075  0.33893679  1
  N  N57  1  0.76480262  0.41994776  0.07928517  1
  N  N58  1  0.58629208  0.47255559  0.82463152  1
  N  N59  1  0.43988272  0.43888160  0.57130707  1
  N  N60  1  0.22372979  0.87718613  0.39233018  1
  N  N61  1  0.11112605  0.76892093  0.15664155  1
  N  N62  1  0.87410296  0.87533585  0.92042023  1
  N  N63  1  0.81183438  0.75887208  0.66159371  1
  N  N64  1  0.55481274  0.86918324  0.35133553  1
  N  N65  1  0.44597760  0.76125361  0.14319367  1
  N  N66  1  0.21643900  0.89351437  0.92913061  1
  N  N67  1  0.11079149  0.75396521  0.60237806  1
  N  N68  1  0.90092055  0.84185118  0.39015025  1
  N  N69  1  0.76814470  0.79416840  0.15238164  1
  N  N70  1  0.55552739  0.90262606  0.83925117  1
  N  N71  1  0.40788717  0.74848204  0.66533775  1
