# generated using pymatgen
data_Gd2Al7N9
_symmetry_space_group_name_H-M   'P 1'
_cell_length_a   9.85808322
_cell_length_b   9.86579555
_cell_length_c   10.42451582
_cell_angle_alpha   89.61166420
_cell_angle_beta   89.76962475
_cell_angle_gamma   60.01750725
_symmetry_Int_Tables_number   1
_chemical_formula_structural   Gd2Al7N9
_chemical_formula_sum   'Gd8 Al28 N36'
_cell_volume   878.16801060
_cell_formula_units_Z   4
loop_
 _symmetry_equiv_pos_site_id
 _symmetry_equiv_pos_as_xyz
  1  'x, y, z'
loop_
 _atom_site_type_symbol
 _atom_site_label
 _atom_site_symmetry_multiplicity
 _atom_site_fract_x
 _atom_site_fract_y
 _atom_site_fract_z
 _atom_site_occupancy
  Al  Al0  1  0.11308691  0.09543384  0.38766724  1
  Al  Al1  1  0.22592092  0.20395066  0.15359673  1
  Al  Al2  1  0.78055401  0.08961235  0.92826677  1
  Al  Al3  1  0.43360773  0.10765678  0.38311944  1
  Al  Al4  1  0.54454628  0.21342414  0.13614436  1
  Al  Al5  1  0.11343114  0.09331021  0.91824488  1
  Al  Al6  1  0.88933225  0.20835195  0.14897272  1
  Al  Al7  1  0.44520304  0.08955978  0.92939826  1
  Al  Al8  1  0.10773943  0.43284479  0.39953232  1
  Al  Al9  1  0.22738234  0.54012590  0.15878652  1
  Al  Al10  1  0.77536497  0.41522912  0.90383985  1
  Al  Al11  1  0.89149958  0.54625854  0.64827366  1
  Al  Al12  1  0.43522565  0.43334724  0.39281074  1
  Al  Al13  1  0.55101750  0.53757294  0.16016587  1
  Al  Al14  1  0.12941726  0.41237044  0.90560696  1
  Al  Al15  1  0.22461204  0.53636784  0.63781166  1
  Al  Al16  1  0.77676398  0.43910072  0.40076229  1
  Al  Al17  1  0.45020642  0.41739870  0.91269788  1
  Al  Al18  1  0.54880318  0.53760267  0.63610823  1
  Al  Al19  1  0.11277419  0.75430722  0.40218025  1
  Al  Al20  1  0.22112803  0.87091047  0.16292738  1
  Al  Al21  1  0.76863143  0.77905029  0.90279164  1
  Al  Al22  1  0.89266500  0.86823499  0.64971739  1
  Al  Al23  1  0.43895137  0.75532370  0.39463128  1
  Al  Al24  1  0.55487443  0.87554891  0.16575090  1
  Al  Al25  1  0.21830902  0.86747319  0.63618604  1
  Al  Al26  1  0.79206248  0.74988070  0.40299475  1
  Al  Al27  1  0.89465253  0.86727103  0.15553807  1
  Gd  Gd28  1  0.89145701  0.20634939  0.65652274  1
  Gd  Gd29  1  0.21980462  0.20361603  0.65217575  1
  Gd  Gd30  1  0.77020000  0.09708998  0.37936722  1
  Gd  Gd31  1  0.54894390  0.21623748  0.67762745  1
  Gd  Gd32  1  0.88919179  0.53936867  0.13823936  1
  Gd  Gd33  1  0.11404958  0.74941457  0.88807930  1
  Gd  Gd34  1  0.45227676  0.75014768  0.90192548  1
  Gd  Gd35  1  0.55913312  0.86736832  0.62871454  1
  N  N36  1  0.21493387  0.21240350  0.33934083  1
  N  N37  1  0.11451429  0.09062884  0.10350385  1
  N  N38  1  0.89466741  0.19563102  0.87680906  1
  N  N39  1  0.78327342  0.07497915  0.59428352  1
  N  N40  1  0.51835492  0.23070383  0.31964629  1
  N  N41  1  0.44175752  0.08731408  0.11117871  1
  N  N42  1  0.22824780  0.19577339  0.87374656  1
  N  N43  1  0.12176976  0.06815335  0.56545736  1
  N  N44  1  0.89892666  0.22881561  0.33390134  1
  N  N45  1  0.78488466  0.08924720  0.11619826  1
  N  N46  1  0.55944625  0.19760487  0.90570043  1
  N  N47  1  0.44477208  0.10991299  0.56185024  1
  N  N48  1  0.21880703  0.54139557  0.34285127  1
  N  N49  1  0.14566938  0.41592915  0.08800794  1
  N  N50  1  0.89074670  0.53779339  0.85094955  1
  N  N51  1  0.76297736  0.46199399  0.58450824  1
  N  N52  1  0.55717418  0.53535932  0.34224855  1
  N  N53  1  0.43627126  0.44504531  0.09396777  1
  N  N54  1  0.25290898  0.49014723  0.82224154  1
  N  N55  1  0.09987401  0.44950573  0.58239312  1
  N  N56  1  0.88957388  0.53990357  0.35220820  1
  N  N57  1  0.75424395  0.41938860  0.08476980  1
  N  N58  1  0.57226551  0.49427529  0.82194831  1
  N  N59  1  0.43358225  0.44555788  0.57285922  1
  N  N60  1  0.21766142  0.86994393  0.34406361  1
  N  N61  1  0.11418039  0.76064230  0.10581441  1
  N  N62  1  0.86364843  0.89048374  0.83760062  1
  N  N63  1  0.81009883  0.74937127  0.58523331  1
  N  N64  1  0.56055306  0.86881814  0.35413795  1
  N  N65  1  0.44538612  0.76251672  0.12054881  1
  N  N66  1  0.21061570  0.90135008  0.82236438  1
  N  N67  1  0.11003998  0.75734056  0.59855210  1
  N  N68  1  0.90625655  0.83951842  0.33539632  1
  N  N69  1  0.76133426  0.79446392  0.08644380  1
  N  N70  1  0.55902749  0.89181414  0.84833875  1
  N  N71  1  0.42608396  0.74594647  0.58084658  1
