# generated using pymatgen
data_Gd2Al7N9
_symmetry_space_group_name_H-M   'P 1'
_cell_length_a   9.86936996
_cell_length_b   9.90580903
_cell_length_c   10.56799049
_cell_angle_alpha   89.60139756
_cell_angle_beta   89.91435059
_cell_angle_gamma   60.08414444
_symmetry_Int_Tables_number   1
_chemical_formula_structural   Gd2Al7N9
_chemical_formula_sum   'Gd8 Al28 N36'
_cell_volume   895.48517614
_cell_formula_units_Z   4
loop_
 _symmetry_equiv_pos_site_id
 _symmetry_equiv_pos_as_xyz
  1  'x, y, z'
loop_
 _atom_site_type_symbol
 _atom_site_label
 _atom_site_symmetry_multiplicity
 _atom_site_fract_x
 _atom_site_fract_y
 _atom_site_fract_z
 _atom_site_occupancy
  Al  Al0  1  0.10445558  0.10876328  0.33924725  1
  Al  Al1  1  0.22449323  0.21352918  0.15636841  1
  Al  Al2  1  0.76747761  0.09635356  0.92848313  1
  Al  Al3  1  0.43460924  0.10874616  0.38568754  1
  Al  Al4  1  0.53971343  0.21760534  0.14041531  1
  Al  Al5  1  0.12002195  0.08239738  0.85254803  1
  Al  Al6  1  0.89374772  0.20455900  0.08798269  1
  Al  Al7  1  0.44361451  0.08826080  0.92073800  1
  Al  Al8  1  0.10108502  0.44215658  0.39629275  1
  Al  Al9  1  0.22947496  0.53675515  0.15371274  1
  Al  Al10  1  0.77896736  0.41184002  0.89776632  1
  Al  Al11  1  0.89872135  0.54403447  0.66093824  1
  Al  Al12  1  0.43709038  0.43270671  0.39336475  1
  Al  Al13  1  0.55392536  0.52990085  0.15589914  1
  Al  Al14  1  0.13447117  0.40931667  0.89952197  1
  Al  Al15  1  0.22931104  0.53069953  0.63311280  1
  Al  Al16  1  0.77446549  0.45367262  0.40861927  1
  Al  Al17  1  0.44908689  0.41452398  0.90605713  1
  Al  Al18  1  0.54413139  0.53658972  0.64758636  1
  Al  Al19  1  0.11360388  0.75641251  0.33983405  1
  Al  Al20  1  0.21105992  0.88401194  0.10257165  1
  Al  Al21  1  0.77617287  0.78321832  0.83773085  1
  Al  Al22  1  0.90987674  0.84704969  0.56892437  1
  Al  Al23  1  0.43287133  0.76232783  0.32912574  1
  Al  Al24  1  0.54380754  0.88889924  0.16173341  1
  Al  Al25  1  0.22253661  0.85788667  0.57987913  1
  Al  Al26  1  0.78346418  0.75887801  0.32717650  1
  Al  Al27  1  0.88835270  0.87574463  0.09876202  1
  Gd  Gd28  1  0.87523386  0.21900308  0.63150895  1
  Gd  Gd29  1  0.21916533  0.19955208  0.63567117  1
  Gd  Gd30  1  0.78128900  0.09950097  0.36231577  1
  Gd  Gd31  1  0.55630861  0.19547772  0.66744330  1
  Gd  Gd32  1  0.88747322  0.54379676  0.11429568  1
  Gd  Gd33  1  0.10437362  0.77320804  0.82758642  1
  Gd  Gd34  1  0.46162248  0.74425318  0.87855055  1
  Gd  Gd35  1  0.57833223  0.82994863  0.59091466  1
  N  N36  1  0.21757765  0.21948629  0.34293444  1
  N  N37  1  0.10088590  0.10459396  0.15480707  1
  N  N38  1  0.90006841  0.18940189  0.89660460  1
  N  N39  1  0.78901722  0.06488609  0.58565152  1
  N  N40  1  0.52208848  0.22803492  0.32200001  1
  N  N41  1  0.43602380  0.09499295  0.10371053  1
  N  N42  1  0.23072612  0.19616391  0.85770006  1
  N  N43  1  0.11888030  0.04405212  0.67346160  1
  N  N44  1  0.90566333  0.23262118  0.40951884  1
  N  N45  1  0.77539567  0.10290503  0.11801159  1
  N  N46  1  0.55552812  0.19658811  0.89185790  1
  N  N47  1  0.45034188  0.08662637  0.55945940  1
  N  N48  1  0.22453358  0.53485460  0.33625250  1
  N  N49  1  0.14772744  0.41555135  0.08181600  1
  N  N50  1  0.89886334  0.52026027  0.85558523  1
  N  N51  1  0.74437698  0.50290394  0.58599004  1
  N  N52  1  0.55679743  0.53477883  0.33798992  1
  N  N53  1  0.43708493  0.44176176  0.08858578  1
  N  N54  1  0.24778487  0.50007061  0.82250080  1
  N  N55  1  0.09522353  0.45370402  0.57718133  1
  N  N56  1  0.88878741  0.54045850  0.33584975  1
  N  N57  1  0.75176196  0.42289160  0.07896198  1
  N  N58  1  0.58518211  0.47328709  0.82210983  1
  N  N59  1  0.44060303  0.43782213  0.57172962  1
  N  N60  1  0.21839048  0.87938427  0.39101090  1
  N  N61  1  0.10541604  0.76975462  0.15148207  1
  N  N62  1  0.87049296  0.87914115  0.92055789  1
  N  N63  1  0.82221521  0.75562453  0.66652824  1
  N  N64  1  0.54978851  0.87292701  0.35150299  1
  N  N65  1  0.43882715  0.76574855  0.14205194  1
  N  N66  1  0.21322834  0.89121693  0.92942488  1
  N  N67  1  0.12050698  0.74697977  0.61059174  1
  N  N68  1  0.90524017  0.83535897  0.39084250  1
  N  N69  1  0.75923434  0.79997633  0.15121642  1
  N  N70  1  0.56217148  0.89314025  0.84580127  1
  N  N71  1  0.41590485  0.74928530  0.65871084  1
