# generated using pymatgen
data_Gd2Al7N9
_symmetry_space_group_name_H-M   'P 1'
_cell_length_a   9.87573571
_cell_length_b   9.88880829
_cell_length_c   10.56979079
_cell_angle_alpha   89.48484198
_cell_angle_beta   90.18265133
_cell_angle_gamma   60.15500350
_symmetry_Int_Tables_number   1
_chemical_formula_structural   Gd2Al7N9
_chemical_formula_sum   'Gd8 Al28 N36'
_cell_volume   895.26612508
_cell_formula_units_Z   4
loop_
 _symmetry_equiv_pos_site_id
 _symmetry_equiv_pos_as_xyz
  1  'x, y, z'
loop_
 _atom_site_type_symbol
 _atom_site_label
 _atom_site_symmetry_multiplicity
 _atom_site_fract_x
 _atom_site_fract_y
 _atom_site_fract_z
 _atom_site_occupancy
  Al  Al0  1  0.11096695  0.10070995  0.37722315  1
  Al  Al1  1  0.22309664  0.21224106  0.15580009  1
  Al  Al2  1  0.77223388  0.10466790  0.93608012  1
  Al  Al3  1  0.42878220  0.11251284  0.38565604  1
  Al  Al4  1  0.53944152  0.21864675  0.14040793  1
  Al  Al5  1  0.10620706  0.10527192  0.93022705  1
  Al  Al6  1  0.88248231  0.21879891  0.15961497  1
  Al  Al7  1  0.44621646  0.09047392  0.92544236  1
  Al  Al8  1  0.10145856  0.43828988  0.39705537  1
  Al  Al9  1  0.22905061  0.53481110  0.15460480  1
  Al  Al10  1  0.77770816  0.40723397  0.90299603  1
  Al  Al11  1  0.90145205  0.53827955  0.66067898  1
  Al  Al12  1  0.43486684  0.43340779  0.39388226  1
  Al  Al13  1  0.55188193  0.53140393  0.15333442  1
  Al  Al14  1  0.13261434  0.41086334  0.90380787  1
  Al  Al15  1  0.23099727  0.52937447  0.63517472  1
  Al  Al16  1  0.77285308  0.44811111  0.39919231  1
  Al  Al17  1  0.44781475  0.41757127  0.90758948  1
  Al  Al18  1  0.54867197  0.53386559  0.64612960  1
  Al  Al19  1  0.11214139  0.75409241  0.33393495  1
  Al  Al20  1  0.21392027  0.87674108  0.10257493  1
  Al  Al21  1  0.77317665  0.78892441  0.83617495  1
  Al  Al22  1  0.91502645  0.84360343  0.57099548  1
  Al  Al23  1  0.43491735  0.75867151  0.32549622  1
  Al  Al24  1  0.54365347  0.88943417  0.16293707  1
  Al  Al25  1  0.22891011  0.85250181  0.56521809  1
  Al  Al26  1  0.78511151  0.75509950  0.32749564  1
  Al  Al27  1  0.88506119  0.87872483  0.09984033  1
  Gd  Gd28  1  0.88861660  0.21011027  0.64923878  1
  Gd  Gd29  1  0.23114506  0.19448955  0.65312163  1
  Gd  Gd30  1  0.76880691  0.09472365  0.37254017  1
  Gd  Gd31  1  0.56350234  0.19471820  0.67270222  1
  Gd  Gd32  1  0.88581225  0.54582529  0.11100738  1
  Gd  Gd33  1  0.10116573  0.76944728  0.83425185  1
  Gd  Gd34  1  0.45605638  0.75302470  0.86940414  1
  Gd  Gd35  1  0.58006017  0.83563746  0.58515303  1
  N  N36  1  0.21421396  0.21636062  0.33939176  1
  N  N37  1  0.10326961  0.10803222  0.12080946  1
  N  N38  1  0.89656883  0.19050570  0.87176103  1
  N  N39  1  0.79581517  0.06324173  0.58988798  1
  N  N40  1  0.51529995  0.23111902  0.32087945  1
  N  N41  1  0.43711833  0.09504459  0.10622884  1
  N  N42  1  0.22677491  0.19469601  0.87320792  1
  N  N43  1  0.12242208  0.06856838  0.57679761  1
  N  N44  1  0.89266200  0.23267147  0.34308055  1
  N  N45  1  0.77567745  0.10414153  0.12362874  1
  N  N46  1  0.55764355  0.19960250  0.89748800  1
  N  N47  1  0.45480277  0.09198333  0.55923786  1
  N  N48  1  0.22267127  0.53345977  0.33707083  1
  N  N49  1  0.14564039  0.41733400  0.08448217  1
  N  N50  1  0.89789645  0.51923486  0.85799221  1
  N  N51  1  0.75571072  0.48151794  0.58129185  1
  N  N52  1  0.55488354  0.53425589  0.33618551  1
  N  N53  1  0.43442230  0.44391487  0.08900043  1
  N  N54  1  0.24764873  0.49641425  0.82317784  1
  N  N55  1  0.09988758  0.44713821  0.57907244  1
  N  N56  1  0.88873306  0.53816817  0.33603010  1
  N  N57  1  0.75243645  0.41944279  0.08299621  1
  N  N58  1  0.58038216  0.48169256  0.82504593  1
  N  N59  1  0.44148525  0.43728708  0.57298517  1
  N  N60  1  0.22237075  0.86615386  0.37618472  1
  N  N61  1  0.10359774  0.76700610  0.14784136  1
  N  N62  1  0.86557041  0.88532195  0.92189981  1
  N  N63  1  0.82534299  0.75096869  0.66602315  1
  N  N64  1  0.54913935  0.87233202  0.35183291  1
  N  N65  1  0.44104897  0.76490305  0.13858655  1
  N  N66  1  0.21016841  0.89047570  0.92510895  1
  N  N67  1  0.12380721  0.74982437  0.61689856  1
  N  N68  1  0.90762612  0.83051061  0.39303465  1
  N  N69  1  0.75830868  0.80055408  0.15266772  1
  N  N70  1  0.55902726  0.90215879  0.83922320  1
  N  N71  1  0.42082951  0.75035567  0.64915742  1
