# generated using pymatgen
data_Gd2Al7N9
_symmetry_space_group_name_H-M   'P 1'
_cell_length_a   9.84607954
_cell_length_b   9.86294239
_cell_length_c   10.54815399
_cell_angle_alpha   89.18161545
_cell_angle_beta   89.71090880
_cell_angle_gamma   59.97165301
_symmetry_Int_Tables_number   1
_chemical_formula_structural   Gd2Al7N9
_chemical_formula_sum   'Gd8 Al28 N36'
_cell_volume   886.76229979
_cell_formula_units_Z   4
loop_
 _symmetry_equiv_pos_site_id
 _symmetry_equiv_pos_as_xyz
  1  'x, y, z'
loop_
 _atom_site_type_symbol
 _atom_site_label
 _atom_site_symmetry_multiplicity
 _atom_site_fract_x
 _atom_site_fract_y
 _atom_site_fract_z
 _atom_site_occupancy
  Al  Al0  1  0.11326462  0.09754962  0.28872402  1
  Al  Al1  1  0.22602874  0.20281663  0.05224777  1
  Al  Al2  1  0.77267954  0.09679573  0.83321757  1
  Al  Al3  1  0.43797668  0.09559833  0.28063473  1
  Al  Al4  1  0.54679860  0.21338327  0.04499193  1
  Al  Al5  1  0.11363832  0.09308337  0.81569171  1
  Al  Al6  1  0.88749625  0.20646896  0.04359137  1
  Al  Al7  1  0.44500210  0.09614866  0.81799947  1
  Al  Al8  1  0.11639181  0.42164252  0.29035489  1
  Al  Al9  1  0.22996560  0.53425388  0.05718040  1
  Al  Al10  1  0.76644677  0.43111198  0.81166416  1
  Al  Al11  1  0.89337612  0.54780968  0.64505825  1
  Al  Al12  1  0.43838985  0.42607954  0.29690808  1
  Al  Al13  1  0.55236091  0.52894161  0.05860635  1
  Al  Al14  1  0.12859799  0.42060546  0.81494427  1
  Al  Al15  1  0.21963470  0.54626452  0.54516899  1
  Al  Al16  1  0.78027923  0.42503163  0.29711946  1
  Al  Al17  1  0.44264577  0.43014147  0.81072290  1
  Al  Al18  1  0.54356291  0.55030186  0.54707181  1
  Al  Al19  1  0.11238772  0.74976750  0.30647959  1
  Al  Al20  1  0.21785954  0.87366167  0.06346641  1
  Al  Al21  1  0.77360473  0.78155288  0.81288384  1
  Al  Al22  1  0.90117455  0.85781186  0.54386053  1
  Al  Al23  1  0.44406963  0.75719791  0.29180109  1
  Al  Al24  1  0.55511340  0.88044889  0.05958142  1
  Al  Al25  1  0.22186348  0.86656311  0.53168554  1
  Al  Al26  1  0.78103630  0.75524122  0.28784942  1
  Al  Al27  1  0.88903863  0.87604560  0.05054798  1
  Gd  Gd28  1  0.88796614  0.21159887  0.57279824  1
  Gd  Gd29  1  0.21507277  0.20654548  0.55232909  1
  Gd  Gd30  1  0.78104693  0.09182072  0.28977528  1
  Gd  Gd31  1  0.54770534  0.21470406  0.56486776  1
  Gd  Gd32  1  0.88709750  0.53901620  0.06399821  1
  Gd  Gd33  1  0.10620560  0.76480024  0.78789137  1
  Gd  Gd34  1  0.44362068  0.76460557  0.80388201  1
  Gd  Gd35  1  0.57823066  0.85758399  0.53815188  1
  N  N36  1  0.22597349  0.19892100  0.33503596  1
  N  N37  1  0.10574729  0.09918288  0.10622895  1
  N  N38  1  0.88871447  0.21158506  0.85464574  1
  N  N39  1  0.79369120  0.05961144  0.61932710  1
  N  N40  1  0.52921481  0.21088940  0.34759719  1
  N  N41  1  0.44282067  0.09830347  0.09862688  1
  N  N42  1  0.22104880  0.20502986  0.86610911  1
  N  N43  1  0.13142693  0.05232368  0.63627165  1
  N  N44  1  0.90810294  0.21459733  0.35869832  1
  N  N45  1  0.77482545  0.09942667  0.07340454  1
  N  N46  1  0.54906753  0.21259083  0.85825588  1
  N  N47  1  0.44444594  0.08107258  0.64071582  1
  N  N48  1  0.22521604  0.52859968  0.35972377  1
  N  N49  1  0.14282486  0.41103864  0.11033156  1
  N  N50  1  0.89106352  0.53861872  0.83738582  1
  N  N51  1  0.74761680  0.47437438  0.63103210  1
  N  N52  1  0.55644447  0.53068293  0.35952326  1
  N  N53  1  0.44277690  0.42627571  0.11466051  1
  N  N54  1  0.23584113  0.51957653  0.87770769  1
  N  N55  1  0.11349903  0.45016385  0.63248084  1
  N  N56  1  0.89108821  0.53511504  0.30871774  1
  N  N57  1  0.76183022  0.40633741  0.11626404  1
  N  N58  1  0.56393504  0.51405257  0.87919593  1
  N  N59  1  0.42405710  0.46667321  0.62845511  1
  N  N60  1  0.21894180  0.87460203  0.34462204  1
  N  N61  1  0.10873735  0.75817325  0.11636443  1
  N  N62  1  0.87270096  0.88333704  0.87497832  1
  N  N63  1  0.81132261  0.75852496  0.63621221  1
  N  N64  1  0.55363138  0.87143396  0.32405789  1
  N  N65  1  0.44677545  0.75501624  0.10597830  1
  N  N66  1  0.20630856  0.89335225  0.88751650  1
  N  N67  1  0.11587635  0.76002663  0.57071380  1
  N  N68  1  0.89542328  0.84214502  0.36365849  1
  N  N69  1  0.76638302  0.79421188  0.11190470  1
  N  N70  1  0.56782247  0.88460272  0.87653799  1
  N  N71  1  0.42849056  0.75951433  0.58540495  1
