# generated using pymatgen
data_Gd2Al7N9
_symmetry_space_group_name_H-M   'P 1'
_cell_length_a   9.84621084
_cell_length_b   9.93941576
_cell_length_c   10.58890908
_cell_angle_alpha   89.26935822
_cell_angle_beta   89.47796272
_cell_angle_gamma   59.93583031
_symmetry_Int_Tables_number   1
_chemical_formula_structural   Gd2Al7N9
_chemical_formula_sum   'Gd8 Al28 N36'
_cell_volume   896.79502840
_cell_formula_units_Z   4
loop_
 _symmetry_equiv_pos_site_id
 _symmetry_equiv_pos_as_xyz
  1  'x, y, z'
loop_
 _atom_site_type_symbol
 _atom_site_label
 _atom_site_symmetry_multiplicity
 _atom_site_fract_x
 _atom_site_fract_y
 _atom_site_fract_z
 _atom_site_occupancy
  Al  Al0  1  0.10542768  0.10227448  0.33672051  1
  Al  Al1  1  0.22742047  0.20801301  0.15755405  1
  Al  Al2  1  0.76596078  0.09771087  0.92867931  1
  Al  Al3  1  0.44184981  0.10180498  0.38394618  1
  Al  Al4  1  0.53950387  0.21787617  0.14004844  1
  Al  Al5  1  0.12552217  0.08458688  0.84844275  1
  Al  Al6  1  0.89684700  0.20283591  0.08519807  1
  Al  Al7  1  0.43840639  0.09223308  0.91914579  1
  Al  Al8  1  0.10921666  0.43685321  0.34634690  1
  Al  Al9  1  0.23499387  0.54079150  0.15718695  1
  Al  Al10  1  0.77967404  0.41181983  0.89952882  1
  Al  Al11  1  0.88938805  0.54753572  0.66302170  1
  Al  Al12  1  0.44105733  0.43135643  0.39632035  1
  Al  Al13  1  0.56076217  0.52628742  0.15726467  1
  Al  Al14  1  0.12866686  0.41371289  0.83597687  1
  Al  Al15  1  0.22992725  0.53368528  0.63431424  1
  Al  Al16  1  0.78082134  0.45060434  0.41263957  1
  Al  Al17  1  0.44887177  0.41715212  0.90806733  1
  Al  Al18  1  0.54255359  0.53575735  0.65126825  1
  Al  Al19  1  0.11398938  0.75810665  0.34545680  1
  Al  Al20  1  0.21428603  0.88259184  0.10339704  1
  Al  Al21  1  0.77509871  0.78901726  0.83525199  1
  Al  Al22  1  0.90278130  0.85017824  0.56700581  1
  Al  Al23  1  0.43834298  0.75883399  0.32814284  1
  Al  Al24  1  0.54789228  0.88675638  0.15950238  1
  Al  Al25  1  0.22121931  0.85516500  0.57871845  1
  Al  Al26  1  0.78613026  0.75745839  0.32483185  1
  Al  Al27  1  0.89176691  0.87653998  0.09859246  1
  Gd  Gd28  1  0.86236762  0.21665009  0.64422184  1
  Gd  Gd29  1  0.19147950  0.19553102  0.58890184  1
  Gd  Gd30  1  0.78183855  0.10354182  0.36479960  1
  Gd  Gd31  1  0.53731784  0.19585895  0.66953292  1
  Gd  Gd32  1  0.89360930  0.54666377  0.09903135  1
  Gd  Gd33  1  0.10599815  0.78681086  0.82083421  1
  Gd  Gd34  1  0.46556557  0.74342588  0.88270309  1
  Gd  Gd35  1  0.57127962  0.83147378  0.59208679  1
  N  N36  1  0.22120150  0.21036265  0.34760178  1
  N  N37  1  0.10237031  0.10233091  0.15598680  1
  N  N38  1  0.90161887  0.18989811  0.89633957  1
  N  N39  1  0.77560900  0.06744334  0.58701449  1
  N  N40  1  0.52234411  0.22749121  0.32226370  1
  N  N41  1  0.43709349  0.09324157  0.10284499  1
  N  N42  1  0.23132742  0.19911838  0.84828823  1
  N  N43  1  0.10994718  0.03537242  0.67814372  1
  N  N44  1  0.91568371  0.22817375  0.42141898  1
  N  N45  1  0.77670771  0.10311870  0.11753423  1
  N  N46  1  0.55311639  0.19920952  0.89336388  1
  N  N47  1  0.43901174  0.08533826  0.55733458  1
  N  N48  1  0.22953916  0.53859716  0.34181019  1
  N  N49  1  0.14768611  0.41668678  0.12638907  1
  N  N50  1  0.89217366  0.52715407  0.85635650  1
  N  N51  1  0.74296066  0.50105800  0.58805863  1
  N  N52  1  0.56253906  0.53077042  0.33917417  1
  N  N53  1  0.44133288  0.44157263  0.08998909  1
  N  N54  1  0.24977779  0.51315192  0.82510462  1
  N  N55  1  0.10202349  0.44358704  0.62448046  1
  N  N56  1  0.88991386  0.54056478  0.33653350  1
  N  N57  1  0.75867566  0.42066179  0.08042538  1
  N  N58  1  0.58753531  0.47280829  0.82435130  1
  N  N59  1  0.44242154  0.43603235  0.57389460  1
  N  N60  1  0.22276135  0.87852985  0.39160005  1
  N  N61  1  0.10838076  0.77098605  0.15486646  1
  N  N62  1  0.87330812  0.88018641  0.91899474  1
  N  N63  1  0.81545804  0.75790251  0.66329226  1
  N  N64  1  0.55289944  0.87055943  0.35001493  1
  N  N65  1  0.44377307  0.76264233  0.14224167  1
  N  N66  1  0.21709537  0.89589499  0.93153906  1
  N  N67  1  0.11634657  0.74652903  0.60173352  1
  N  N68  1  0.90150263  0.84101594  0.38875653  1
  N  N69  1  0.76335115  0.79939145  0.14983143  1
  N  N70  1  0.56076669  0.89642622  0.84569443  1
  N  N71  1  0.41093658  0.74770422  0.66356909  1
