# generated using pymatgen
data_Gd2Al7N9
_symmetry_space_group_name_H-M   'P 1'
_cell_length_a   9.77066425
_cell_length_b   9.87384675
_cell_length_c   10.78766218
_cell_angle_alpha   89.31463039
_cell_angle_beta   89.14093834
_cell_angle_gamma   59.89549424
_symmetry_Int_Tables_number   1
_chemical_formula_structural   Gd2Al7N9
_chemical_formula_sum   'Gd8 Al28 N36'
_cell_volume   900.23437777
_cell_formula_units_Z   4
loop_
 _symmetry_equiv_pos_site_id
 _symmetry_equiv_pos_as_xyz
  1  'x, y, z'
loop_
 _atom_site_type_symbol
 _atom_site_label
 _atom_site_symmetry_multiplicity
 _atom_site_fract_x
 _atom_site_fract_y
 _atom_site_fract_z
 _atom_site_occupancy
  Al  Al0  1  0.10973183  0.09719184  0.31905768  1
  Al  Al1  1  0.22947319  0.20256305  0.13451385  1
  Al  Al2  1  0.76669914  0.09381482  0.91436795  1
  Al  Al3  1  0.44414726  0.09391426  0.36832017  1
  Al  Al4  1  0.54441640  0.21578175  0.14351723  1
  Al  Al5  1  0.12385763  0.08709518  0.83629730  1
  Al  Al6  1  0.89699555  0.19933374  0.06931430  1
  Al  Al7  1  0.43710670  0.10253788  0.91828106  1
  Al  Al8  1  0.11876632  0.43405502  0.30638222  1
  Al  Al9  1  0.23133519  0.54000693  0.07373642  1
  Al  Al10  1  0.77669636  0.41426004  0.89013213  1
  Al  Al11  1  0.88620472  0.55512371  0.66594862  1
  Al  Al12  1  0.44718869  0.43103097  0.38494314  1
  Al  Al13  1  0.56314252  0.52463144  0.14645682  1
  Al  Al14  1  0.13235987  0.41446055  0.82798456  1
  Al  Al15  1  0.21350843  0.54740578  0.55696528  1
  Al  Al16  1  0.78571231  0.44993432  0.40128648  1
  Al  Al17  1  0.46168102  0.40655290  0.90336454  1
  Al  Al18  1  0.54224514  0.53946818  0.64014540  1
  Al  Al19  1  0.11569164  0.74962531  0.32654894  1
  Al  Al20  1  0.21492059  0.87752424  0.08682381  1
  Al  Al21  1  0.77145085  0.78496524  0.83768703  1
  Al  Al22  1  0.89577506  0.85521762  0.55816529  1
  Al  Al23  1  0.44167883  0.76433522  0.30774941  1
  Al  Al24  1  0.55883653  0.87872322  0.09054350  1
  Al  Al25  1  0.21722915  0.86677853  0.56724990  1
  Al  Al26  1  0.78174728  0.75769391  0.30930961  1
  Al  Al27  1  0.89404805  0.87339196  0.08536018  1
  Gd  Gd28  1  0.85972677  0.21973189  0.63552009  1
  Gd  Gd29  1  0.16925375  0.22371057  0.55052872  1
  Gd  Gd30  1  0.79029602  0.09974699  0.35667316  1
  Gd  Gd31  1  0.52920844  0.20253637  0.64709521  1
  Gd  Gd32  1  0.89552578  0.54249819  0.08822078  1
  Gd  Gd33  1  0.10868314  0.76572446  0.80952850  1
  Gd  Gd34  1  0.45505279  0.74562778  0.86246386  1
  Gd  Gd35  1  0.57160613  0.83011317  0.56204482  1
  N  N36  1  0.22512012  0.20453553  0.32705247  1
  N  N37  1  0.10189904  0.09723791  0.14116068  1
  N  N38  1  0.89764022  0.19080465  0.88174906  1
  N  N39  1  0.77199695  0.07249817  0.57071056  1
  N  N40  1  0.52812031  0.22478546  0.31921045  1
  N  N41  1  0.44398671  0.09943847  0.09659492  1
  N  N42  1  0.22176676  0.20454432  0.87553225  1
  N  N43  1  0.11696992  0.05696366  0.66119695  1
  N  N44  1  0.92373741  0.22635903  0.41305360  1
  N  N45  1  0.77660524  0.10019458  0.10306749  1
  N  N46  1  0.55658365  0.19430267  0.86385806  1
  N  N47  1  0.42449819  0.08990156  0.54397652  1
  N  N48  1  0.22004509  0.53556183  0.37720979  1
  N  N49  1  0.15009741  0.41804892  0.13352296  1
  N  N50  1  0.88434014  0.53457079  0.85059627  1
  N  N51  1  0.74950911  0.50082194  0.57822449  1
  N  N52  1  0.56506622  0.53169021  0.32526189  1
  N  N53  1  0.45553956  0.42832207  0.08263111  1
  N  N54  1  0.23490364  0.51953246  0.89426136  1
  N  N55  1  0.11230758  0.45126299  0.64929434  1
  N  N56  1  0.89448301  0.53676087  0.32170295  1
  N  N57  1  0.76061879  0.41761533  0.06713897  1
  N  N58  1  0.58391971  0.47616883  0.81237931  1
  N  N59  1  0.44269469  0.44349018  0.56222212  1
  N  N60  1  0.22278460  0.87513161  0.37689913  1
  N  N61  1  0.11482377  0.75770234  0.14170697  1
  N  N62  1  0.87717130  0.87603679  0.90938922  1
  N  N63  1  0.79946666  0.77199102  0.66392494  1
  N  N64  1  0.55782836  0.86438546  0.34789897  1
  N  N65  1  0.44446799  0.76129955  0.12561732  1
  N  N66  1  0.20586362  0.89299505  0.91595388  1
  N  N67  1  0.10961452  0.75839729  0.59663199  1
  N  N68  1  0.90149983  0.83639769  0.38046929  1
  N  N69  1  0.76742655  0.79461241  0.13857854  1
  N  N70  1  0.56921133  0.88193857  0.90547786  1
  N  N71  1  0.41118040  0.75488118  0.65044781  1
