# generated using pymatgen
data_Gd2Al7N9
_symmetry_space_group_name_H-M   'P 1'
_cell_length_a   9.84562065
_cell_length_b   9.86000003
_cell_length_c   10.54900417
_cell_angle_alpha   89.21618520
_cell_angle_beta   89.69989416
_cell_angle_gamma   59.95405994
_symmetry_Int_Tables_number   1
_chemical_formula_structural   Gd2Al7N9
_chemical_formula_sum   'Gd8 Al28 N36'
_cell_volume   886.37905891
_cell_formula_units_Z   4
loop_
 _symmetry_equiv_pos_site_id
 _symmetry_equiv_pos_as_xyz
  1  'x, y, z'
loop_
 _atom_site_type_symbol
 _atom_site_label
 _atom_site_symmetry_multiplicity
 _atom_site_fract_x
 _atom_site_fract_y
 _atom_site_fract_z
 _atom_site_occupancy
  Al  Al0  1  0.11301891  0.09769190  0.28847709  1
  Al  Al1  1  0.22612498  0.20274941  0.05227612  1
  Al  Al2  1  0.77365246  0.09461021  0.82339718  1
  Al  Al3  1  0.43796459  0.09582354  0.28047669  1
  Al  Al4  1  0.54863822  0.21233507  0.04392698  1
  Al  Al5  1  0.11351440  0.09327118  0.81561375  1
  Al  Al6  1  0.88671492  0.20576750  0.04257133  1
  Al  Al7  1  0.44513120  0.09616879  0.81802776  1
  Al  Al8  1  0.11619786  0.42184077  0.29024188  1
  Al  Al9  1  0.23018119  0.53400092  0.05738777  1
  Al  Al10  1  0.76657849  0.43069172  0.81172735  1
  Al  Al11  1  0.89327998  0.54797220  0.64509242  1
  Al  Al12  1  0.43827893  0.42604475  0.29688498  1
  Al  Al13  1  0.55241825  0.52874691  0.05859285  1
  Al  Al14  1  0.12864331  0.42046749  0.81497085  1
  Al  Al15  1  0.21932600  0.54662052  0.54505773  1
  Al  Al16  1  0.78020045  0.42508514  0.29690299  1
  Al  Al17  1  0.44296581  0.42964578  0.81079869  1
  Al  Al18  1  0.54350553  0.55013360  0.54688698  1
  Al  Al19  1  0.11189678  0.75029937  0.30658960  1
  Al  Al20  1  0.21762428  0.87381755  0.06342058  1
  Al  Al21  1  0.77369687  0.78122242  0.81333305  1
  Al  Al22  1  0.90081530  0.85844884  0.54549841  1
  Al  Al23  1  0.44390284  0.75727748  0.29158178  1
  Al  Al24  1  0.55517311  0.88050650  0.05965606  1
  Al  Al25  1  0.22184383  0.86679397  0.53175060  1
  Al  Al26  1  0.78087893  0.75565180  0.28804944  1
  Al  Al27  1  0.88828782  0.87712435  0.05025274  1
  Gd  Gd28  1  0.88824847  0.21193948  0.57282413  1
  Gd  Gd29  1  0.21548055  0.20691244  0.55186741  1
  Gd  Gd30  1  0.78057751  0.09237609  0.28974790  1
  Gd  Gd31  1  0.54853185  0.21433544  0.56547730  1
  Gd  Gd32  1  0.88709808  0.53896609  0.06401466  1
  Gd  Gd33  1  0.10673070  0.76408961  0.78861989  1
  Gd  Gd34  1  0.44376609  0.76445658  0.80412877  1
  Gd  Gd35  1  0.57789180  0.85731514  0.53801762  1
  N  N36  1  0.22577806  0.19907436  0.33470775  1
  N  N37  1  0.10546414  0.09929117  0.10601112  1
  N  N38  1  0.88849447  0.21103307  0.85378623  1
  N  N39  1  0.79444837  0.05972934  0.62627961  1
  N  N40  1  0.52885837  0.21106911  0.34860989  1
  N  N41  1  0.44309102  0.09847936  0.09844589  1
  N  N42  1  0.22116114  0.20496355  0.86606904  1
  N  N43  1  0.13156299  0.05314617  0.63588790  1
  N  N44  1  0.90791436  0.21474478  0.35911154  1
  N  N45  1  0.77492454  0.09913253  0.07584396  1
  N  N46  1  0.55028312  0.21182584  0.85723707  1
  N  N47  1  0.44469936  0.08127355  0.64051137  1
  N  N48  1  0.22482899  0.52903131  0.35969698  1
  N  N49  1  0.14273029  0.41110099  0.11036628  1
  N  N50  1  0.89100376  0.53854589  0.83731967  1
  N  N51  1  0.74780392  0.47416382  0.63087361  1
  N  N52  1  0.55635717  0.53074930  0.35944362  1
  N  N53  1  0.44313178  0.42577068  0.11458990  1
  N  N54  1  0.23622284  0.51900340  0.87789850  1
  N  N55  1  0.11335691  0.45048498  0.63249567  1
  N  N56  1  0.89089750  0.53536339  0.30883809  1
  N  N57  1  0.76196204  0.40611060  0.11600852  1
  N  N58  1  0.56389103  0.51399024  0.87910892  1
  N  N59  1  0.42395061  0.46628836  0.62817235  1
  N  N60  1  0.21879459  0.87473996  0.34476311  1
  N  N61  1  0.10847816  0.75835261  0.11645231  1
  N  N62  1  0.87270331  0.88334860  0.87493809  1
  N  N63  1  0.81067194  0.75889248  0.63640952  1
  N  N64  1  0.55334380  0.87160043  0.32405985  1
  N  N65  1  0.44668646  0.75504344  0.10588691  1
  N  N66  1  0.20633537  0.89342956  0.88739527  1
  N  N67  1  0.11560054  0.76060502  0.57126089  1
  N  N68  1  0.89454057  0.84323564  0.36511628  1
  N  N69  1  0.76644372  0.79428895  0.11208038  1
  N  N70  1  0.56777771  0.88458729  0.87659604  1
  N  N71  1  0.42834353  0.75928739  0.58567947  1
