# generated using pymatgen
data_Gd2Al7N9
_symmetry_space_group_name_H-M   'P 1'
_cell_length_a   9.88390069
_cell_length_b   9.95067739
_cell_length_c   10.40888591
_cell_angle_alpha   89.28084926
_cell_angle_beta   89.81305213
_cell_angle_gamma   59.94365621
_symmetry_Int_Tables_number   1
_chemical_formula_structural   Gd2Al7N9
_chemical_formula_sum   'Gd8 Al28 N36'
_cell_volume   885.99686513
_cell_formula_units_Z   4
loop_
 _symmetry_equiv_pos_site_id
 _symmetry_equiv_pos_as_xyz
  1  'x, y, z'
loop_
 _atom_site_type_symbol
 _atom_site_label
 _atom_site_symmetry_multiplicity
 _atom_site_fract_x
 _atom_site_fract_y
 _atom_site_fract_z
 _atom_site_occupancy
  Al  Al0  1  0.11160349  0.09915472  0.38673602  1
  Al  Al1  1  0.22291124  0.21006791  0.15552064  1
  Al  Al2  1  0.78640774  0.08942137  0.92884862  1
  Al  Al3  1  0.43062204  0.11573533  0.37889102  1
  Al  Al4  1  0.54472541  0.21342263  0.12856815  1
  Al  Al5  1  0.10855220  0.10625146  0.93049137  1
  Al  Al6  1  0.88664273  0.21291118  0.15792483  1
  Al  Al7  1  0.44514297  0.08817974  0.92591238  1
  Al  Al8  1  0.10379762  0.43346661  0.39768955  1
  Al  Al9  1  0.22649515  0.53889390  0.15748785  1
  Al  Al10  1  0.77785156  0.40749925  0.90378417  1
  Al  Al11  1  0.89120616  0.54539758  0.65141685  1
  Al  Al12  1  0.43505488  0.43313138  0.39140504  1
  Al  Al13  1  0.55375182  0.52892728  0.15292850  1
  Al  Al14  1  0.13269076  0.41057374  0.90251814  1
  Al  Al15  1  0.22521983  0.53398729  0.63442129  1
  Al  Al16  1  0.77133770  0.44473346  0.39966287  1
  Al  Al17  1  0.45234114  0.41314915  0.91003219  1
  Al  Al18  1  0.54542536  0.53441673  0.64570469  1
  Al  Al19  1  0.10977853  0.74737637  0.39282165  1
  Al  Al20  1  0.21689445  0.87730768  0.10573332  1
  Al  Al21  1  0.76801419  0.78456877  0.87695998  1
  Al  Al22  1  0.89690347  0.87075730  0.64844308  1
  Al  Al23  1  0.43893716  0.75718089  0.32431619  1
  Al  Al24  1  0.55821696  0.88117675  0.15652510  1
  Al  Al25  1  0.22671686  0.85421790  0.56982884  1
  Al  Al26  1  0.79080000  0.74828060  0.39056903  1
  Al  Al27  1  0.89207803  0.86937543  0.15234312  1
  Gd  Gd28  1  0.89053355  0.21313334  0.65097483  1
  Gd  Gd29  1  0.22692007  0.20059214  0.65046048  1
  Gd  Gd30  1  0.76617309  0.09730629  0.37917451  1
  Gd  Gd31  1  0.55414432  0.20703461  0.67914227  1
  Gd  Gd32  1  0.88637664  0.54487264  0.12350882  1
  Gd  Gd33  1  0.11998983  0.74412513  0.88771385  1
  Gd  Gd34  1  0.46183317  0.74769039  0.87741383  1
  Gd  Gd35  1  0.55432014  0.85773575  0.60040897  1
  N  N36  1  0.21305622  0.21561133  0.34045577  1
  N  N37  1  0.10526023  0.10750312  0.11713289  1
  N  N38  1  0.89988198  0.19359256  0.87226420  1
  N  N39  1  0.78742936  0.07700892  0.59361409  1
  N  N40  1  0.51657763  0.23394355  0.31324746  1
  N  N41  1  0.43736155  0.09001280  0.10892627  1
  N  N42  1  0.22662444  0.19701899  0.87208404  1
  N  N43  1  0.12494946  0.06950042  0.56923038  1
  N  N44  1  0.89373479  0.23105607  0.34321844  1
  N  N45  1  0.78779864  0.09103664  0.11762297  1
  N  N46  1  0.56238104  0.19428961  0.91120065  1
  N  N47  1  0.45075716  0.10767438  0.55573632  1
  N  N48  1  0.21825103  0.53701998  0.34102166  1
  N  N49  1  0.14567430  0.41716998  0.08548463  1
  N  N50  1  0.89161738  0.53447831  0.85177305  1
  N  N51  1  0.75387618  0.47423192  0.58234413  1
  N  N52  1  0.55553501  0.53376544  0.33637924  1
  N  N53  1  0.43322068  0.44644514  0.08983409  1
  N  N54  1  0.25640465  0.48495338  0.81818564  1
  N  N55  1  0.09744302  0.44761736  0.58056306  1
  N  N56  1  0.88679763  0.54102064  0.34350567  1
  N  N57  1  0.75620224  0.41677006  0.08470873  1
  N  N58  1  0.58194564  0.47656054  0.82527173  1
  N  N59  1  0.43649431  0.44216079  0.57158836  1
  N  N60  1  0.22491830  0.86205898  0.37357799  1
  N  N61  1  0.10981370  0.75682072  0.11039817  1
  N  N62  1  0.87132013  0.89499746  0.83653962  1
  N  N63  1  0.80852969  0.75136019  0.60524791  1
  N  N64  1  0.56072087  0.86833380  0.34835974  1
  N  N65  1  0.44717159  0.76198154  0.13562275  1
  N  N66  1  0.21642220  0.89464743  0.92096185  1
  N  N67  1  0.10905290  0.75322992  0.58928872  1
  N  N68  1  0.90175618  0.84158011  0.33375565  1
  N  N69  1  0.75848520  0.80013840  0.07892388  1
  N  N70  1  0.55633027  0.90364963  0.83064429  1
  N  N71  1  0.41289433  0.74714696  0.65624098  1
