# generated using pymatgen
data_Gd2Al7N9
_symmetry_space_group_name_H-M   'P 1'
_cell_length_a   9.88388569
_cell_length_b   9.91853048
_cell_length_c   10.52432954
_cell_angle_alpha   89.73059377
_cell_angle_beta   90.08730153
_cell_angle_gamma   60.18138148
_symmetry_Int_Tables_number   1
_chemical_formula_structural   Gd2Al7N9
_chemical_formula_sum   'Gd8 Al28 N36'
_cell_volume   895.12128396
_cell_formula_units_Z   4
loop_
 _symmetry_equiv_pos_site_id
 _symmetry_equiv_pos_as_xyz
  1  'x, y, z'
loop_
 _atom_site_type_symbol
 _atom_site_label
 _atom_site_symmetry_multiplicity
 _atom_site_fract_x
 _atom_site_fract_y
 _atom_site_fract_z
 _atom_site_occupancy
  Al  Al0  1  0.10729615  0.10409681  0.33885936  1
  Al  Al1  1  0.22414074  0.21320338  0.15663887  1
  Al  Al2  1  0.77298229  0.10154729  0.93082669  1
  Al  Al3  1  0.43245375  0.11072059  0.38532555  1
  Al  Al4  1  0.53812368  0.21877194  0.13726388  1
  Al  Al5  1  0.11717074  0.08429343  0.85011861  1
  Al  Al6  1  0.88582241  0.21330574  0.13202768  1
  Al  Al7  1  0.44402339  0.08912229  0.92206363  1
  Al  Al8  1  0.09949365  0.44305160  0.39601554  1
  Al  Al9  1  0.22916126  0.53668221  0.15418238  1
  Al  Al10  1  0.78048122  0.40567226  0.89940730  1
  Al  Al11  1  0.89922042  0.54206410  0.66191242  1
  Al  Al12  1  0.43587575  0.43321223  0.39308528  1
  Al  Al13  1  0.55166850  0.53213106  0.15522119  1
  Al  Al14  1  0.13474730  0.40747520  0.90071289  1
  Al  Al15  1  0.23065241  0.53017428  0.63368437  1
  Al  Al16  1  0.77213910  0.45255249  0.40315259  1
  Al  Al17  1  0.44880599  0.41583064  0.90709616  1
  Al  Al18  1  0.54702407  0.53458359  0.64714735  1
  Al  Al19  1  0.11323608  0.75659558  0.33848803  1
  Al  Al20  1  0.21011169  0.88506299  0.09957633  1
  Al  Al21  1  0.77415109  0.78782961  0.83789998  1
  Al  Al22  1  0.91313993  0.84402310  0.57082467  1
  Al  Al23  1  0.43194126  0.76273642  0.32895411  1
  Al  Al24  1  0.54330120  0.88930940  0.16208316  1
  Al  Al25  1  0.22530624  0.85668432  0.57963930  1
  Al  Al26  1  0.78426288  0.75630639  0.32705530  1
  Al  Al27  1  0.88711912  0.87762556  0.09942977  1
  Gd  Gd28  1  0.87939397  0.21601063  0.63330151  1
  Gd  Gd29  1  0.22582575  0.20211988  0.63858747  1
  Gd  Gd30  1  0.77200785  0.09444612  0.36719182  1
  Gd  Gd31  1  0.56142779  0.19453155  0.67185398  1
  Gd  Gd32  1  0.88653959  0.54648632  0.10935150  1
  Gd  Gd33  1  0.10360886  0.76802282  0.83260325  1
  Gd  Gd34  1  0.46036373  0.74710537  0.87555102  1
  Gd  Gd35  1  0.57945681  0.83248728  0.58973650  1
  N  N36  1  0.21566572  0.21918732  0.34536112  1
  N  N37  1  0.10506193  0.10199736  0.15361462  1
  N  N38  1  0.89587157  0.19049216  0.87384654  1
  N  N39  1  0.79268272  0.06216993  0.58750130  1
  N  N40  1  0.51665088  0.23090823  0.31941037  1
  N  N41  1  0.43513899  0.09462349  0.10478334  1
  N  N42  1  0.23086859  0.19504135  0.86025931  1
  N  N43  1  0.12535726  0.04804429  0.66423702  1
  N  N44  1  0.89524114  0.23248586  0.37925668  1
  N  N45  1  0.77642755  0.10338641  0.12157303  1
  N  N46  1  0.55748516  0.19752310  0.89857562  1
  N  N47  1  0.45585578  0.08817302  0.55938747  1
  N  N48  1  0.22332390  0.53583353  0.33689949  1
  N  N49  1  0.14724668  0.41541695  0.08347065  1
  N  N50  1  0.89907289  0.51897030  0.85776860  1
  N  N51  1  0.74978756  0.49412319  0.58366500  1
  N  N52  1  0.55376658  0.53714267  0.33768391  1
  N  N53  1  0.43529396  0.44404314  0.08902062  1
  N  N54  1  0.24892994  0.49615686  0.82282831  1
  N  N55  1  0.09472007  0.45479940  0.57721594  1
  N  N56  1  0.88813082  0.53934170  0.33389166  1
  N  N57  1  0.75286005  0.42041884  0.08210853  1
  N  N58  1  0.58248629  0.47750142  0.82471901  1
  N  N59  1  0.44205682  0.43583614  0.57259316  1
  N  N60  1  0.21829944  0.87780873  0.39031287  1
  N  N61  1  0.10514041  0.76978784  0.14955490  1
  N  N62  1  0.86818162  0.88349823  0.92132509  1
  N  N63  1  0.82364744  0.75337291  0.66720319  1
  N  N64  1  0.54938735  0.87308407  0.35164560  1
  N  N65  1  0.43830570  0.76646715  0.14021310  1
  N  N66  1  0.21138113  0.89193555  0.92531387  1
  N  N67  1  0.12255935  0.74720877  0.61498554  1
  N  N68  1  0.90734807  0.83077693  0.39217659  1
  N  N69  1  0.75832095  0.80136324  0.15124995  1
  N  N70  1  0.56101048  0.89667834  0.84312412  1
  N  N71  1  0.42070637  0.74734260  0.65471248  1
