# generated using pymatgen
data_Gd2Al7N9
_symmetry_space_group_name_H-M   'P 1'
_cell_length_a   9.77743524
_cell_length_b   9.89576123
_cell_length_c   10.75682747
_cell_angle_alpha   89.31670648
_cell_angle_beta   89.21034626
_cell_angle_gamma   59.89554045
_symmetry_Int_Tables_number   1
_chemical_formula_structural   Gd2Al7N9
_chemical_formula_sum   'Gd8 Al28 N36'
_cell_volume   900.28983731
_cell_formula_units_Z   4
loop_
 _symmetry_equiv_pos_site_id
 _symmetry_equiv_pos_as_xyz
  1  'x, y, z'
loop_
 _atom_site_type_symbol
 _atom_site_label
 _atom_site_symmetry_multiplicity
 _atom_site_fract_x
 _atom_site_fract_y
 _atom_site_fract_z
 _atom_site_occupancy
  Al  Al0  1  0.10819127  0.09711242  0.32964251  1
  Al  Al1  1  0.22933922  0.20361005  0.14985179  1
  Al  Al2  1  0.76718463  0.09474474  0.92324481  1
  Al  Al3  1  0.44167639  0.09840486  0.37804897  1
  Al  Al4  1  0.54468757  0.21619531  0.14913006  1
  Al  Al5  1  0.12644013  0.08694590  0.84357291  1
  Al  Al6  1  0.89838515  0.20004828  0.07839742  1
  Al  Al7  1  0.43894316  0.09714186  0.92529037  1
  Al  Al8  1  0.11632063  0.43645810  0.31674898  1
  Al  Al9  1  0.23173396  0.53988324  0.08275971  1
  Al  Al10  1  0.77827243  0.41349492  0.89775825  1
  Al  Al11  1  0.88721567  0.55267320  0.67199781  1
  Al  Al12  1  0.44657901  0.42952129  0.39474960  1
  Al  Al13  1  0.56487861  0.52382994  0.15616681  1
  Al  Al14  1  0.13414172  0.41469991  0.83351098  1
  Al  Al15  1  0.21356235  0.54659414  0.56623753  1
  Al  Al16  1  0.78580273  0.44882117  0.41125800  1
  Al  Al17  1  0.46185741  0.40817798  0.91241356  1
  Al  Al18  1  0.54123223  0.53776342  0.65016591  1
  Al  Al19  1  0.11571300  0.74990406  0.33455305  1
  Al  Al20  1  0.21446111  0.87890828  0.09574838  1
  Al  Al21  1  0.77082129  0.78974865  0.83793581  1
  Al  Al22  1  0.89710190  0.85464087  0.56612747  1
  Al  Al23  1  0.43676892  0.75985852  0.32006685  1
  Al  Al24  1  0.55144602  0.88384372  0.14573659  1
  Al  Al25  1  0.21728098  0.86472582  0.57718078  1
  Al  Al26  1  0.78843134  0.75452054  0.31856323  1
  Al  Al27  1  0.89373364  0.87449105  0.09277985  1
  Gd  Gd28  1  0.85755694  0.21891898  0.64561642  1
  Gd  Gd29  1  0.17066023  0.21992928  0.56282184  1
  Gd  Gd30  1  0.78795793  0.10089511  0.36589437  1
  Gd  Gd31  1  0.52769606  0.19821181  0.66028614  1
  Gd  Gd32  1  0.89637143  0.54592861  0.08956045  1
  Gd  Gd33  1  0.11218104  0.76719898  0.81949988  1
  Gd  Gd34  1  0.46031971  0.74559867  0.87630326  1
  Gd  Gd35  1  0.57092820  0.82785672  0.57206922  1
  N  N36  1  0.22289094  0.20610132  0.33756339  1
  N  N37  1  0.10281002  0.09734843  0.15156733  1
  N  N38  1  0.89949332  0.19073344  0.89117324  1
  N  N39  1  0.76976412  0.07171927  0.58065027  1
  N  N40  1  0.52642046  0.22566610  0.32577001  1
  N  N41  1  0.44313785  0.09690559  0.10533244  1
  N  N42  1  0.22553645  0.20450572  0.87382760  1
  N  N43  1  0.11462539  0.05420041  0.66950251  1
  N  N44  1  0.92230367  0.22585930  0.42219285  1
  N  N45  1  0.77783711  0.10053282  0.11223696  1
  N  N46  1  0.55610821  0.19654904  0.87793191  1
  N  N47  1  0.42608595  0.08600779  0.55079383  1
  N  N48  1  0.21981963  0.53673544  0.38574427  1
  N  N49  1  0.14957676  0.41860201  0.14342544  1
  N  N50  1  0.88550939  0.53366734  0.85702789  1
  N  N51  1  0.74850353  0.49908919  0.58703773  1
  N  N52  1  0.56456870  0.53074472  0.33595554  1
  N  N53  1  0.45563480  0.42982963  0.09219324  1
  N  N54  1  0.23469363  0.52020136  0.90280678  1
  N  N55  1  0.11260657  0.45001823  0.65492519  1
  N  N56  1  0.89340498  0.53730029  0.33271029  1
  N  N57  1  0.76249894  0.41900979  0.07652760  1
  N  N58  1  0.58569329  0.47495851  0.82129766  1
  N  N59  1  0.44321192  0.43888170  0.57266293  1
  N  N60  1  0.22158018  0.87470154  0.38691858  1
  N  N61  1  0.11469978  0.75822223  0.14951830  1
  N  N62  1  0.87726619  0.87679171  0.91615802  1
  N  N63  1  0.80339157  0.76690854  0.66506295  1
  N  N64  1  0.55385170  0.86872334  0.34244978  1
  N  N65  1  0.44323381  0.76081088  0.13732376  1
  N  N66  1  0.20847842  0.89523646  0.92530241  1
  N  N67  1  0.11011777  0.75689613  0.60618501  1
  N  N68  1  0.90239185  0.83808994  0.38817924  1
  N  N69  1  0.76849145  0.79503211  0.14721820  1
  N  N70  1  0.56339773  0.89120856  0.87921965  1
  N  N71  1  0.41121029  0.75203989  0.65879506  1
