# generated using pymatgen
data_Gd2Al7N9
_symmetry_space_group_name_H-M   'P 1'
_cell_length_a   9.84849612
_cell_length_b   9.87223355
_cell_length_c   10.55655313
_cell_angle_alpha   89.09050997
_cell_angle_beta   89.73419941
_cell_angle_gamma   60.02848028
_symmetry_Int_Tables_number   1
_chemical_formula_structural   Gd2Al7N9
_chemical_formula_sum   'Gd8 Al28 N36'
_cell_volume   889.00626712
_cell_formula_units_Z   4
loop_
 _symmetry_equiv_pos_site_id
 _symmetry_equiv_pos_as_xyz
  1  'x, y, z'
loop_
 _atom_site_type_symbol
 _atom_site_label
 _atom_site_symmetry_multiplicity
 _atom_site_fract_x
 _atom_site_fract_y
 _atom_site_fract_z
 _atom_site_occupancy
  Al  Al0  1  0.11405538  0.09728806  0.28938308  1
  Al  Al1  1  0.22583265  0.20292422  0.05201622  1
  Al  Al2  1  0.77005809  0.10225928  0.86700760  1
  Al  Al3  1  0.43769490  0.09509491  0.28093864  1
  Al  Al4  1  0.54109026  0.21648404  0.04911229  1
  Al  Al5  1  0.11327764  0.09276892  0.81604922  1
  Al  Al6  1  0.89001885  0.20854818  0.04768746  1
  Al  Al7  1  0.44512429  0.09615133  0.81814843  1
  Al  Al8  1  0.11688232  0.42111526  0.29074941  1
  Al  Al9  1  0.22962526  0.53458875  0.05654406  1
  Al  Al10  1  0.76621647  0.43157770  0.81168800  1
  Al  Al11  1  0.89341825  0.54798382  0.64559280  1
  Al  Al12  1  0.43837489  0.42649862  0.29682119  1
  Al  Al13  1  0.55217545  0.52962145  0.05855159  1
  Al  Al14  1  0.12864166  0.42068595  0.81480670  1
  Al  Al15  1  0.22037323  0.54569646  0.54570009  1
  Al  Al16  1  0.78053791  0.42510891  0.29749085  1
  Al  Al17  1  0.44259055  0.43067533  0.81074197  1
  Al  Al18  1  0.54356837  0.55109072  0.54754900  1
  Al  Al19  1  0.11412762  0.74786152  0.30528459  1
  Al  Al20  1  0.21869351  0.87322603  0.06336190  1
  Al  Al21  1  0.77338876  0.78295395  0.81248850  1
  Al  Al22  1  0.90365445  0.85328241  0.53757583  1
  Al  Al23  1  0.44445243  0.75707672  0.29244007  1
  Al  Al24  1  0.55485170  0.88018163  0.05924972  1
  Al  Al25  1  0.22154149  0.86616695  0.53166946  1
  Al  Al26  1  0.78150845  0.75372644  0.28686012  1
  Al  Al27  1  0.89133505  0.87260238  0.05233222  1
  Gd  Gd28  1  0.88654107  0.21133136  0.57195627  1
  Gd  Gd29  1  0.21400512  0.20541430  0.55363307  1
  Gd  Gd30  1  0.78239012  0.08985149  0.29586760  1
  Gd  Gd31  1  0.54345296  0.21698716  0.56190799  1
  Gd  Gd32  1  0.88738756  0.53885976  0.06384979  1
  Gd  Gd33  1  0.10497097  0.76609965  0.78716715  1
  Gd  Gd34  1  0.44340251  0.76491819  0.80295728  1
  Gd  Gd35  1  0.57948366  0.85844099  0.53844472  1
  N  N36  1  0.22652242  0.19846637  0.33609540  1
  N  N37  1  0.10681887  0.09871757  0.10690092  1
  N  N38  1  0.88876497  0.21244138  0.85749908  1
  N  N39  1  0.79048275  0.06027807  0.58226909  1
  N  N40  1  0.52810389  0.21155621  0.34439976  1
  N  N41  1  0.44200226  0.09763693  0.09912121  1
  N  N42  1  0.22077804  0.20508539  0.86619159  1
  N  N43  1  0.12999436  0.05077765  0.63723145  1
  N  N44  1  0.90952092  0.21538602  0.35751278  1
  N  N45  1  0.77461262  0.10031445  0.06913848  1
  N  N46  1  0.54727663  0.21379256  0.86142427  1
  N  N47  1  0.44402621  0.08047635  0.64147240  1
  N  N48  1  0.22624645  0.52770971  0.36000496  1
  N  N49  1  0.14333708  0.41065854  0.11041558  1
  N  N50  1  0.89135392  0.53884101  0.83761610  1
  N  N51  1  0.74706025  0.47540083  0.63157098  1
  N  N52  1  0.55669574  0.53051361  0.35976571  1
  N  N53  1  0.44176509  0.42790622  0.11488941  1
  N  N54  1  0.23535352  0.52029430  0.87733710  1
  N  N55  1  0.11376021  0.44938067  0.63240370  1
  N  N56  1  0.89160278  0.53440639  0.30807809  1
  N  N57  1  0.76131802  0.40728445  0.11689907  1
  N  N58  1  0.56404604  0.51434477  0.87952507  1
  N  N59  1  0.42437771  0.46803204  0.62943676  1
  N  N60  1  0.21908613  0.87419656  0.34435461  1
  N  N61  1  0.10987192  0.75737180  0.11565600  1
  N  N62  1  0.87198035  0.88514206  0.87536798  1
  N  N63  1  0.81311312  0.75848930  0.63648092  1
  N  N64  1  0.55449012  0.87104652  0.32406359  1
  N  N65  1  0.44692486  0.75501893  0.10634600  1
  N  N66  1  0.20652786  0.89310288  0.88773224  1
  N  N67  1  0.11661501  0.75859549  0.57062040  1
  N  N68  1  0.89955233  0.83631282  0.35858641  1
  N  N69  1  0.76609182  0.79366601  0.11106603  1
  N  N70  1  0.56783850  0.88462992  0.87648652  1
  N  N71  1  0.42866014  0.76056106  0.58450839  1
