# generated using pymatgen
data_Gd2Al7N9
_symmetry_space_group_name_H-M   'P 1'
_cell_length_a   9.78450177
_cell_length_b   9.89804879
_cell_length_c   10.72186806
_cell_angle_alpha   89.42511048
_cell_angle_beta   89.43270762
_cell_angle_gamma   59.88696094
_symmetry_Int_Tables_number   1
_chemical_formula_structural   Gd2Al7N9
_chemical_formula_sum   'Gd8 Al28 N36'
_cell_volume   898.18303227
_cell_formula_units_Z   4
loop_
 _symmetry_equiv_pos_site_id
 _symmetry_equiv_pos_as_xyz
  1  'x, y, z'
loop_
 _atom_site_type_symbol
 _atom_site_label
 _atom_site_symmetry_multiplicity
 _atom_site_fract_x
 _atom_site_fract_y
 _atom_site_fract_z
 _atom_site_occupancy
  Al  Al0  1  0.11030385  0.09655525  0.32580317  1
  Al  Al1  1  0.22710136  0.20323152  0.13107317  1
  Al  Al2  1  0.76527098  0.09522776  0.92380980  1
  Al  Al3  1  0.43949432  0.10088035  0.37852041  1
  Al  Al4  1  0.54393322  0.21533577  0.14756647  1
  Al  Al5  1  0.12609477  0.08730140  0.84673692  1
  Al  Al6  1  0.89709043  0.19947418  0.07873737  1
  Al  Al7  1  0.44090656  0.09484596  0.92100474  1
  Al  Al8  1  0.11983652  0.43180617  0.31329461  1
  Al  Al9  1  0.23081918  0.54095971  0.08276230  1
  Al  Al10  1  0.77715756  0.41358048  0.89828932  1
  Al  Al11  1  0.88993267  0.54888454  0.67156843  1
  Al  Al12  1  0.44698612  0.42817659  0.39462299  1
  Al  Al13  1  0.56486633  0.52384159  0.15757210  1
  Al  Al14  1  0.13322513  0.41459459  0.83840050  1
  Al  Al15  1  0.21520545  0.54464933  0.56749605  1
  Al  Al16  1  0.78710083  0.44714897  0.41202517  1
  Al  Al17  1  0.46041908  0.41102643  0.91356084  1
  Al  Al18  1  0.54267228  0.53744132  0.65030435  1
  Al  Al19  1  0.11770083  0.74843801  0.33447083  1
  Al  Al20  1  0.21571139  0.87687846  0.09608049  1
  Al  Al21  1  0.77018009  0.79241722  0.83086772  1
  Al  Al22  1  0.90071463  0.85286614  0.56401151  1
  Al  Al23  1  0.43864632  0.75769556  0.32604922  1
  Al  Al24  1  0.54972994  0.88534922  0.16076681  1
  Al  Al25  1  0.21854443  0.86497850  0.57795266  1
  Al  Al26  1  0.79054480  0.75195341  0.32328002  1
  Al  Al27  1  0.89156279  0.87432158  0.09434429  1
  Gd  Gd28  1  0.85931859  0.21614330  0.64657365  1
  Gd  Gd29  1  0.16436799  0.22464974  0.55642097  1
  Gd  Gd30  1  0.78812405  0.10068301  0.36515707  1
  Gd  Gd31  1  0.52766156  0.20012881  0.66120925  1
  Gd  Gd32  1  0.89378895  0.54716510  0.09107878  1
  Gd  Gd33  1  0.11044484  0.76766375  0.81994629  1
  Gd  Gd34  1  0.46375322  0.74794093  0.87663153  1
  Gd  Gd35  1  0.56405249  0.84253946  0.59052453  1
  N  N36  1  0.22411339  0.20457842  0.33234797  1
  N  N37  1  0.10224704  0.09521684  0.14841724  1
  N  N38  1  0.89802038  0.18998931  0.89069390  1
  N  N39  1  0.77002689  0.06948010  0.58127086  1
  N  N40  1  0.52646916  0.22492698  0.32450764  1
  N  N41  1  0.44740447  0.09037450  0.10157197  1
  N  N42  1  0.21746774  0.20840757  0.89528224  1
  N  N43  1  0.11824678  0.05639404  0.67080796  1
  N  N44  1  0.92471384  0.22354051  0.42088209  1
  N  N45  1  0.77704663  0.10017882  0.11257565  1
  N  N46  1  0.55380891  0.19956697  0.88001654  1
  N  N47  1  0.41927649  0.09611082  0.55064745  1
  N  N48  1  0.22030047  0.53469820  0.38564975  1
  N  N49  1  0.14873945  0.41892096  0.13979622  1
  N  N50  1  0.88154550  0.53622927  0.85797068  1
  N  N51  1  0.75166644  0.49370936  0.58872417  1
  N  N52  1  0.56588279  0.52914896  0.33747958  1
  N  N53  1  0.45452094  0.43084035  0.09357838  1
  N  N54  1  0.23402940  0.52186987  0.90267837  1
  N  N55  1  0.11677266  0.44481628  0.65895345  1
  N  N56  1  0.89633524  0.53448257  0.33396017  1
  N  N57  1  0.76215417  0.41806498  0.07745833  1
  N  N58  1  0.58344786  0.47798917  0.82317172  1
  N  N59  1  0.44438735  0.43878785  0.57273809  1
  N  N60  1  0.22252248  0.87402508  0.38720911  1
  N  N61  1  0.11436214  0.75800274  0.14886817  1
  N  N62  1  0.87276032  0.87723098  0.91686976  1
  N  N63  1  0.81447917  0.75913562  0.66040913  1
  N  N64  1  0.55490223  0.86843946  0.34840453  1
  N  N65  1  0.44475675  0.76131602  0.13992391  1
  N  N66  1  0.21205566  0.89241635  0.92466596  1
  N  N67  1  0.11287738  0.75587477  0.60626941  1
  N  N68  1  0.90511838  0.83810183  0.38644119  1
  N  N69  1  0.76605388  0.79539944  0.14993762  1
  N  N70  1  0.55390675  0.90583794  0.83570745  1
  N  N71  1  0.41103770  0.75025214  0.66047644  1
