# generated using pymatgen
data_Gd2Al7N9
_symmetry_space_group_name_H-M   'P 1'
_cell_length_a   9.79373203
_cell_length_b   9.90959099
_cell_length_c   10.69486548
_cell_angle_alpha   89.44098558
_cell_angle_beta   89.19162576
_cell_angle_gamma   59.93210966
_symmetry_Int_Tables_number   1
_chemical_formula_structural   Gd2Al7N9
_chemical_formula_sum   'Gd8 Al28 N36'
_cell_volume   898.18763495
_cell_formula_units_Z   4
loop_
 _symmetry_equiv_pos_site_id
 _symmetry_equiv_pos_as_xyz
  1  'x, y, z'
loop_
 _atom_site_type_symbol
 _atom_site_label
 _atom_site_symmetry_multiplicity
 _atom_site_fract_x
 _atom_site_fract_y
 _atom_site_fract_z
 _atom_site_occupancy
  Al  Al0  1  0.10791364  0.09697607  0.33119137  1
  Al  Al1  1  0.23097714  0.20156237  0.14942318  1
  Al  Al2  1  0.76809944  0.09336533  0.92727251  1
  Al  Al3  1  0.44121793  0.10044282  0.38316874  1
  Al  Al4  1  0.54573804  0.21342302  0.14578048  1
  Al  Al5  1  0.12776974  0.08484263  0.84689442  1
  Al  Al6  1  0.89908753  0.20054647  0.08159496  1
  Al  Al7  1  0.43886261  0.09414970  0.92229228  1
  Al  Al8  1  0.11441197  0.43328135  0.32070208  1
  Al  Al9  1  0.23653885  0.54296645  0.12161131  1
  Al  Al10  1  0.77825285  0.41206572  0.89930314  1
  Al  Al11  1  0.88591616  0.54936763  0.66906808  1
  Al  Al12  1  0.44780329  0.42842591  0.39423610  1
  Al  Al13  1  0.56867973  0.52468210  0.15981423  1
  Al  Al14  1  0.13647544  0.41395735  0.82881758  1
  Al  Al15  1  0.21414696  0.54349175  0.56797039  1
  Al  Al16  1  0.78526525  0.44782082  0.41502539  1
  Al  Al17  1  0.45465826  0.41292319  0.91671948  1
  Al  Al18  1  0.53935774  0.53671218  0.65305929  1
  Al  Al19  1  0.11447734  0.75663682  0.34391162  1
  Al  Al20  1  0.21713591  0.87924152  0.09980762  1
  Al  Al21  1  0.77181621  0.79126450  0.83289101  1
  Al  Al22  1  0.89633169  0.85570182  0.56729020  1
  Al  Al23  1  0.43979009  0.75812960  0.32894935  1
  Al  Al24  1  0.55159524  0.88417378  0.16252660  1
  Al  Al25  1  0.21807552  0.86243634  0.58016080  1
  Al  Al26  1  0.78983993  0.75220416  0.32577438  1
  Al  Al27  1  0.89316706  0.87453670  0.09799165  1
  Gd  Gd28  1  0.85677332  0.21677457  0.65017318  1
  Gd  Gd29  1  0.16825247  0.21549528  0.56431065  1
  Gd  Gd30  1  0.78356133  0.10344162  0.36870122  1
  Gd  Gd31  1  0.52228977  0.20480657  0.66936766  1
  Gd  Gd32  1  0.90045429  0.54729211  0.08549628  1
  Gd  Gd33  1  0.11397957  0.76782708  0.82015883  1
  Gd  Gd34  1  0.46592058  0.74421963  0.88157738  1
  Gd  Gd35  1  0.56168912  0.84265600  0.59655610  1
  N  N36  1  0.22368359  0.20450408  0.33927172  1
  N  N37  1  0.10372635  0.09745211  0.15287620  1
  N  N38  1  0.90027434  0.18886620  0.89436039  1
  N  N39  1  0.76488304  0.07225880  0.58701033  1
  N  N40  1  0.52436811  0.22547128  0.32394294  1
  N  N41  1  0.44511620  0.08948462  0.10390518  1
  N  N42  1  0.22346481  0.20581132  0.87536237  1
  N  N43  1  0.11369011  0.04975482  0.67350499  1
  N  N44  1  0.92213057  0.22412911  0.42404834  1
  N  N45  1  0.77969034  0.10006555  0.11657416  1
  N  N46  1  0.55559360  0.19781362  0.89055163  1
  N  N47  1  0.42234201  0.09542011  0.55525097  1
  N  N48  1  0.22283299  0.53807707  0.37589550  1
  N  N49  1  0.15095828  0.41673347  0.14563705  1
  N  N50  1  0.88255061  0.53429278  0.85618820  1
  N  N51  1  0.74605740  0.49514321  0.59048476  1
  N  N52  1  0.56689381  0.52951382  0.33941912  1
  N  N53  1  0.45446786  0.43345576  0.09807756  1
  N  N54  1  0.23961794  0.51871677  0.88326395  1
  N  N55  1  0.10952297  0.44571531  0.64854720  1
  N  N56  1  0.89429636  0.53621655  0.33887720  1
  N  N57  1  0.76544264  0.41996279  0.07935067  1
  N  N58  1  0.58500528  0.47332887  0.82521468  1
  N  N59  1  0.44125971  0.43902115  0.57194772  1
  N  N60  1  0.22359779  0.87635226  0.39141382  1
  N  N61  1  0.11361539  0.76419609  0.15704160  1
  N  N62  1  0.87528940  0.87498568  0.91991704  1
  N  N63  1  0.81209861  0.75931073  0.66163154  1
  N  N64  1  0.55472928  0.86935487  0.35096990  1
  N  N65  1  0.44601177  0.76116608  0.14280004  1
  N  N66  1  0.21459531  0.89277539  0.92873011  1
  N  N67  1  0.11059724  0.75462533  0.60256192  1
  N  N68  1  0.90083805  0.84205725  0.38938754  1
  N  N69  1  0.76821762  0.79357729  0.15183588  1
  N  N70  1  0.55561094  0.90253762  0.83963446  1
  N  N71  1  0.40763073  0.74902859  0.66563083  1
