# generated using pymatgen
data_Gd2Al7N9
_symmetry_space_group_name_H-M   'P 1'
_cell_length_a   9.80402402
_cell_length_b   9.86674324
_cell_length_c   10.74119597
_cell_angle_alpha   89.49522920
_cell_angle_beta   89.32694422
_cell_angle_gamma   60.13583436
_symmetry_Int_Tables_number   1
_chemical_formula_structural   Gd2Al7N9
_chemical_formula_sum   'Gd8 Al28 N36'
_cell_volume   900.99376819
_cell_formula_units_Z   4
loop_
 _symmetry_equiv_pos_site_id
 _symmetry_equiv_pos_as_xyz
  1  'x, y, z'
loop_
 _atom_site_type_symbol
 _atom_site_label
 _atom_site_symmetry_multiplicity
 _atom_site_fract_x
 _atom_site_fract_y
 _atom_site_fract_z
 _atom_site_occupancy
  Al  Al0  1  0.10860202  0.10427942  0.30881082  1
  Al  Al1  1  0.21751341  0.20775266  0.07284605  1
  Al  Al2  1  0.77026083  0.09364990  0.90574807  1
  Al  Al3  1  0.43615912  0.09649167  0.29274863  1
  Al  Al4  1  0.54697063  0.22101467  0.12388936  1
  Al  Al5  1  0.11851099  0.08578971  0.82838013  1
  Al  Al6  1  0.89475491  0.20290842  0.06215542  1
  Al  Al7  1  0.44365497  0.09472938  0.89127201  1
  Al  Al8  1  0.11953378  0.42508811  0.29785891  1
  Al  Al9  1  0.22795819  0.54025347  0.06653661  1
  Al  Al10  1  0.77299291  0.41596124  0.87860450  1
  Al  Al11  1  0.88906127  0.55088908  0.65330456  1
  Al  Al12  1  0.44404866  0.43201975  0.37107915  1
  Al  Al13  1  0.55966361  0.53058796  0.13648750  1
  Al  Al14  1  0.12850037  0.41690624  0.82115906  1
  Al  Al15  1  0.21554200  0.54468717  0.54580939  1
  Al  Al16  1  0.78304302  0.45051607  0.38794034  1
  Al  Al17  1  0.45742291  0.41373175  0.89560735  1
  Al  Al18  1  0.54521169  0.53975735  0.62277165  1
  Al  Al19  1  0.11430473  0.74889300  0.31653655  1
  Al  Al20  1  0.21478949  0.87729101  0.07710271  1
  Al  Al21  1  0.77352469  0.78168294  0.82695630  1
  Al  Al22  1  0.90056001  0.85162794  0.54768467  1
  Al  Al23  1  0.43777012  0.76795454  0.30026574  1
  Al  Al24  1  0.55782384  0.87588916  0.07771450  1
  Al  Al25  1  0.22029695  0.86391008  0.55488033  1
  Al  Al26  1  0.77968419  0.75834044  0.29969619  1
  Al  Al27  1  0.89310239  0.87323427  0.07578548  1
  Gd  Gd28  1  0.87214069  0.21717420  0.61181166  1
  Gd  Gd29  1  0.20369078  0.20724942  0.55530283  1
  Gd  Gd30  1  0.78435006  0.09702961  0.34458518  1
  Gd  Gd31  1  0.54687386  0.20962650  0.64766856  1
  Gd  Gd32  1  0.89192711  0.54379086  0.08186645  1
  Gd  Gd33  1  0.10516256  0.76414505  0.79925094  1
  Gd  Gd34  1  0.45050763  0.75133171  0.84073995  1
  Gd  Gd35  1  0.57455434  0.84243372  0.55298955  1
  N  N36  1  0.22545278  0.20457541  0.34009267  1
  N  N37  1  0.10256523  0.10092645  0.12809205  1
  N  N38  1  0.89620750  0.19287758  0.87196883  1
  N  N39  1  0.77953363  0.06751701  0.55995969  1
  N  N40  1  0.52478499  0.22809908  0.30098839  1
  N  N41  1  0.43967054  0.09705814  0.09981066  1
  N  N42  1  0.21617279  0.20567817  0.88736135  1
  N  N43  1  0.12154882  0.05316922  0.65300901  1
  N  N44  1  0.91366189  0.22738667  0.39212435  1
  N  N45  1  0.77810360  0.10022876  0.09325708  1
  N  N46  1  0.55688228  0.19800410  0.86661602  1
  N  N47  1  0.43490161  0.07640509  0.62519053  1
  N  N48  1  0.21766748  0.53441662  0.36469747  1
  N  N49  1  0.14862120  0.41332191  0.12243630  1
  N  N50  1  0.88482529  0.53249914  0.84106710  1
  N  N51  1  0.75267012  0.49688392  0.56656512  1
  N  N52  1  0.56147082  0.53642387  0.31534816  1
  N  N53  1  0.45102449  0.43519631  0.07325937  1
  N  N54  1  0.23263954  0.51944129  0.88595290  1
  N  N55  1  0.11420965  0.44867672  0.64267954  1
  N  N56  1  0.89196431  0.53738675  0.30912661  1
  N  N57  1  0.75619952  0.41999765  0.05670295  1
  N  N58  1  0.57856175  0.48068173  0.80055635  1
  N  N59  1  0.44122936  0.44513912  0.54790666  1
  N  N60  1  0.21933369  0.87768161  0.36518556  1
  N  N61  1  0.11246275  0.75845491  0.13116827  1
  N  N62  1  0.87545271  0.87684757  0.89938118  1
  N  N63  1  0.80825658  0.76552737  0.65410894  1
  N  N64  1  0.55102475  0.87574874  0.33714001  1
  N  N65  1  0.44196543  0.76389174  0.11652788  1
  N  N66  1  0.20549640  0.89086815  0.90492140  1
  N  N67  1  0.11337346  0.75536584  0.58604841  1
  N  N68  1  0.90193926  0.83330659  0.37022154  1
  N  N69  1  0.76417592  0.79705053  0.12867542  1
  N  N70  1  0.57193893  0.87847279  0.89740369  1
  N  N71  1  0.41766662  0.75411030  0.62992326  1
