# generated using pymatgen
data_Gd2Al7N9
_symmetry_space_group_name_H-M   'P 1'
_cell_length_a   9.79215985
_cell_length_b   9.88706456
_cell_length_c   10.73188317
_cell_angle_alpha   89.48254127
_cell_angle_beta   89.58846403
_cell_angle_gamma   59.94056201
_symmetry_Int_Tables_number   1
_chemical_formula_structural   Gd2Al7N9
_chemical_formula_sum   'Gd8 Al28 N36'
_cell_volume   899.23301637
_cell_formula_units_Z   4
loop_
 _symmetry_equiv_pos_site_id
 _symmetry_equiv_pos_as_xyz
  1  'x, y, z'
loop_
 _atom_site_type_symbol
 _atom_site_label
 _atom_site_symmetry_multiplicity
 _atom_site_fract_x
 _atom_site_fract_y
 _atom_site_fract_z
 _atom_site_occupancy
  Al  Al0  1  0.11150846  0.10198324  0.32394445  1
  Al  Al1  1  0.22104714  0.20633236  0.09548416  1
  Al  Al2  1  0.76561835  0.09555402  0.92365461  1
  Al  Al3  1  0.43806156  0.10221254  0.38116689  1
  Al  Al4  1  0.54157032  0.21542450  0.14855908  1
  Al  Al5  1  0.12356534  0.08572522  0.84835093  1
  Al  Al6  1  0.89462974  0.20115970  0.07960424  1
  Al  Al7  1  0.44859968  0.09037803  0.91891985  1
  Al  Al8  1  0.12219014  0.42529182  0.31165525  1
  Al  Al9  1  0.22907988  0.54074648  0.08325482  1
  Al  Al10  1  0.77624988  0.41421694  0.89821077  1
  Al  Al11  1  0.89199749  0.54774659  0.67182482  1
  Al  Al12  1  0.44665616  0.42824180  0.39366925  1
  Al  Al13  1  0.56248137  0.52510251  0.15777168  1
  Al  Al14  1  0.13126249  0.41631791  0.84104648  1
  Al  Al15  1  0.21659795  0.54309582  0.56668483  1
  Al  Al16  1  0.78698843  0.44784489  0.41098627  1
  Al  Al17  1  0.45973065  0.41146219  0.91394289  1
  Al  Al18  1  0.54339332  0.53758676  0.64954438  1
  Al  Al19  1  0.11757241  0.74760326  0.33468075  1
  Al  Al20  1  0.21456913  0.87712474  0.09689318  1
  Al  Al21  1  0.77205103  0.79023957  0.83128356  1
  Al  Al22  1  0.90294603  0.85170012  0.56346426  1
  Al  Al23  1  0.43710866  0.75887333  0.32656170  1
  Al  Al24  1  0.54622484  0.88831790  0.16207763  1
  Al  Al25  1  0.21967617  0.86431018  0.57739806  1
  Al  Al26  1  0.78936947  0.75288934  0.32334999  1
  Al  Al27  1  0.89021635  0.87492357  0.09453522  1
  Gd  Gd28  1  0.86285007  0.21625620  0.64310689  1
  Gd  Gd29  1  0.17016166  0.22165476  0.56073615  1
  Gd  Gd30  1  0.78930526  0.09966417  0.36386235  1
  Gd  Gd31  1  0.53360329  0.20029004  0.65990290  1
  Gd  Gd32  1  0.88925454  0.54925837  0.09556527  1
  Gd  Gd33  1  0.10908814  0.76718970  0.81900703  1
  Gd  Gd34  1  0.46231442  0.74812148  0.87566548  1
  Gd  Gd35  1  0.56756743  0.84039693  0.59088677  1
  N  N36  1  0.22244009  0.20714691  0.34618574  1
  N  N37  1  0.10221666  0.09865025  0.14579630  1
  N  N38  1  0.89741971  0.19074157  0.89109430  1
  N  N39  1  0.77450923  0.06823844  0.58045592  1
  N  N40  1  0.52694148  0.22397383  0.32507022  1
  N  N41  1  0.44566946  0.09138837  0.09877879  1
  N  N42  1  0.21638150  0.20758854  0.90453815  1
  N  N43  1  0.11995993  0.05426243  0.67329299  1
  N  N44  1  0.92312864  0.22451129  0.41924441  1
  N  N45  1  0.77570300  0.10104098  0.11247414  1
  N  N46  1  0.55448709  0.19990647  0.87837367  1
  N  N47  1  0.42494489  0.09401818  0.55470078  1
  N  N48  1  0.22006140  0.53312115  0.38436184  1
  N  N49  1  0.14700328  0.41632314  0.13693153  1
  N  N50  1  0.88283433  0.53503145  0.85871351  1
  N  N51  1  0.75198047  0.49524775  0.58818752  1
  N  N52  1  0.56491722  0.53005968  0.33724936  1
  N  N53  1  0.45285104  0.43078523  0.09401373  1
  N  N54  1  0.23376213  0.52191407  0.90337784  1
  N  N55  1  0.11898466  0.44369833  0.66200736  1
  N  N56  1  0.89565715  0.53473952  0.33099597  1
  N  N57  1  0.75886968  0.41948141  0.07682796  1
  N  N58  1  0.58246011  0.47865332  0.82296966  1
  N  N59  1  0.44503091  0.43934220  0.57141880  1
  N  N60  1  0.22121260  0.87561306  0.38641408  1
  N  N61  1  0.11280123  0.75820572  0.14922041  1
  N  N62  1  0.87239631  0.87744615  0.91726028  1
  N  N63  1  0.81814584  0.75790530  0.66142227  1
  N  N64  1  0.55362025  0.86964999  0.34916872  1
  N  N65  1  0.44292551  0.76250550  0.14044854  1
  N  N66  1  0.21118686  0.89109365  0.92531754  1
  N  N67  1  0.11498957  0.75426041  0.60540002  1
  N  N68  1  0.90544952  0.83702785  0.38670586  1
  N  N69  1  0.76254196  0.79885583  0.15045824  1
  N  N70  1  0.55590110  0.90325967  0.83392104  1
  N  N71  1  0.41221076  0.75037487  0.65975749  1
