# generated using pymatgen
data_Gd2Al7N9
_symmetry_space_group_name_H-M   'P 1'
_cell_length_a   9.82892302
_cell_length_b   9.97288737
_cell_length_c   10.60031569
_cell_angle_alpha   89.27439738
_cell_angle_beta   89.40411329
_cell_angle_gamma   59.75447651
_symmetry_Int_Tables_number   1
_chemical_formula_structural   Gd2Al7N9
_chemical_formula_sum   'Gd8 Al28 N36'
_cell_volume   897.54648601
_cell_formula_units_Z   4
loop_
 _symmetry_equiv_pos_site_id
 _symmetry_equiv_pos_as_xyz
  1  'x, y, z'
loop_
 _atom_site_type_symbol
 _atom_site_label
 _atom_site_symmetry_multiplicity
 _atom_site_fract_x
 _atom_site_fract_y
 _atom_site_fract_z
 _atom_site_occupancy
  Al  Al0  1  0.11209256  0.11000700  0.31035494  1
  Al  Al1  1  0.22917470  0.20523967  0.06346387  1
  Al  Al2  1  0.75854396  0.10012538  0.89535154  1
  Al  Al3  1  0.43917740  0.08959198  0.29903255  1
  Al  Al4  1  0.54836308  0.21444529  0.13149414  1
  Al  Al5  1  0.11552978  0.08628066  0.83023090  1
  Al  Al6  1  0.89386575  0.20228853  0.05955968  1
  Al  Al7  1  0.44301173  0.09027110  0.81886859  1
  Al  Al8  1  0.12260188  0.42348278  0.30072066  1
  Al  Al9  1  0.23962734  0.53130711  0.06388206  1
  Al  Al10  1  0.77472743  0.41833254  0.88244018  1
  Al  Al11  1  0.88808075  0.55239605  0.65478559  1
  Al  Al12  1  0.43849927  0.43565304  0.31590012  1
  Al  Al13  1  0.56330111  0.53360958  0.13907019  1
  Al  Al14  1  0.12802010  0.41906245  0.82332640  1
  Al  Al15  1  0.21765205  0.54332104  0.55244816  1
  Al  Al16  1  0.78454109  0.45347108  0.39227603  1
  Al  Al17  1  0.44866809  0.40827027  0.80505891  1
  Al  Al18  1  0.54389186  0.54571637  0.63096980  1
  Al  Al19  1  0.11788061  0.74572887  0.31583786  1
  Al  Al20  1  0.21281677  0.88028058  0.08123626  1
  Al  Al21  1  0.77365847  0.78530873  0.82624927  1
  Al  Al22  1  0.90113527  0.84857733  0.54487956  1
  Al  Al23  1  0.43980896  0.77038925  0.30208149  1
  Al  Al24  1  0.55689896  0.88901283  0.06890120  1
  Al  Al25  1  0.21393643  0.86579665  0.55583734  1
  Al  Al26  1  0.77965032  0.76028299  0.30102295  1
  Al  Al27  1  0.89258551  0.87380771  0.07249680  1
  Gd  Gd28  1  0.85824428  0.21981386  0.62169787  1
  Gd  Gd29  1  0.19016502  0.20744093  0.56533033  1
  Gd  Gd30  1  0.80844057  0.09030901  0.33533502  1
  Gd  Gd31  1  0.53602370  0.19599216  0.56681978  1
  Gd  Gd32  1  0.89259524  0.54343074  0.08554507  1
  Gd  Gd33  1  0.10869813  0.76589205  0.80053058  1
  Gd  Gd34  1  0.45152527  0.74823423  0.85646393  1
  Gd  Gd35  1  0.56923461  0.83325111  0.56284899  1
  N  N36  1  0.22987814  0.20573099  0.35179328  1
  N  N37  1  0.10374621  0.10429036  0.12819327  1
  N  N38  1  0.89276192  0.19622841  0.87210262  1
  N  N39  1  0.78921482  0.06254162  0.55165141  1
  N  N40  1  0.53880014  0.21239492  0.32731648  1
  N  N41  1  0.44207616  0.09790929  0.11793327  1
  N  N42  1  0.21901716  0.20419469  0.87871976  1
  N  N43  1  0.10975811  0.05246366  0.65469024  1
  N  N44  1  0.91819458  0.23241501  0.39739193  1
  N  N45  1  0.77315646  0.10276492  0.09084803  1
  N  N46  1  0.55791218  0.19545797  0.82886178  1
  N  N47  1  0.42612723  0.06809660  0.64422304  1
  N  N48  1  0.22615667  0.53045404  0.36938447  1
  N  N49  1  0.15165015  0.41050760  0.12073402  1
  N  N50  1  0.88637966  0.53523805  0.84512315  1
  N  N51  1  0.74855038  0.50200247  0.57029197  1
  N  N52  1  0.56242992  0.54191118  0.32312768  1
  N  N53  1  0.44444343  0.43449216  0.12947364  1
  N  N54  1  0.24334551  0.51463746  0.88340971  1
  N  N55  1  0.11095675  0.44882523  0.64207697  1
  N  N56  1  0.89477873  0.53962971  0.31346840  1
  N  N57  1  0.75818185  0.41892719  0.06173919  1
  N  N58  1  0.58465971  0.48894251  0.80678408  1
  N  N59  1  0.42696207  0.44626004  0.61264109  1
  N  N60  1  0.21868517  0.88073399  0.36421209  1
  N  N61  1  0.11437633  0.75693077  0.12916252  1
  N  N62  1  0.87415341  0.88224903  0.89510806  1
  N  N63  1  0.80688891  0.76526051  0.65115434  1
  N  N64  1  0.55341129  0.87299233  0.34757469  1
  N  N65  1  0.44559794  0.76610038  0.11469752  1
  N  N66  1  0.20214161  0.89472850  0.90785185  1
  N  N67  1  0.11216885  0.75421455  0.58481444  1
  N  N68  1  0.90645442  0.83124824  0.36592579  1
  N  N69  1  0.76327766  0.79832544  0.12625498  1
  N  N70  1  0.56732934  0.88702514  0.88854356  1
  N  N71  1  0.40765136  0.75635177  0.63838896  1
