# generated using pymatgen
data_Gd2Al7N9
_symmetry_space_group_name_H-M   'P 1'
_cell_length_a   9.83137705
_cell_length_b   9.91044717
_cell_length_c   10.63429131
_cell_angle_alpha   89.13346000
_cell_angle_beta   89.59289334
_cell_angle_gamma   59.99988269
_symmetry_Int_Tables_number   1
_chemical_formula_structural   Gd2Al7N9
_chemical_formula_sum   'Gd8 Al28 N36'
_cell_volume   897.21503625
_cell_formula_units_Z   4
loop_
 _symmetry_equiv_pos_site_id
 _symmetry_equiv_pos_as_xyz
  1  'x, y, z'
loop_
 _atom_site_type_symbol
 _atom_site_label
 _atom_site_symmetry_multiplicity
 _atom_site_fract_x
 _atom_site_fract_y
 _atom_site_fract_z
 _atom_site_occupancy
  Al  Al0  1  0.11315552  0.10650512  0.30653284  1
  Al  Al1  1  0.22755951  0.20409624  0.06000767  1
  Al  Al2  1  0.77031048  0.09622188  0.89002153  1
  Al  Al3  1  0.44179987  0.09416346  0.28867751  1
  Al  Al4  1  0.54287980  0.21656676  0.06523301  1
  Al  Al5  1  0.11586725  0.08725738  0.82473121  1
  Al  Al6  1  0.89785355  0.20054939  0.05488260  1
  Al  Al7  1  0.44436827  0.09442379  0.82294872  1
  Al  Al8  1  0.12357974  0.42102856  0.29866796  1
  Al  Al9  1  0.23511032  0.53416882  0.05948259  1
  Al  Al10  1  0.77461857  0.42014633  0.87824179  1
  Al  Al11  1  0.88544082  0.55071951  0.64817591  1
  Al  Al12  1  0.43827043  0.42783334  0.29837444  1
  Al  Al13  1  0.56415395  0.53160195  0.13007639  1
  Al  Al14  1  0.12387458  0.42077652  0.81838919  1
  Al  Al15  1  0.21618310  0.54280103  0.55066737  1
  Al  Al16  1  0.78180977  0.45172014  0.38516114  1
  Al  Al17  1  0.44363935  0.41368657  0.80963989  1
  Al  Al18  1  0.54340730  0.54493669  0.63226300  1
  Al  Al19  1  0.11864913  0.74600550  0.31423035  1
  Al  Al20  1  0.21413222  0.87848118  0.07659864  1
  Al  Al21  1  0.77546265  0.78161492  0.82056563  1
  Al  Al22  1  0.89867872  0.85175390  0.53967758  1
  Al  Al23  1  0.44270522  0.76715313  0.29651583  1
  Al  Al24  1  0.55843165  0.88641565  0.06506157  1
  Al  Al25  1  0.21725016  0.86337470  0.54875032  1
  Al  Al26  1  0.78018219  0.76014305  0.29689665  1
  Al  Al27  1  0.89519276  0.87173909  0.06680587  1
  Gd  Gd28  1  0.86539062  0.21635654  0.60899103  1
  Gd  Gd29  1  0.19940209  0.20361262  0.56308865  1
  Gd  Gd30  1  0.79636029  0.09510542  0.32097796  1
  Gd  Gd31  1  0.52892944  0.20869316  0.54965875  1
  Gd  Gd32  1  0.89410975  0.54210716  0.08330405  1
  Gd  Gd33  1  0.10876532  0.76630416  0.79318444  1
  Gd  Gd34  1  0.44822743  0.75514986  0.84937397  1
  Gd  Gd35  1  0.56859772  0.84126647  0.55798096  1
  N  N36  1  0.23235989  0.20173494  0.34834975  1
  N  N37  1  0.10599547  0.10228521  0.12395197  1
  N  N38  1  0.89442044  0.19788552  0.86429384  1
  N  N39  1  0.78083608  0.06586952  0.55245488  1
  N  N40  1  0.53436355  0.21377014  0.33448346  1
  N  N41  1  0.44186679  0.09762243  0.10922563  1
  N  N42  1  0.21823341  0.20509747  0.87499112  1
  N  N43  1  0.11587345  0.04970114  0.64912231  1
  N  N44  1  0.91612868  0.22870606  0.38824023  1
  N  N45  1  0.77912358  0.09931921  0.08292377  1
  N  N46  1  0.54882261  0.20691084  0.87612462  1
  N  N47  1  0.43536038  0.07621059  0.64809258  1
  N  N48  1  0.23009430  0.52755166  0.36665054  1
  N  N49  1  0.15198540  0.40914874  0.11903741  1
  N  N50  1  0.88548815  0.53612110  0.84017000  1
  N  N51  1  0.74585870  0.49810329  0.56494310  1
  N  N52  1  0.56276268  0.53700846  0.31323632  1
  N  N53  1  0.44499759  0.43088287  0.11593260  1
  N  N54  1  0.23564294  0.51841608  0.88062839  1
  N  N55  1  0.10708325  0.44799852  0.63708152  1
  N  N56  1  0.89532944  0.53824743  0.31047726  1
  N  N57  1  0.76093997  0.41649290  0.05694253  1
  N  N58  1  0.58091164  0.49494549  0.80906409  1
  N  N59  1  0.41898213  0.44826028  0.62799160  1
  N  N60  1  0.22243864  0.87725374  0.35912860  1
  N  N61  1  0.11521490  0.75533341  0.12636635  1
  N  N62  1  0.87650988  0.87952097  0.88837231  1
  N  N63  1  0.80712546  0.76351024  0.64526774  1
  N  N64  1  0.55476580  0.87305231  0.34141143  1
  N  N65  1  0.44657210  0.76499937  0.10853606  1
  N  N66  1  0.19985020  0.89555950  0.90368593  1
  N  N67  1  0.11094248  0.75534900  0.57779578  1
  N  N68  1  0.90542307  0.83450955  0.36147803  1
  N  N69  1  0.76480149  0.79763053  0.12204881  1
  N  N70  1  0.57075651  0.88700925  0.88488700  1
  N  N71  1  0.41086924  0.75709512  0.63067596  1
