# generated using pymatgen
data_Gd2Al7N9
_symmetry_space_group_name_H-M   'P 1'
_cell_length_a   9.84546573
_cell_length_b   9.86769604
_cell_length_c   10.50728644
_cell_angle_alpha   89.50296825
_cell_angle_beta   89.70861842
_cell_angle_gamma   59.94796360
_symmetry_Int_Tables_number   1
_chemical_formula_structural   Gd2Al7N9
_chemical_formula_sum   'Gd8 Al28 N36'
_cell_volume   883.54519309
_cell_formula_units_Z   4
loop_
 _symmetry_equiv_pos_site_id
 _symmetry_equiv_pos_as_xyz
  1  'x, y, z'
loop_
 _atom_site_type_symbol
 _atom_site_label
 _atom_site_symmetry_multiplicity
 _atom_site_fract_x
 _atom_site_fract_y
 _atom_site_fract_z
 _atom_site_occupancy
  Al  Al0  1  0.11226144  0.09910010  0.28783632  1
  Al  Al1  1  0.22472242  0.20481809  0.05158703  1
  Al  Al2  1  0.77566446  0.08938521  0.81627383  1
  Al  Al3  1  0.43747147  0.09769013  0.27905427  1
  Al  Al4  1  0.55099568  0.21110079  0.04108193  1
  Al  Al5  1  0.11438737  0.09322942  0.81477146  1
  Al  Al6  1  0.88614995  0.20598184  0.03982324  1
  Al  Al7  1  0.44526809  0.09610139  0.81807182  1
  Al  Al8  1  0.11488389  0.42437400  0.29328774  1
  Al  Al9  1  0.22978658  0.53282449  0.05670815  1
  Al  Al10  1  0.77028055  0.43178112  0.80734016  1
  Al  Al11  1  0.89241985  0.54734142  0.61494223  1
  Al  Al12  1  0.43764665  0.42730323  0.29552723  1
  Al  Al13  1  0.55440374  0.52719899  0.05804086  1
  Al  Al14  1  0.12184690  0.42325199  0.80991365  1
  Al  Al15  1  0.22000924  0.54739884  0.54340127  1
  Al  Al16  1  0.77988451  0.42642520  0.30075464  1
  Al  Al17  1  0.44424631  0.42736106  0.81045564  1
  Al  Al18  1  0.54266323  0.54966688  0.54553214  1
  Al  Al19  1  0.11113709  0.75272343  0.30506938  1
  Al  Al20  1  0.21711038  0.87476941  0.06312451  1
  Al  Al21  1  0.77778014  0.77220916  0.80895977  1
  Al  Al22  1  0.90072177  0.85873529  0.54617505  1
  Al  Al23  1  0.44336382  0.75844993  0.29020085  1
  Al  Al24  1  0.55641898  0.88042672  0.05828864  1
  Al  Al25  1  0.22192573  0.86620307  0.53240347  1
  Al  Al26  1  0.78012736  0.75821042  0.29166669  1
  Al  Al27  1  0.88766973  0.87654074  0.04870580  1
  Gd  Gd28  1  0.89018527  0.20803792  0.57442009  1
  Gd  Gd29  1  0.21645704  0.20595954  0.55000574  1
  Gd  Gd30  1  0.77973806  0.09518378  0.28872752  1
  Gd  Gd31  1  0.55042083  0.21372317  0.56548667  1
  Gd  Gd32  1  0.88602292  0.53957434  0.06237705  1
  Gd  Gd33  1  0.10989980  0.76110520  0.79062726  1
  Gd  Gd34  1  0.44516891  0.76192639  0.80666886  1
  Gd  Gd35  1  0.57199012  0.86049601  0.53881284  1
  N  N36  1  0.22523077  0.20064319  0.33308772  1
  N  N37  1  0.10468936  0.10025887  0.10502365  1
  N  N38  1  0.88872247  0.21065906  0.85017901  1
  N  N39  1  0.79568857  0.05708320  0.62993799  1
  N  N40  1  0.52757332  0.21326890  0.34831206  1
  N  N41  1  0.44314292  0.09926863  0.09605015  1
  N  N42  1  0.21955689  0.20710807  0.86438237  1
  N  N43  1  0.13360746  0.05283124  0.63476764  1
  N  N44  1  0.90807255  0.21559498  0.36055716  1
  N  N45  1  0.77601520  0.09822552  0.07523065  1
  N  N46  1  0.55287672  0.20968291  0.85480962  1
  N  N47  1  0.44380301  0.08478584  0.63999777  1
  N  N48  1  0.22424700  0.53213564  0.35813466  1
  N  N49  1  0.13951068  0.41338118  0.11289851  1
  N  N50  1  0.89025290  0.53873685  0.83844797  1
  N  N51  1  0.74919855  0.47197497  0.62487420  1
  N  N52  1  0.55454984  0.53278134  0.35817176  1
  N  N53  1  0.44375140  0.42501741  0.11250293  1
  N  N54  1  0.23615648  0.51522891  0.87639238  1
  N  N55  1  0.11133562  0.45145319  0.62604107  1
  N  N56  1  0.88919617  0.53839156  0.32589105  1
  N  N57  1  0.76355545  0.40600938  0.11850390  1
  N  N58  1  0.56761682  0.51070386  0.87764071  1
  N  N59  1  0.42373910  0.46542225  0.62708422  1
  N  N60  1  0.21866539  0.87593778  0.34435755  1
  N  N61  1  0.10846267  0.75870666  0.11466534  1
  N  N62  1  0.87305173  0.87898867  0.87251477  1
  N  N63  1  0.80844189  0.75704678  0.62988057  1
  N  N64  1  0.55121153  0.87429656  0.32438323  1
  N  N65  1  0.44732865  0.75505455  0.10402624  1
  N  N66  1  0.20643833  0.89429126  0.88696613  1
  N  N67  1  0.11523265  0.76084542  0.57275559  1
  N  N68  1  0.89434170  0.84757051  0.36518589  1
  N  N69  1  0.76707599  0.79341031  0.11461984  1
  N  N70  1  0.57016800  0.88303673  0.87411067  1
  N  N71  1  0.42748093  0.75757374  0.58798563  1
