
#======================================================================
# CRYSTAL DATA
#----------------------------------------------------------------------
data_VESTA_phase_1

_chemical_name_common                  'Al   Hf   Mg   N                      '
_cell_length_a                         9.686693
_cell_length_b                         9.678108
_cell_length_c                         10.123503
_cell_angle_alpha                      89.957039
_cell_angle_beta                       89.986191
_cell_angle_gamma                      59.877026
_cell_volume                           820.895409
_space_group_name_H-M_alt              'P 1'
_space_group_IT_number                 1

loop_
_space_group_symop_operation_xyz
   'x, y, z'

loop_
   _atom_site_label
   _atom_site_occupancy
   _atom_site_fract_x
   _atom_site_fract_y
   _atom_site_fract_z
   _atom_site_adp_type
   _atom_site_U_iso_or_equiv
   _atom_site_type_symbol
   Al1        1.0     0.119613     0.086981     0.406747    Uiso  ? Al
   Al2        1.0     0.781000     0.089112     0.902657    Uiso  ? Al
   Al3        1.0     0.445572     0.092480     0.416166    Uiso  ? Al
   Al4        1.0     0.231382     0.204316     0.664801    Uiso  ? Al
   Al5        1.0     0.776282     0.087642     0.407567    Uiso  ? Al
   Al6        1.0     0.890597     0.202400     0.166160    Uiso  ? Al
   Al7        1.0     0.449380     0.086011     0.898007    Uiso  ? Al
   Al8        1.0     0.548422     0.208162     0.662673    Uiso  ? Al
   Al9        1.0     0.116174     0.428223     0.407509    Uiso  ? Al
   Al10       1.0     0.217515     0.551339     0.160099    Uiso  ? Al
   Al11       1.0     0.442980     0.431233     0.412410    Uiso  ? Al
   Al12       1.0     0.553035     0.545302     0.158261    Uiso  ? Al
   Al13       1.0     0.115026     0.435574     0.904561    Uiso  ? Al
   Al14       1.0     0.226901     0.540132     0.658322    Uiso  ? Al
   Al15       1.0     0.771007     0.431527     0.394207    Uiso  ? Al
   Al16       1.0     0.885320     0.544315     0.161446    Uiso  ? Al
   Al17       1.0     0.439391     0.437316     0.899726    Uiso  ? Al
   Al18       1.0     0.542487     0.545893     0.659556    Uiso  ? Al
   Al19       1.0     0.110724     0.762433     0.408172    Uiso  ? Al
   Al20       1.0     0.222529     0.864801     0.160083    Uiso  ? Al
   Al21       1.0     0.775061     0.766743     0.912272    Uiso  ? Al
   Al22       1.0     0.887284     0.870794     0.660495    Uiso  ? Al
   Al23       1.0     0.442975     0.759007     0.407740    Uiso  ? Al
   Al24       1.0     0.559760     0.861019     0.157212    Uiso  ? Al
   Al25       1.0     0.232458     0.862717     0.659599    Uiso  ? Al
   Al26       1.0     0.776476     0.766412     0.402333    Uiso  ? Al
   Al27       1.0     0.897493     0.865456     0.158394    Uiso  ? Al
   Al28       1.0     0.443774     0.760777     0.905518    Uiso  ? Al
   Hf1        1.0     0.217506     0.206086     0.145166    Uiso  ? Hf
   Hf2        1.0     0.888198     0.200547     0.645824    Uiso  ? Hf
   Hf3        1.0     0.558805     0.207938     0.145957    Uiso  ? Hf
   Hf4        1.0     0.887195     0.544489     0.652303    Uiso  ? Hf
   Mg1        1.0     0.111767     0.086732     0.902011    Uiso  ? Mg
   Mg2        1.0     0.774593     0.428777     0.914941    Uiso  ? Mg
   Mg3        1.0     0.112675     0.762201     0.903432    Uiso  ? Mg
   Mg4        1.0     0.549559     0.873096     0.657169    Uiso  ? Mg
   N1         1.0     0.224485     0.205571     0.352647    Uiso  ? N
   N2         1.0     0.102584     0.084402     0.111852    Uiso  ? N
   N3         1.0     0.878979     0.200365     0.843808    Uiso  ? N
   N4         1.0     0.764033     0.086233     0.594844    Uiso  ? N
   N5         1.0     0.554222     0.206304     0.352909    Uiso  ? N
   N6         1.0     0.455210     0.075512     0.092140    Uiso  ? N
   N7         1.0     0.227723     0.214127     0.857636    Uiso  ? N
   N8         1.0     0.131913     0.087176     0.596221    Uiso  ? N
   N9         1.0     0.889788     0.200509     0.361844    Uiso  ? N
   N10        1.0     0.795986     0.084809     0.097497    Uiso  ? N
   N11        1.0     0.555490     0.206678     0.859565    Uiso  ? N
   N12        1.0     0.438858     0.108527     0.601138    Uiso  ? N
   N13        1.0     0.224324     0.538006     0.351208    Uiso  ? N
   N14        1.0     0.102524     0.448359     0.098702    Uiso  ? N
   N15        1.0     0.895762     0.548048     0.855652    Uiso  ? N
   N16        1.0     0.757050     0.438788     0.586259    Uiso  ? N
   N17        1.0     0.550397     0.538884     0.346465    Uiso  ? N
   N18        1.0     0.434004     0.447403     0.094079    Uiso  ? N
   N19        1.0     0.229394     0.527551     0.842269    Uiso  ? N
   N20        1.0     0.126261     0.420924     0.595519    Uiso  ? N
   N21        1.0     0.891819     0.538843     0.355057    Uiso  ? N
   N22        1.0     0.779837     0.425254     0.123333    Uiso  ? N
   N23        1.0     0.545416     0.544780     0.845910    Uiso  ? N
   N24        1.0     0.445848     0.425643     0.600375    Uiso  ? N
   N25        1.0     0.223419     0.870127     0.350462    Uiso  ? N
   N26        1.0     0.111079     0.762215     0.111043    Uiso  ? N
   N27        1.0     0.873070     0.878449     0.846283    Uiso  ? N
   N28        1.0     0.782123     0.771540     0.587292    Uiso  ? N
   N29        1.0     0.553550     0.873564     0.349243    Uiso  ? N
   N30        1.0     0.443439     0.761058     0.102033    Uiso  ? N
   N31        1.0     0.238951     0.863663     0.840857    Uiso  ? N
   N32        1.0     0.107900     0.763574     0.599023    Uiso  ? N
   N33        1.0     0.888980     0.872954     0.347455    Uiso  ? N
   N34        1.0     0.778997     0.761677     0.105955    Uiso  ? N
   N35        1.0     0.559137     0.866709     0.861812    Uiso  ? N
   N36        1.0     0.439345     0.751476     0.590494    Uiso  ? N
