
#======================================================================
# CRYSTAL DATA
#----------------------------------------------------------------------
data_VESTA_phase_1

_chemical_name_common                  'Al   Hf   Mg   N                      '
_cell_length_a                         10.015059
_cell_length_b                         9.993319
_cell_length_c                         9.196643
_cell_angle_alpha                      90.011139
_cell_angle_beta                       90.014832
_cell_angle_gamma                      59.860405
_cell_volume                           795.995442
_space_group_name_H-M_alt              'P 1'
_space_group_IT_number                 1

loop_
_space_group_symop_operation_xyz
   'x, y, z'

loop_
   _atom_site_label
   _atom_site_occupancy
   _atom_site_fract_x
   _atom_site_fract_y
   _atom_site_fract_z
   _atom_site_adp_type
   _atom_site_U_iso_or_equiv
   _atom_site_type_symbol
   Al1        1.0     0.121567     0.084921     0.365519    Uiso  ? Al
   Al2        1.0     0.781031     0.089175     0.872363    Uiso  ? Al
   Al3        1.0     0.445230     0.092403     0.388704    Uiso  ? Al
   Al4        1.0     0.227208     0.207571     0.631448    Uiso  ? Al
   Al5        1.0     0.775864     0.086902     0.370117    Uiso  ? Al
   Al6        1.0     0.890965     0.201820     0.125081    Uiso  ? Al
   Al7        1.0     0.451809     0.083669     0.851504    Uiso  ? Al
   Al8        1.0     0.551203     0.209661     0.629189    Uiso  ? Al
   Al9        1.0     0.121011     0.425580     0.368807    Uiso  ? Al
   Al10       1.0     0.218149     0.551547     0.128422    Uiso  ? Al
   Al11       1.0     0.444083     0.431872     0.379674    Uiso  ? Al
   Al12       1.0     0.550220     0.544794     0.117943    Uiso  ? Al
   Al13       1.0     0.112450     0.439343     0.873525    Uiso  ? Al
   Al14       1.0     0.225690     0.541093     0.622365    Uiso  ? Al
   Al15       1.0     0.768975     0.430940     0.348765    Uiso  ? Al
   Al16       1.0     0.887729     0.543129     0.128200    Uiso  ? Al
   Al17       1.0     0.436652     0.438332     0.867276    Uiso  ? Al
   Al18       1.0     0.544255     0.545250     0.632365    Uiso  ? Al
   Al19       1.0     0.110467     0.765810     0.370132    Uiso  ? Al
   Al20       1.0     0.222595     0.865192     0.115169    Uiso  ? Al
   Al21       1.0     0.773698     0.765558     0.881934    Uiso  ? Al
   Al22       1.0     0.888026     0.870974     0.630096    Uiso  ? Al
   Al23       1.0     0.440458     0.758307     0.371762    Uiso  ? Al
   Al24       1.0     0.557721     0.863136     0.123539    Uiso  ? Al
   Al25       1.0     0.231109     0.862897     0.633831    Uiso  ? Al
   Al26       1.0     0.775741     0.770345     0.363221    Uiso  ? Al
   Al27       1.0     0.897297     0.865967     0.120884    Uiso  ? Al
   Al28       1.0     0.446185     0.761238     0.877438    Uiso  ? Al
   Hf1        1.0     0.220388     0.204051     0.100759    Uiso  ? Hf
   Hf2        1.0     0.886963     0.202773     0.608117    Uiso  ? Hf
   Hf3        1.0     0.555341     0.207269     0.105821    Uiso  ? Hf
   Hf4        1.0     0.888883     0.543584     0.606949    Uiso  ? Hf
   Mg1        1.0     0.110933     0.088573     0.861951    Uiso  ? Mg
   Mg2        1.0     0.775351     0.430580     0.878583    Uiso  ? Mg
   Mg3        1.0     0.110969     0.760362     0.867065    Uiso  ? Mg
   Mg4        1.0     0.553610     0.866154     0.615032    Uiso  ? Mg
   N1         1.0     0.228626     0.203469     0.335222    Uiso  ? N
   N2         1.0     0.103329     0.086682     0.098448    Uiso  ? N
   N3         1.0     0.879130     0.200233     0.833412    Uiso  ? N
   N4         1.0     0.765067     0.086526     0.579996    Uiso  ? N
   N5         1.0     0.551988     0.206069     0.337952    Uiso  ? N
   N6         1.0     0.455932     0.073694     0.072782    Uiso  ? N
   N7         1.0     0.225793     0.216613     0.846359    Uiso  ? N
   N8         1.0     0.130782     0.087456     0.583010    Uiso  ? N
   N9         1.0     0.889594     0.199629     0.345163    Uiso  ? N
   N10        1.0     0.792368     0.086410     0.086780    Uiso  ? N
   N11        1.0     0.556892     0.207336     0.845175    Uiso  ? N
   N12        1.0     0.439951     0.106799     0.598533    Uiso  ? N
   N13        1.0     0.225718     0.539442     0.338219    Uiso  ? N
   N14        1.0     0.103904     0.447510     0.089101    Uiso  ? N
   N15        1.0     0.895990     0.548117     0.838116    Uiso  ? N
   N16        1.0     0.754940     0.439653     0.572754    Uiso  ? N
   N17        1.0     0.549751     0.538143     0.325775    Uiso  ? N
   N18        1.0     0.431682     0.445704     0.079637    Uiso  ? N
   N19        1.0     0.228292     0.528121     0.826821    Uiso  ? N
   N20        1.0     0.128702     0.419984     0.577950    Uiso  ? N
   N21        1.0     0.893249     0.537581     0.342438    Uiso  ? N
   N22        1.0     0.780888     0.425857     0.110781    Uiso  ? N
   N23        1.0     0.544326     0.545173     0.839946    Uiso  ? N
   N24        1.0     0.446972     0.426420     0.587480    Uiso  ? N
   N25        1.0     0.223779     0.869865     0.328456    Uiso  ? N
   N26        1.0     0.110367     0.761257     0.095622    Uiso  ? N
   N27        1.0     0.871942     0.878471     0.837408    Uiso  ? N
   N28        1.0     0.783376     0.772338     0.570529    Uiso  ? N
   N29        1.0     0.552056     0.875112     0.336273    Uiso  ? N
   N30        1.0     0.445267     0.760930     0.088930    Uiso  ? N
   N31        1.0     0.238446     0.863067     0.838488    Uiso  ? N
   N32        1.0     0.107292     0.766003     0.583981    Uiso  ? N
   N33        1.0     0.889595     0.873670     0.328525    Uiso  ? N
   N34        1.0     0.778298     0.760218     0.095446    Uiso  ? N
   N35        1.0     0.560477     0.864020     0.843777    Uiso  ? N
   N36        1.0     0.436908     0.750422     0.576125    Uiso  ? N
