
#======================================================================
# CRYSTAL DATA
#----------------------------------------------------------------------
data_VESTA_phase_1

_chemical_name_common                  'Al   Hf   Mg   N                      '
_cell_length_a                         10.102328
_cell_length_b                         10.077139
_cell_length_c                         8.945627
_cell_angle_alpha                      90.022781
_cell_angle_beta                       89.993324
_cell_angle_gamma                      59.814232
_cell_volume                           787.198166
_space_group_name_H-M_alt              'P 1'
_space_group_IT_number                 1

loop_
_space_group_symop_operation_xyz
   'x, y, z'

loop_
   _atom_site_label
   _atom_site_occupancy
   _atom_site_fract_x
   _atom_site_fract_y
   _atom_site_fract_z
   _atom_site_adp_type
   _atom_site_U_iso_or_equiv
   _atom_site_type_symbol
   Al1        1.0     0.111837     0.086562     0.351121    Uiso  ? Al
   Al2        1.0     0.773145     0.086644     0.835803    Uiso  ? Al
   Al3        1.0     0.450667     0.084824     0.359303    Uiso  ? Al
   Al4        1.0     0.227727     0.206088     0.585320    Uiso  ? Al
   Al5        1.0     0.783616     0.089253     0.343569    Uiso  ? Al
   Al6        1.0     0.890920     0.199349     0.081419    Uiso  ? Al
   Al7        1.0     0.447367     0.091081     0.822951    Uiso  ? Al
   Al8        1.0     0.550705     0.209192     0.583657    Uiso  ? Al
   Al9        1.0     0.111558     0.437299     0.342625    Uiso  ? Al
   Al10       1.0     0.219383     0.549747     0.080054    Uiso  ? Al
   Al11       1.0     0.438694     0.437179     0.346546    Uiso  ? Al
   Al12       1.0     0.545973     0.548398     0.088961    Uiso  ? Al
   Al13       1.0     0.123351     0.426922     0.837289    Uiso  ? Al
   Al14       1.0     0.224309     0.544240     0.591428    Uiso  ? Al
   Al15       1.0     0.775713     0.428064     0.330719    Uiso  ? Al
   Al16       1.0     0.889617     0.543113     0.085103    Uiso  ? Al
   Al17       1.0     0.442962     0.432463     0.828829    Uiso  ? Al
   Al18       1.0     0.547835     0.542164     0.581852    Uiso  ? Al
   Al19       1.0     0.113028     0.762246     0.345390    Uiso  ? Al
   Al20       1.0     0.225818     0.863543     0.076680    Uiso  ? Al
   Al21       1.0     0.773626     0.771052     0.847656    Uiso  ? Al
   Al22       1.0     0.890888     0.868535     0.582441    Uiso  ? Al
   Al23       1.0     0.442127     0.762689     0.344556    Uiso  ? Al
   Al24       1.0     0.556054     0.862247     0.094797    Uiso  ? Al
   Al25       1.0     0.225961     0.865668     0.596809    Uiso  ? Al
   Al26       1.0     0.774620     0.763677     0.331119    Uiso  ? Al
   Al27       1.0     0.894653     0.867679     0.089291    Uiso  ? Al
   Al28       1.0     0.444002     0.757367     0.829645    Uiso  ? Al
   Hf1        1.0     0.220290     0.205208     0.102809    Uiso  ? Hf
   Hf2        1.0     0.887842     0.203848     0.609844    Uiso  ? Hf
   Hf3        1.0     0.556608     0.207682     0.102244    Uiso  ? Hf
   Hf4        1.0     0.888433     0.542923     0.606360    Uiso  ? Hf
   Mg1        1.0     0.120534     0.087917     0.844490    Uiso  ? Mg
   Mg2        1.0     0.767877     0.432909     0.862363    Uiso  ? Mg
   Mg3        1.0     0.106948     0.764127     0.840025    Uiso  ? Mg
   Mg4        1.0     0.554557     0.868450     0.593723    Uiso  ? Mg
   N1         1.0     0.221388     0.208997     0.359943    Uiso  ? N
   N2         1.0     0.104917     0.084253     0.120158    Uiso  ? N
   N3         1.0     0.881772     0.193639     0.859758    Uiso  ? N
   N4         1.0     0.766854     0.085947     0.610916    Uiso  ? N
   N5         1.0     0.556700     0.207119     0.361599    Uiso  ? N
   N6         1.0     0.454427     0.077064     0.129007    Uiso  ? N
   N7         1.0     0.233721     0.211102     0.864411    Uiso  ? N
   N8         1.0     0.127103     0.091189     0.600484    Uiso  ? N
   N9         1.0     0.887340     0.205891     0.364781    Uiso  ? N
   N10        1.0     0.791741     0.086951     0.124747    Uiso  ? N
   N11        1.0     0.553430     0.206153     0.860395    Uiso  ? N
   N12        1.0     0.440642     0.105816     0.603520    Uiso  ? N
   N13        1.0     0.222340     0.540911     0.373892    Uiso  ? N
   N14        1.0     0.105652     0.446307     0.121945    Uiso  ? N
   N15        1.0     0.901408     0.543429     0.862889    Uiso  ? N
   N16        1.0     0.758262     0.438189     0.614055    Uiso  ? N
   N17        1.0     0.557209     0.537375     0.363352    Uiso  ? N
   N18        1.0     0.432763     0.444910     0.127372    Uiso  ? N
   N19        1.0     0.232135     0.527419     0.864213    Uiso  ? N
   N20        1.0     0.128260     0.421401     0.613395    Uiso  ? N
   N21        1.0     0.888657     0.539510     0.361642    Uiso  ? N
   N22        1.0     0.780438     0.426152     0.112580    Uiso  ? N
   N23        1.0     0.537964     0.545634     0.874865    Uiso  ? N
   N24        1.0     0.446153     0.427202     0.609740    Uiso  ? N
   N25        1.0     0.223012     0.870523     0.372934    Uiso  ? N
   N26        1.0     0.111487     0.761933     0.121501    Uiso  ? N
   N27        1.0     0.874007     0.880486     0.876120    Uiso  ? N
   N28        1.0     0.781929     0.772116     0.624567    Uiso  ? N
   N29        1.0     0.559143     0.866762     0.356863    Uiso  ? N
   N30        1.0     0.441073     0.762375     0.125734    Uiso  ? N
   N31        1.0     0.236507     0.863191     0.863114    Uiso  ? N
   N32        1.0     0.106408     0.764634     0.602407    Uiso  ? N
   N33        1.0     0.886958     0.870356     0.363162    Uiso  ? N
   N34        1.0     0.777930     0.759620     0.113239    Uiso  ? N
   N35        1.0     0.552522     0.872528     0.868338    Uiso  ? N
   N36        1.0     0.439990     0.751343     0.611898    Uiso  ? N
