
#======================================================================
# CRYSTAL DATA
#----------------------------------------------------------------------
data_VESTA_phase_1

_chemical_name_common                  'Al   Hf   Mg   N                      '
_cell_length_a                         10.182536
_cell_length_b                         10.162426
_cell_length_c                         8.699328
_cell_angle_alpha                      90.023727
_cell_angle_beta                       90.014595
_cell_angle_gamma                      59.839893
_cell_volume                           778.335337
_space_group_name_H-M_alt              'P 1'
_space_group_IT_number                 1

loop_
_space_group_symop_operation_xyz
   'x, y, z'

loop_
   _atom_site_label
   _atom_site_occupancy
   _atom_site_fract_x
   _atom_site_fract_y
   _atom_site_fract_z
   _atom_site_adp_type
   _atom_site_U_iso_or_equiv
   _atom_site_type_symbol
   Al1        1.0     0.117138     0.083842     0.355223    Uiso  ? Al
   Al2        1.0     0.777227     0.088892     0.860502    Uiso  ? Al
   Al3        1.0     0.447448     0.088285     0.379753    Uiso  ? Al
   Al4        1.0     0.226831     0.206534     0.610994    Uiso  ? Al
   Al5        1.0     0.780496     0.086672     0.357748    Uiso  ? Al
   Al6        1.0     0.889959     0.202905     0.100480    Uiso  ? Al
   Al7        1.0     0.449832     0.087054     0.840515    Uiso  ? Al
   Al8        1.0     0.551532     0.208841     0.609577    Uiso  ? Al
   Al9        1.0     0.117755     0.430383     0.357900    Uiso  ? Al
   Al10       1.0     0.218969     0.550347     0.113619    Uiso  ? Al
   Al11       1.0     0.442450     0.435130     0.370263    Uiso  ? Al
   Al12       1.0     0.550742     0.544476     0.106607    Uiso  ? Al
   Al13       1.0     0.116027     0.434475     0.861347    Uiso  ? Al
   Al14       1.0     0.224405     0.543222     0.612961    Uiso  ? Al
   Al15       1.0     0.770262     0.429757     0.341498    Uiso  ? Al
   Al16       1.0     0.887759     0.542536     0.110111    Uiso  ? Al
   Al17       1.0     0.438515     0.434836     0.855440    Uiso  ? Al
   Al18       1.0     0.544937     0.544866     0.624097    Uiso  ? Al
   Al19       1.0     0.111130     0.765492     0.357253    Uiso  ? Al
   Al20       1.0     0.223662     0.865399     0.101375    Uiso  ? Al
   Al21       1.0     0.773397     0.767342     0.873741    Uiso  ? Al
   Al22       1.0     0.890639     0.869712     0.618199    Uiso  ? Al
   Al23       1.0     0.441193     0.759261     0.361672    Uiso  ? Al
   Al24       1.0     0.557232     0.863530     0.111036    Uiso  ? Al
   Al25       1.0     0.228978     0.863544     0.625046    Uiso  ? Al
   Al26       1.0     0.774971     0.769583     0.352636    Uiso  ? Al
   Al27       1.0     0.895867     0.866544     0.109979    Uiso  ? Al
   Al28       1.0     0.445467     0.761118     0.867508    Uiso  ? Al
   Hf1        1.0     0.220880     0.204349     0.101629    Uiso  ? Hf
   Hf2        1.0     0.887549     0.203002     0.607056    Uiso  ? Hf
   Hf3        1.0     0.554599     0.207787     0.104928    Uiso  ? Hf
   Hf4        1.0     0.888692     0.543435     0.603738    Uiso  ? Hf
   Mg1        1.0     0.115172     0.088468     0.853800    Uiso  ? Mg
   Mg2        1.0     0.772402     0.432187     0.868935    Uiso  ? Mg
   Mg3        1.0     0.110122     0.761039     0.858824    Uiso  ? Mg
   Mg4        1.0     0.554253     0.865926     0.606964    Uiso  ? Mg
   N1         1.0     0.227075     0.204509     0.352986    Uiso  ? N
   N2         1.0     0.104602     0.088075     0.109229    Uiso  ? N
   N3         1.0     0.881173     0.198092     0.853893    Uiso  ? N
   N4         1.0     0.768829     0.086338     0.592613    Uiso  ? N
   N5         1.0     0.553150     0.206215     0.355055    Uiso  ? N
   N6         1.0     0.453725     0.077455     0.088529    Uiso  ? N
   N7         1.0     0.226749     0.215334     0.846979    Uiso  ? N
   N8         1.0     0.127308     0.087127     0.590909    Uiso  ? N
   N9         1.0     0.888108     0.201861     0.348312    Uiso  ? N
   N10        1.0     0.788962     0.087246     0.100836    Uiso  ? N
   N11        1.0     0.556470     0.206650     0.846106    Uiso  ? N
   N12        1.0     0.441212     0.104145     0.604428    Uiso  ? N
   N13        1.0     0.225520     0.540014     0.348182    Uiso  ? N
   N14        1.0     0.106890     0.443793     0.102178    Uiso  ? N
   N15        1.0     0.896845     0.547056     0.854823    Uiso  ? N
   N16        1.0     0.757459     0.438287     0.588548    Uiso  ? N
   N17        1.0     0.552460     0.537624     0.335238    Uiso  ? N
   N18        1.0     0.433837     0.442788     0.092189    Uiso  ? N
   N19        1.0     0.228203     0.529241     0.840607    Uiso  ? N
   N20        1.0     0.125866     0.423220     0.589879    Uiso  ? N
   N21        1.0     0.891849     0.537300     0.344594    Uiso  ? N
   N22        1.0     0.780126     0.426576     0.110979    Uiso  ? N
   N23        1.0     0.542599     0.545181     0.851190    Uiso  ? N
   N24        1.0     0.445868     0.428029     0.597456    Uiso  ? N
   N25        1.0     0.224197     0.869589     0.337923    Uiso  ? N
   N26        1.0     0.109994     0.761670     0.107081    Uiso  ? N
   N27        1.0     0.873655     0.878020     0.849375    Uiso  ? N
   N28        1.0     0.783018     0.770785     0.583726    Uiso  ? N
   N29        1.0     0.553273     0.873492     0.342093    Uiso  ? N
   N30        1.0     0.445537     0.760441     0.099043    Uiso  ? N
   N31        1.0     0.236573     0.863806     0.851708    Uiso  ? N
   N32        1.0     0.108124     0.765450     0.590876    Uiso  ? N
   N33        1.0     0.889307     0.872879     0.339253    Uiso  ? N
   N34        1.0     0.778128     0.760909     0.104137    Uiso  ? N
   N35        1.0     0.558610     0.866947     0.856296    Uiso  ? N
   N36        1.0     0.437712     0.751855     0.588027    Uiso  ? N
