
#======================================================================
# CRYSTAL DATA
#----------------------------------------------------------------------
data_VESTA_phase_1

_chemical_name_common                  'Al   Hf   Mg   N                      '
_cell_length_a                         9.686708
_cell_length_b                         9.678117
_cell_length_c                         10.123457
_cell_angle_alpha                      89.956932
_cell_angle_beta                       89.986137
_cell_angle_gamma                      59.877190
_cell_volume                           820.895081
_space_group_name_H-M_alt              'P 1'
_space_group_IT_number                 1

loop_
_space_group_symop_operation_xyz
   'x, y, z'

loop_
   _atom_site_label
   _atom_site_occupancy
   _atom_site_fract_x
   _atom_site_fract_y
   _atom_site_fract_z
   _atom_site_adp_type
   _atom_site_U_iso_or_equiv
   _atom_site_type_symbol
   Al1        1.0     0.119606     0.086988     0.396544    Uiso  ? Al
   Al2        1.0     0.780993     0.089119     0.892461    Uiso  ? Al
   Al3        1.0     0.445565     0.092486     0.405964    Uiso  ? Al
   Al4        1.0     0.231375     0.204322     0.654600    Uiso  ? Al
   Al5        1.0     0.776274     0.087648     0.397366    Uiso  ? Al
   Al6        1.0     0.890589     0.202407     0.155964    Uiso  ? Al
   Al7        1.0     0.449373     0.086018     0.887805    Uiso  ? Al
   Al8        1.0     0.548416     0.208167     0.652472    Uiso  ? Al
   Al9        1.0     0.116167     0.428228     0.397307    Uiso  ? Al
   Al10       1.0     0.217507     0.551346     0.149903    Uiso  ? Al
   Al11       1.0     0.442973     0.431239     0.402213    Uiso  ? Al
   Al12       1.0     0.553028     0.545308     0.148060    Uiso  ? Al
   Al13       1.0     0.115018     0.435581     0.894361    Uiso  ? Al
   Al14       1.0     0.226894     0.540138     0.648120    Uiso  ? Al
   Al15       1.0     0.770998     0.431534     0.384012    Uiso  ? Al
   Al16       1.0     0.885312     0.544321     0.151250    Uiso  ? Al
   Al17       1.0     0.439382     0.437322     0.889526    Uiso  ? Al
   Al18       1.0     0.542479     0.545899     0.649359    Uiso  ? Al
   Al19       1.0     0.110715     0.762440     0.397972    Uiso  ? Al
   Al20       1.0     0.222522     0.864807     0.149887    Uiso  ? Al
   Al21       1.0     0.775054     0.766748     0.902073    Uiso  ? Al
   Al22       1.0     0.887276     0.870801     0.650299    Uiso  ? Al
   Al23       1.0     0.442968     0.759013     0.397539    Uiso  ? Al
   Al24       1.0     0.559753     0.861025     0.147010    Uiso  ? Al
   Al25       1.0     0.232451     0.862723     0.649397    Uiso  ? Al
   Al26       1.0     0.776467     0.766419     0.392136    Uiso  ? Al
   Al27       1.0     0.897485     0.865461     0.148193    Uiso  ? Al
   Al28       1.0     0.443765     0.760783     0.895316    Uiso  ? Al
   Hf1        1.0     0.217499     0.206092     0.134962    Uiso  ? Hf
   Hf2        1.0     0.888191     0.200552     0.635624    Uiso  ? Hf
   Hf3        1.0     0.558797     0.207945     0.135757    Uiso  ? Hf
   Hf4        1.0     0.887189     0.544494     0.642102    Uiso  ? Hf
   Mg1        1.0     0.111759     0.086737     0.891812    Uiso  ? Mg
   Mg2        1.0     0.774586     0.428783     0.904741    Uiso  ? Mg
   Mg3        1.0     0.112669     0.762206     0.893234    Uiso  ? Mg
   Mg4        1.0     0.549552     0.873102     0.646969    Uiso  ? Mg
   N1         1.0     0.224478     0.205578     0.342445    Uiso  ? N
   N2         1.0     0.102575     0.084408     0.101656    Uiso  ? N
   N3         1.0     0.878972     0.200371     0.833610    Uiso  ? N
   N4         1.0     0.764026     0.086238     0.584644    Uiso  ? N
   N5         1.0     0.554214     0.206311     0.342710    Uiso  ? N
   N6         1.0     0.455204     0.075518     0.081939    Uiso  ? N
   N7         1.0     0.227715     0.214133     0.847438    Uiso  ? N
   N8         1.0     0.131906     0.087183     0.586020    Uiso  ? N
   N9         1.0     0.889780     0.200517     0.351648    Uiso  ? N
   N10        1.0     0.795978     0.084816     0.087301    Uiso  ? N
   N11        1.0     0.555484     0.206684     0.849366    Uiso  ? N
   N12        1.0     0.438851     0.108533     0.590938    Uiso  ? N
   N13        1.0     0.224317     0.538013     0.341011    Uiso  ? N
   N14        1.0     0.102515     0.448366     0.088504    Uiso  ? N
   N15        1.0     0.895755     0.548054     0.845452    Uiso  ? N
   N16        1.0     0.757042     0.438794     0.576063    Uiso  ? N
   N17        1.0     0.550390     0.538890     0.336266    Uiso  ? N
   N18        1.0     0.433994     0.447410     0.083881    Uiso  ? N
   N19        1.0     0.229386     0.527558     0.832068    Uiso  ? N
   N20        1.0     0.126254     0.420929     0.585318    Uiso  ? N
   N21        1.0     0.891811     0.538850     0.344861    Uiso  ? N
   N22        1.0     0.779829     0.425260     0.113135    Uiso  ? N
   N23        1.0     0.545408     0.544786     0.835713    Uiso  ? N
   N24        1.0     0.445842     0.425649     0.590177    Uiso  ? N
   N25        1.0     0.223412     0.870133     0.340265    Uiso  ? N
   N26        1.0     0.111072     0.762220     0.100846    Uiso  ? N
   N27        1.0     0.873063     0.878456     0.836088    Uiso  ? N
   N28        1.0     0.782115     0.771547     0.577096    Uiso  ? N
   N29        1.0     0.553543     0.873570     0.339042    Uiso  ? N
   N30        1.0     0.443431     0.761065     0.091833    Uiso  ? N
   N31        1.0     0.238944     0.863670     0.830655    Uiso  ? N
   N32        1.0     0.107892     0.763580     0.588824    Uiso  ? N
   N33        1.0     0.888972     0.872961     0.337256    Uiso  ? N
   N34        1.0     0.778990     0.761682     0.095756    Uiso  ? N
   N35        1.0     0.559130     0.866715     0.851613    Uiso  ? N
   N36        1.0     0.439338     0.751481     0.580294    Uiso  ? N
