
#======================================================================
# CRYSTAL DATA
#----------------------------------------------------------------------
data_VESTA_phase_1

_chemical_name_common                  'Al   Hf   Mg   N                      '
_cell_length_a                         9.691912
_cell_length_b                         9.673889
_cell_length_c                         10.127264
_cell_angle_alpha                      90.056023
_cell_angle_beta                       90.027344
_cell_angle_gamma                      59.800739
_cell_volume                           820.649281
_space_group_name_H-M_alt              'P 1'
_space_group_IT_number                 1

loop_
_space_group_symop_operation_xyz
   'x, y, z'

loop_
   _atom_site_label
   _atom_site_occupancy
   _atom_site_fract_x
   _atom_site_fract_y
   _atom_site_fract_z
   _atom_site_adp_type
   _atom_site_U_iso_or_equiv
   _atom_site_type_symbol
   Al1        1.0     0.111345     0.088725     0.310131    Uiso  ? Al
   Al2        1.0     0.776842     0.086936     0.806979    Uiso  ? Al
   Al3        1.0     0.450691     0.086005     0.314167    Uiso  ? Al
   Al4        1.0     0.231125     0.203774     0.551015    Uiso  ? Al
   Al5        1.0     0.780453     0.090251     0.308152    Uiso  ? Al
   Al6        1.0     0.890348     0.199453     0.046840    Uiso  ? Al
   Al7        1.0     0.444915     0.093043     0.797582    Uiso  ? Al
   Al8        1.0     0.548311     0.208016     0.555398    Uiso  ? Al
   Al9        1.0     0.111532     0.433931     0.305804    Uiso  ? Al
   Al10       1.0     0.219202     0.548919     0.052430    Uiso  ? Al
   Al11       1.0     0.441820     0.433650     0.311304    Uiso  ? Al
   Al12       1.0     0.549944     0.547040     0.053971    Uiso  ? Al
   Al13       1.0     0.120189     0.429563     0.808551    Uiso  ? Al
   Al14       1.0     0.225623     0.543509     0.555659    Uiso  ? Al
   Al15       1.0     0.774409     0.429413     0.298146    Uiso  ? Al
   Al16       1.0     0.887048     0.545294     0.050181    Uiso  ? Al
   Al17       1.0     0.441316     0.433900     0.802341    Uiso  ? Al
   Al18       1.0     0.543944     0.545439     0.554986    Uiso  ? Al
   Al19       1.0     0.111467     0.760909     0.307957    Uiso  ? Al
   Al20       1.0     0.224849     0.863925     0.055188    Uiso  ? Al
   Al21       1.0     0.777512     0.767404     0.812624    Uiso  ? Al
   Al22       1.0     0.890639     0.869354     0.553597    Uiso  ? Al
   Al23       1.0     0.446662     0.761519     0.305182    Uiso  ? Al
   Al24       1.0     0.559609     0.861107     0.052592    Uiso  ? Al
   Al25       1.0     0.228018     0.864475     0.553083    Uiso  ? Al
   Al26       1.0     0.773187     0.765234     0.299935    Uiso  ? Al
   Al27       1.0     0.893878     0.866888     0.055672    Uiso  ? Al
   Al28       1.0     0.439205     0.758569     0.807771    Uiso  ? Al
   Hf1        1.0     0.218389     0.204726     0.063652    Uiso  ? Hf
   Hf2        1.0     0.888216     0.201892     0.567965    Uiso  ? Hf
   Hf3        1.0     0.559005     0.208112     0.057807    Uiso  ? Hf
   Hf4        1.0     0.888737     0.544238     0.564056    Uiso  ? Hf
   Mg1        1.0     0.119377     0.086026     0.807159    Uiso  ? Mg
   Mg2        1.0     0.771202     0.431933     0.821460    Uiso  ? Mg
   Mg3        1.0     0.110900     0.764119     0.807988    Uiso  ? Mg
   Mg4        1.0     0.549605     0.873087     0.560982    Uiso  ? Mg
   N1         1.0     0.222297     0.207312     0.353353    Uiso  ? N
   N2         1.0     0.101351     0.084927     0.119951    Uiso  ? N
   N3         1.0     0.882410     0.193926     0.860343    Uiso  ? N
   N4         1.0     0.766109     0.085097     0.614242    Uiso  ? N
   N5         1.0     0.556057     0.206279     0.359000    Uiso  ? N
   N6         1.0     0.456070     0.077211     0.122007    Uiso  ? N
   N7         1.0     0.231369     0.211998     0.863167    Uiso  ? N
   N8         1.0     0.130077     0.087689     0.598412    Uiso  ? N
   N9         1.0     0.886379     0.207016     0.359079    Uiso  ? N
   N10        1.0     0.792804     0.085994     0.120542    Uiso  ? N
   N11        1.0     0.553950     0.206224     0.853559    Uiso  ? N
   N12        1.0     0.438277     0.108198     0.611359    Uiso  ? N
   N13        1.0     0.222286     0.538875     0.365137    Uiso  ? N
   N14        1.0     0.103603     0.445802     0.117801    Uiso  ? N
   N15        1.0     0.900551     0.545403     0.861378    Uiso  ? N
   N16        1.0     0.758015     0.439240     0.612964    Uiso  ? N
   N17        1.0     0.556465     0.539022     0.362791    Uiso  ? N
   N18        1.0     0.435688     0.444577     0.122397    Uiso  ? N
   N19        1.0     0.232655     0.525482     0.868402    Uiso  ? N
   N20        1.0     0.129079     0.421101     0.614887    Uiso  ? N
   N21        1.0     0.887955     0.539782     0.354955    Uiso  ? N
   N22        1.0     0.779214     0.426483     0.106664    Uiso  ? N
   N23        1.0     0.538902     0.544433     0.870700    Uiso  ? N
   N24        1.0     0.444644     0.427865     0.609724    Uiso  ? N
   N25        1.0     0.225162     0.869006     0.360969    Uiso  ? N
   N26        1.0     0.110034     0.760968     0.117319    Uiso  ? N
   N27        1.0     0.873455     0.880481     0.872818    Uiso  ? N
   N28        1.0     0.782734     0.772616     0.624225    Uiso  ? N
   N29        1.0     0.558245     0.868095     0.355745    Uiso  ? N
   N30        1.0     0.445908     0.761136     0.117039    Uiso  ? N
   N31        1.0     0.236235     0.865415     0.875606    Uiso  ? N
   N32        1.0     0.108479     0.764523     0.599036    Uiso  ? N
   N33        1.0     0.887088     0.870993     0.361924    Uiso  ? N
   N34        1.0     0.777623     0.761067     0.111357    Uiso  ? N
   N35        1.0     0.554223     0.872146     0.862090    Uiso  ? N
   N36        1.0     0.435622     0.752808     0.618493    Uiso  ? N
