
#======================================================================
# CRYSTAL DATA
#----------------------------------------------------------------------
data_VESTA_phase_1

_chemical_name_common                  'Al   Hf   Mg   N                      '
_cell_length_a                         10.017173
_cell_length_b                         9.990278
_cell_length_c                         9.203650
_cell_angle_alpha                      90.024925
_cell_angle_beta                       89.990021
_cell_angle_gamma                      59.814079
_cell_volume                           796.153268
_space_group_name_H-M_alt              'P 1'
_space_group_IT_number                 1

loop_
_space_group_symop_operation_xyz
   'x, y, z'

loop_
   _atom_site_label
   _atom_site_occupancy
   _atom_site_fract_x
   _atom_site_fract_y
   _atom_site_fract_z
   _atom_site_adp_type
   _atom_site_U_iso_or_equiv
   _atom_site_type_symbol
   Al1        1.0     0.109658     0.087594     0.346098    Uiso  ? Al
   Al2        1.0     0.771813     0.086286     0.831446    Uiso  ? Al
   Al3        1.0     0.451924     0.083189     0.352804    Uiso  ? Al
   Al4        1.0     0.228353     0.205987     0.575908    Uiso  ? Al
   Al5        1.0     0.784805     0.089994     0.338799    Uiso  ? Al
   Al6        1.0     0.891524     0.198199     0.072222    Uiso  ? Al
   Al7        1.0     0.446199     0.092977     0.819878    Uiso  ? Al
   Al8        1.0     0.550209     0.209475     0.576622    Uiso  ? Al
   Al9        1.0     0.109138     0.439139     0.337261    Uiso  ? Al
   Al10       1.0     0.219026     0.549818     0.075981    Uiso  ? Al
   Al11       1.0     0.438662     0.437729     0.341134    Uiso  ? Al
   Al12       1.0     0.545558     0.548638     0.084001    Uiso  ? Al
   Al13       1.0     0.125239     0.425431     0.832942    Uiso  ? Al
   Al14       1.0     0.224689     0.544165     0.586175    Uiso  ? Al
   Al15       1.0     0.777023     0.427471     0.326014    Uiso  ? Al
   Al16       1.0     0.889775     0.543767     0.076148    Uiso  ? Al
   Al17       1.0     0.442978     0.431989     0.825950    Uiso  ? Al
   Al18       1.0     0.547512     0.542380     0.577719    Uiso  ? Al
   Al19       1.0     0.112661     0.761946     0.339741    Uiso  ? Al
   Al20       1.0     0.225575     0.863615     0.074631    Uiso  ? Al
   Al21       1.0     0.774119     0.771752     0.841250    Uiso  ? Al
   Al22       1.0     0.890514     0.868804     0.577270    Uiso  ? Al
   Al23       1.0     0.443653     0.762580     0.338179    Uiso  ? Al
   Al24       1.0     0.556713     0.861806     0.086076    Uiso  ? Al
   Al25       1.0     0.226247     0.865553     0.588242    Uiso  ? Al
   Al26       1.0     0.774268     0.762499     0.327242    Uiso  ? Al
   Al27       1.0     0.894419     0.867599     0.085208    Uiso  ? Al
   Al28       1.0     0.442375     0.756956     0.826854    Uiso  ? Al
   Hf1        1.0     0.219924     0.205392     0.101844    Uiso  ? Hf
   Hf2        1.0     0.887952     0.203548     0.610076    Uiso  ? Hf
   Hf3        1.0     0.557247     0.207342     0.099711    Uiso  ? Hf
   Hf4        1.0     0.888518     0.542750     0.605458    Uiso  ? Hf
   Mg1        1.0     0.123238     0.087296     0.839455    Uiso  ? Mg
   Mg2        1.0     0.767111     0.433354     0.858766    Uiso  ? Mg
   Mg3        1.0     0.107177     0.764521     0.835536    Uiso  ? Mg
   Mg4        1.0     0.553645     0.868990     0.590677    Uiso  ? Mg
   N1         1.0     0.221060     0.209316     0.360215    Uiso  ? N
   N2         1.0     0.103213     0.084442     0.125413    Uiso  ? N
   N3         1.0     0.882615     0.192489     0.859962    Uiso  ? N
   N4         1.0     0.765224     0.085807     0.616655    Uiso  ? N
   N5         1.0     0.557014     0.207167     0.362360    Uiso  ? N
   N6         1.0     0.455650     0.075161     0.135100    Uiso  ? N
   N7         1.0     0.234592     0.211188     0.873794    Uiso  ? N
   N8         1.0     0.129040     0.090505     0.604505    Uiso  ? N
   N9         1.0     0.886659     0.207056     0.372742    Uiso  ? N
   N10        1.0     0.793507     0.086935     0.129334    Uiso  ? N
   N11        1.0     0.553136     0.206179     0.867634    Uiso  ? N
   N12        1.0     0.439863     0.107288     0.608358    Uiso  ? N
   N13        1.0     0.222039     0.540740     0.377552    Uiso  ? N
   N14        1.0     0.103641     0.448088     0.126857    Uiso  ? N
   N15        1.0     0.901961     0.543778     0.863561    Uiso  ? N
   N16        1.0     0.756817     0.438950     0.622063    Uiso  ? N
   N17        1.0     0.558068     0.537348     0.367972    Uiso  ? N
   N18        1.0     0.432275     0.445872     0.131981    Uiso  ? N
   N19        1.0     0.232426     0.526996     0.870217    Uiso  ? N
   N20        1.0     0.130102     0.419964     0.619286    Uiso  ? N
   N21        1.0     0.887958     0.539353     0.369420    Uiso  ? N
   N22        1.0     0.781253     0.425501     0.113339    Uiso  ? N
   N23        1.0     0.536863     0.545675     0.879839    Uiso  ? N
   N24        1.0     0.446166     0.426883     0.614494    Uiso  ? N
   N25        1.0     0.223608     0.870136     0.375291    Uiso  ? N
   N26        1.0     0.111189     0.761729     0.125774    Uiso  ? N
   N27        1.0     0.873538     0.880953     0.881648    Uiso  ? N
   N28        1.0     0.782037     0.773206     0.630595    Uiso  ? N
   N29        1.0     0.559779     0.865656     0.364068    Uiso  ? N
   N30        1.0     0.442025     0.762332     0.129181    Uiso  ? N
   N31        1.0     0.236532     0.863258     0.871777    Uiso  ? N
   N32        1.0     0.106361     0.765066     0.606691    Uiso  ? N
   N33        1.0     0.886640     0.870431     0.367509    Uiso  ? N
   N34        1.0     0.777877     0.759004     0.117990    Uiso  ? N
   N35        1.0     0.552489     0.872855     0.870879    Uiso  ? N
   N36        1.0     0.438831     0.750931     0.618721    Uiso  ? N
