
#======================================================================
# CRYSTAL DATA
#----------------------------------------------------------------------
data_VESTA_phase_1

_chemical_name_common                  'Al   Hf   Mg   N                      '
_cell_length_a                         10.216866
_cell_length_b                         10.196631
_cell_length_c                         8.606435
_cell_angle_alpha                      90.024673
_cell_angle_beta                       90.003754
_cell_angle_gamma                      59.818642
_cell_volume                           775.053526
_space_group_name_H-M_alt              'P 1'
_space_group_IT_number                 1

loop_
_space_group_symop_operation_xyz
   'x, y, z'

loop_
   _atom_site_label
   _atom_site_occupancy
   _atom_site_fract_x
   _atom_site_fract_y
   _atom_site_fract_z
   _atom_site_adp_type
   _atom_site_U_iso_or_equiv
   _atom_site_type_symbol
   Al1        1.0     0.115002     0.084838     0.354549    Uiso  ? Al
   Al2        1.0     0.775860     0.087667     0.848034    Uiso  ? Al
   Al3        1.0     0.449012     0.086630     0.366711    Uiso  ? Al
   Al4        1.0     0.227598     0.205918     0.600626    Uiso  ? Al
   Al5        1.0     0.781646     0.087252     0.351039    Uiso  ? Al
   Al6        1.0     0.890019     0.201472     0.096759    Uiso  ? Al
   Al7        1.0     0.448815     0.088562     0.831646    Uiso  ? Al
   Al8        1.0     0.551054     0.208423     0.596814    Uiso  ? Al
   Al9        1.0     0.115452     0.433873     0.351089    Uiso  ? Al
   Al10       1.0     0.219519     0.549898     0.091695    Uiso  ? Al
   Al11       1.0     0.439649     0.436434     0.355380    Uiso  ? Al
   Al12       1.0     0.548530     0.547072     0.096723    Uiso  ? Al
   Al13       1.0     0.119796     0.430371     0.848381    Uiso  ? Al
   Al14       1.0     0.224106     0.544013     0.600124    Uiso  ? Al
   Al15       1.0     0.772123     0.429690     0.339536    Uiso  ? Al
   Al16       1.0     0.888255     0.543136     0.100768    Uiso  ? Al
   Al17       1.0     0.441632     0.433553     0.837307    Uiso  ? Al
   Al18       1.0     0.547154     0.542722     0.596193    Uiso  ? Al
   Al19       1.0     0.112141     0.763257     0.351962    Uiso  ? Al
   Al20       1.0     0.225567     0.864087     0.086508    Uiso  ? Al
   Al21       1.0     0.773064     0.769263     0.859462    Uiso  ? Al
   Al22       1.0     0.891548     0.868979     0.598826    Uiso  ? Al
   Al23       1.0     0.441538     0.761827     0.353133    Uiso  ? Al
   Al24       1.0     0.556394     0.862546     0.104135    Uiso  ? Al
   Al25       1.0     0.226410     0.865282     0.606860    Uiso  ? Al
   Al26       1.0     0.774523     0.767100     0.344299    Uiso  ? Al
   Al27       1.0     0.894941     0.866708     0.098142    Uiso  ? Al
   Al28       1.0     0.444533     0.759192     0.839862    Uiso  ? Al
   Hf1        1.0     0.220345     0.204891     0.102831    Uiso  ? Hf
   Hf2        1.0     0.887962     0.203248     0.608254    Uiso  ? Hf
   Hf3        1.0     0.555430     0.208301     0.104050    Uiso  ? Hf
   Hf4        1.0     0.889112     0.542566     0.605721    Uiso  ? Hf
   Mg1        1.0     0.117268     0.087591     0.850119    Uiso  ? Mg
   Mg2        1.0     0.769796     0.432096     0.865837    Uiso  ? Mg
   Mg3        1.0     0.108704     0.763089     0.848283    Uiso  ? Mg
   Mg4        1.0     0.554243     0.868657     0.599809    Uiso  ? Mg
   N1         1.0     0.223439     0.207548     0.359163    Uiso  ? N
   N2         1.0     0.106258     0.085304     0.114453    Uiso  ? N
   N3         1.0     0.881348     0.196057     0.859341    Uiso  ? N
   N4         1.0     0.768872     0.086516     0.601919    Uiso  ? N
   N5         1.0     0.555593     0.206438     0.360563    Uiso  ? N
   N6         1.0     0.453104     0.078873     0.112868    Uiso  ? N
   N7         1.0     0.230859     0.212036     0.850814    Uiso  ? N
   N8         1.0     0.125165     0.090840     0.595181    Uiso  ? N
   N9         1.0     0.887636     0.203408     0.351382    Uiso  ? N
   N10        1.0     0.789047     0.086677     0.112426    Uiso  ? N
   N11        1.0     0.554583     0.206286     0.849502    Uiso  ? N
   N12        1.0     0.441306     0.104274     0.601682    Uiso  ? N
   N13        1.0     0.223124     0.540926     0.363066    Uiso  ? N
   N14        1.0     0.107755     0.443447     0.111225    Uiso  ? N
   N15        1.0     0.899060     0.544439     0.861310    Uiso  ? N
   N16        1.0     0.760474     0.436794     0.598710    Uiso  ? N
   N17        1.0     0.554432     0.538358     0.355711    Uiso  ? N
   N18        1.0     0.434630     0.443445     0.115410    Uiso  ? N
   N19        1.0     0.230884     0.528383     0.855425    Uiso  ? N
   N20        1.0     0.126073     0.423314     0.603057    Uiso  ? N
   N21        1.0     0.890626     0.538946     0.349009    Uiso  ? N
   N22        1.0     0.778361     0.427631     0.112722    Uiso  ? N
   N23        1.0     0.540709     0.544961     0.861813    Uiso  ? N
   N24        1.0     0.445380     0.427540     0.603291    Uiso  ? N
   N25        1.0     0.223055     0.870285     0.362092    Uiso  ? N
   N26        1.0     0.110949     0.762290     0.114445    Uiso  ? N
   N27        1.0     0.874762     0.878708     0.861537    Uiso  ? N
   N28        1.0     0.781942     0.770190     0.605054    Uiso  ? N
   N29        1.0     0.556737     0.869731     0.347973    Uiso  ? N
   N30        1.0     0.442416     0.761375     0.115523    Uiso  ? N
   N31        1.0     0.236118     0.863711     0.855153    Uiso  ? N
   N32        1.0     0.107535     0.763898     0.596409    Uiso  ? N
   N33        1.0     0.888140     0.871309     0.353937    Uiso  ? N
   N34        1.0     0.777859     0.760990     0.107201    Uiso  ? N
   N35        1.0     0.554481     0.870804     0.863181    Uiso  ? N
   N36        1.0     0.440037     0.752835     0.602801    Uiso  ? N
