
#======================================================================
# CRYSTAL DATA
#----------------------------------------------------------------------
data_VESTA_phase_1

_chemical_name_common                  'Al   Hf   Mg   N                      '
_cell_length_a                         9.726120
_cell_length_b                         9.703896
_cell_length_c                         10.037454
_cell_angle_alpha                      90.050491
_cell_angle_beta                       90.005508
_cell_angle_gamma                      59.805145
_cell_volume                           818.810936
_space_group_name_H-M_alt              'P 1'
_space_group_IT_number                 1

loop_
_space_group_symop_operation_xyz
   'x, y, z'

loop_
   _atom_site_label
   _atom_site_occupancy
   _atom_site_fract_x
   _atom_site_fract_y
   _atom_site_fract_z
   _atom_site_adp_type
   _atom_site_U_iso_or_equiv
   _atom_site_type_symbol
   Al1        1.0     0.109942     0.088977     0.329570    Uiso  ? Al
   Al2        1.0     0.775364     0.086450     0.824887    Uiso  ? Al
   Al3        1.0     0.451485     0.084721     0.332833    Uiso  ? Al
   Al4        1.0     0.231463     0.203874     0.568036    Uiso  ? Al
   Al5        1.0     0.781752     0.090624     0.327074    Uiso  ? Al
   Al6        1.0     0.890981     0.198817     0.062370    Uiso  ? Al
   Al7        1.0     0.444894     0.093617     0.816327    Uiso  ? Al
   Al8        1.0     0.548233     0.208274     0.572223    Uiso  ? Al
   Al9        1.0     0.110422     0.435490     0.324797    Uiso  ? Al
   Al10       1.0     0.218837     0.549420     0.070297    Uiso  ? Al
   Al11       1.0     0.441155     0.434582     0.329648    Uiso  ? Al
   Al12       1.0     0.549405     0.547155     0.072618    Uiso  ? Al
   Al13       1.0     0.121556     0.428571     0.826745    Uiso  ? Al
   Al14       1.0     0.225524     0.543814     0.574355    Uiso  ? Al
   Al15       1.0     0.775290     0.428327     0.317199    Uiso  ? Al
   Al16       1.0     0.887299     0.545265     0.067324    Uiso  ? Al
   Al17       1.0     0.441333     0.433617     0.820645    Uiso  ? Al
   Al18       1.0     0.544178     0.544972     0.572823    Uiso  ? Al
   Al19       1.0     0.111372     0.761141     0.326372    Uiso  ? Al
   Al20       1.0     0.224939     0.863918     0.073377    Uiso  ? Al
   Al21       1.0     0.777071     0.768207     0.830342    Uiso  ? Al
   Al22       1.0     0.890436     0.869468     0.571073    Uiso  ? Al
   Al23       1.0     0.446740     0.761494     0.323918    Uiso  ? Al
   Al24       1.0     0.559585     0.860679     0.070645    Uiso  ? Al
   Al25       1.0     0.227923     0.864614     0.571360    Uiso  ? Al
   Al26       1.0     0.773170     0.764550     0.318878    Uiso  ? Al
   Al27       1.0     0.893751     0.866850     0.074428    Uiso  ? Al
   Al28       1.0     0.439132     0.758112     0.825252    Uiso  ? Al
   Hf1        1.0     0.218480     0.205163     0.085521    Uiso  ? Hf
   Hf2        1.0     0.888718     0.201617     0.592154    Uiso  ? Hf
   Hf3        1.0     0.558902     0.207950     0.079253    Uiso  ? Hf
   Hf4        1.0     0.888929     0.543666     0.585570    Uiso  ? Hf
   Mg1        1.0     0.122474     0.085437     0.825990    Uiso  ? Mg
   Mg2        1.0     0.769925     0.432866     0.840888    Uiso  ? Mg
   Mg3        1.0     0.110274     0.764651     0.826218    Uiso  ? Mg
   Mg4        1.0     0.549538     0.872935     0.580396    Uiso  ? Mg
   N1         1.0     0.222312     0.207510     0.368621    Uiso  ? N
   N2         1.0     0.100622     0.085138     0.136793    Uiso  ? N
   N3         1.0     0.883396     0.193134     0.872598    Uiso  ? N
   N4         1.0     0.764895     0.084974     0.630684    Uiso  ? N
   N5         1.0     0.556133     0.206338     0.374214    Uiso  ? N
   N6         1.0     0.456798     0.075646     0.139627    Uiso  ? N
   N7         1.0     0.232211     0.212176     0.882905    Uiso  ? N
   N8         1.0     0.131602     0.087532     0.615379    Uiso  ? N
   N9         1.0     0.886374     0.207030     0.379628    Uiso  ? N
   N10        1.0     0.793848     0.086325     0.137327    Uiso  ? N
   N11        1.0     0.553872     0.206402     0.873013    Uiso  ? N
   N12        1.0     0.438261     0.108744     0.628096    Uiso  ? N
   N13        1.0     0.222099     0.539353     0.382663    Uiso  ? N
   N14        1.0     0.102587     0.447333     0.135155    Uiso  ? N
   N15        1.0     0.900809     0.545296     0.876255    Uiso  ? N
   N16        1.0     0.756893     0.439748     0.630867    Uiso  ? N
   N17        1.0     0.556768     0.538698     0.379540    Uiso  ? N
   N18        1.0     0.434675     0.445466     0.139593    Uiso  ? N
   N19        1.0     0.232419     0.526003     0.884824    Uiso  ? N
   N20        1.0     0.130211     0.420284     0.631751    Uiso  ? N
   N21        1.0     0.887807     0.539536     0.374263    Uiso  ? N
   N22        1.0     0.779912     0.425661     0.122894    Uiso  ? N
   N23        1.0     0.538297     0.544562     0.887992    Uiso  ? N
   N24        1.0     0.444750     0.427569     0.626560    Uiso  ? N
   N25        1.0     0.225055     0.869087     0.378039    Uiso  ? N
   N26        1.0     0.109894     0.761239     0.134352    Uiso  ? N
   N27        1.0     0.873190     0.880496     0.890118    Uiso  ? N
   N28        1.0     0.782464     0.773196     0.640752    Uiso  ? N
   N29        1.0     0.558460     0.867526     0.373847    Uiso  ? N
   N30        1.0     0.445842     0.761112     0.134439    Uiso  ? N
   N31        1.0     0.236466     0.864837     0.892256    Uiso  ? N
   N32        1.0     0.107948     0.765101     0.616092    Uiso  ? N
   N33        1.0     0.886926     0.871056     0.378417    Uiso  ? N
   N34        1.0     0.777564     0.760457     0.128518    Uiso  ? N
   N35        1.0     0.554105     0.872004     0.878603    Uiso  ? N
   N36        1.0     0.435537     0.752347     0.634929    Uiso  ? N
