
#======================================================================
# CRYSTAL DATA
#----------------------------------------------------------------------
data_VESTA_phase_1

_chemical_name_common                  'Al   Hf   Mg   N                      '
_cell_length_a                         9.821185
_cell_length_b                         9.803082
_cell_length_c                         9.758768
_cell_angle_alpha                      89.988182
_cell_angle_beta                       90.003517
_cell_angle_gamma                      59.884907
_cell_volume                           812.731846
_space_group_name_H-M_alt              'P 1'
_space_group_IT_number                 1

loop_
_space_group_symop_operation_xyz
   'x, y, z'

loop_
   _atom_site_label
   _atom_site_occupancy
   _atom_site_fract_x
   _atom_site_fract_y
   _atom_site_fract_z
   _atom_site_adp_type
   _atom_site_U_iso_or_equiv
   _atom_site_type_symbol
   Al1        1.0     0.123125     0.086376     0.376939    Uiso  ? Al
   Al2        1.0     0.782774     0.089152     0.876632    Uiso  ? Al
   Al3        1.0     0.444500     0.094021     0.389831    Uiso  ? Al
   Al4        1.0     0.230434     0.205765     0.640815    Uiso  ? Al
   Al5        1.0     0.774031     0.087172     0.378499    Uiso  ? Al
   Al6        1.0     0.891482     0.201142     0.140290    Uiso  ? Al
   Al7        1.0     0.452157     0.082446     0.867834    Uiso  ? Al
   Al8        1.0     0.549279     0.209023     0.637963    Uiso  ? Al
   Al9        1.0     0.120577     0.424933     0.377717    Uiso  ? Al
   Al10       1.0     0.217033     0.552233     0.133763    Uiso  ? Al
   Al11       1.0     0.443700     0.430537     0.384605    Uiso  ? Al
   Al12       1.0     0.551316     0.545451     0.129046    Uiso  ? Al
   Al13       1.0     0.112078     0.439768     0.878130    Uiso  ? Al
   Al14       1.0     0.227110     0.539965     0.629807    Uiso  ? Al
   Al15       1.0     0.769158     0.432036     0.361006    Uiso  ? Al
   Al16       1.0     0.886585     0.544177     0.137140    Uiso  ? Al
   Al17       1.0     0.437334     0.439663     0.874063    Uiso  ? Al
   Al18       1.0     0.543374     0.545299     0.634409    Uiso  ? Al
   Al19       1.0     0.110335     0.764052     0.380149    Uiso  ? Al
   Al20       1.0     0.222041     0.865084     0.129204    Uiso  ? Al
   Al21       1.0     0.774472     0.765415     0.884919    Uiso  ? Al
   Al22       1.0     0.886798     0.871618     0.634843    Uiso  ? Al
   Al23       1.0     0.441636     0.758488     0.379916    Uiso  ? Al
   Al24       1.0     0.559383     0.861043     0.131232    Uiso  ? Al
   Al25       1.0     0.232281     0.862921     0.635035    Uiso  ? Al
   Al26       1.0     0.776053     0.769013     0.373790    Uiso  ? Al
   Al27       1.0     0.897694     0.865328     0.129095    Uiso  ? Al
   Al28       1.0     0.444920     0.760830     0.880328    Uiso  ? Al
   Hf1        1.0     0.218089     0.205183     0.106143    Uiso  ? Hf
   Hf2        1.0     0.887302     0.201722     0.611970    Uiso  ? Hf
   Hf3        1.0     0.557688     0.207489     0.111354    Uiso  ? Hf
   Hf4        1.0     0.888562     0.543586     0.616237    Uiso  ? Hf
   Mg1        1.0     0.108733     0.087136     0.870987    Uiso  ? Mg
   Mg2        1.0     0.775948     0.428844     0.886471    Uiso  ? Mg
   Mg3        1.0     0.111948     0.761628     0.874296    Uiso  ? Mg
   Mg4        1.0     0.550884     0.870522     0.625139    Uiso  ? Mg
   N1         1.0     0.226847     0.204587     0.325010    Uiso  ? N
   N2         1.0     0.101641     0.084872     0.089314    Uiso  ? N
   N3         1.0     0.877746     0.201137     0.819106    Uiso  ? N
   N4         1.0     0.762538     0.086618     0.572894    Uiso  ? N
   N5         1.0     0.553077     0.206297     0.327529    Uiso  ? N
   N6         1.0     0.457030     0.072187     0.068839    Uiso  ? N
   N7         1.0     0.227194     0.215028     0.843132    Uiso  ? N
   N8         1.0     0.133022     0.087949     0.575474    Uiso  ? N
   N9         1.0     0.890523     0.199091     0.342590    Uiso  ? N
   N10        1.0     0.796128     0.085323     0.077224    Uiso  ? N
   N11        1.0     0.555999     0.207022     0.842205    Uiso  ? N
   N12        1.0     0.438744     0.109103     0.583899    Uiso  ? N
   N13        1.0     0.224777     0.538946     0.330261    Uiso  ? N
   N14        1.0     0.101227     0.450215     0.078666    Uiso  ? N
   N15        1.0     0.895768     0.547981     0.828927    Uiso  ? N
   N16        1.0     0.754615     0.440035     0.562800    Uiso  ? N
   N17        1.0     0.548903     0.539147     0.322760    Uiso  ? N
   N18        1.0     0.431959     0.448266     0.072962    Uiso  ? N
   N19        1.0     0.229111     0.527619     0.820217    Uiso  ? N
   N20        1.0     0.129585     0.418719     0.572746    Uiso  ? N
   N21        1.0     0.893085     0.538647     0.337487    Uiso  ? N
   N22        1.0     0.780746     0.425084     0.105561    Uiso  ? N
   N23        1.0     0.545393     0.544772     0.827708    Uiso  ? N
   N24        1.0     0.446794     0.425192     0.579310    Uiso  ? N
   N25        1.0     0.223394     0.870296     0.326398    Uiso  ? N
   N26        1.0     0.110699     0.761974     0.088014    Uiso  ? N
   N27        1.0     0.872063     0.878828     0.827228    Uiso  ? N
   N28        1.0     0.782429     0.772968     0.565192    Uiso  ? N
   N29        1.0     0.552994     0.874011     0.329388    Uiso  ? N
   N30        1.0     0.444010     0.761139     0.080808    Uiso  ? N
   N31        1.0     0.239309     0.863089     0.823432    Uiso  ? N
   N32        1.0     0.107208     0.764930     0.577937    Uiso  ? N
   N33        1.0     0.889231     0.873312     0.323916    Uiso  ? N
   N34        1.0     0.778772     0.760236     0.085344    Uiso  ? N
   N35        1.0     0.560144     0.864514     0.837085    Uiso  ? N
   N36        1.0     0.437979     0.750571     0.569183    Uiso  ? N
