
#======================================================================
# CRYSTAL DATA
#----------------------------------------------------------------------
data_VESTA_phase_1

_chemical_name_common                  'Al   Hf   Mg   N                      '
_cell_length_a                         10.220401
_cell_length_b                         10.201232
_cell_length_c                         8.595093
_cell_angle_alpha                      90.025528
_cell_angle_beta                       90.008362
_cell_angle_gamma                      59.835281
_cell_volume                           774.780109
_space_group_name_H-M_alt              'P 1'
_space_group_IT_number                 1

loop_
_space_group_symop_operation_xyz
   'x, y, z'

loop_
   _atom_site_label
   _atom_site_occupancy
   _atom_site_fract_x
   _atom_site_fract_y
   _atom_site_fract_z
   _atom_site_adp_type
   _atom_site_U_iso_or_equiv
   _atom_site_type_symbol
   Al1        1.0     0.116531     0.083718     0.354509    Uiso  ? Al
   Al2        1.0     0.776883     0.088503     0.856111    Uiso  ? Al
   Al3        1.0     0.448085     0.087421     0.375015    Uiso  ? Al
   Al4        1.0     0.227273     0.205957     0.606501    Uiso  ? Al
   Al5        1.0     0.781081     0.086604     0.355051    Uiso  ? Al
   Al6        1.0     0.889765     0.202763     0.099488    Uiso  ? Al
   Al7        1.0     0.449424     0.087571     0.838418    Uiso  ? Al
   Al8        1.0     0.551254     0.208657     0.605015    Uiso  ? Al
   Al9        1.0     0.117031     0.431835     0.355188    Uiso  ? Al
   Al10       1.0     0.218866     0.550067     0.105433    Uiso  ? Al
   Al11       1.0     0.441515     0.435836     0.365309    Uiso  ? Al
   Al12       1.0     0.550730     0.544940     0.104485    Uiso  ? Al
   Al13       1.0     0.117171     0.432888     0.855818    Uiso  ? Al
   Al14       1.0     0.224444     0.543662     0.608946    Uiso  ? Al
   Al15       1.0     0.770331     0.430100     0.341483    Uiso  ? Al
   Al16       1.0     0.887838     0.542766     0.106426    Uiso  ? Al
   Al17       1.0     0.439473     0.434193     0.850945    Uiso  ? Al
   Al18       1.0     0.545383     0.544313     0.618439    Uiso  ? Al
   Al19       1.0     0.111548     0.764572     0.354835    Uiso  ? Al
   Al20       1.0     0.224098     0.865204     0.098606    Uiso  ? Al
   Al21       1.0     0.773351     0.768069     0.869108    Uiso  ? Al
   Al22       1.0     0.891249     0.869470     0.612301    Uiso  ? Al
   Al23       1.0     0.441678     0.759841     0.359496    Uiso  ? Al
   Al24       1.0     0.557278     0.863246     0.108110    Uiso  ? Al
   Al25       1.0     0.228277     0.863984     0.620235    Uiso  ? Al
   Al26       1.0     0.774627     0.769169     0.350715    Uiso  ? Al
   Al27       1.0     0.895433     0.866535     0.106396    Uiso  ? Al
   Al28       1.0     0.444898     0.760870     0.861453    Uiso  ? Al
   Hf1        1.0     0.220498     0.204789     0.101988    Uiso  ? Hf
   Hf2        1.0     0.887756     0.203055     0.606981    Uiso  ? Hf
   Hf3        1.0     0.554930     0.207823     0.104606    Uiso  ? Hf
   Hf4        1.0     0.888647     0.543178     0.603899    Uiso  ? Hf
   Mg1        1.0     0.115739     0.088010     0.852801    Uiso  ? Mg
   Mg2        1.0     0.771575     0.432032     0.867538    Uiso  ? Mg
   Mg3        1.0     0.109697     0.761975     0.855822    Uiso  ? Mg
   Mg4        1.0     0.554002     0.866890     0.605078    Uiso  ? Mg
   N1         1.0     0.226091     0.205520     0.356642    Uiso  ? N
   N2         1.0     0.104984     0.087913     0.111225    Uiso  ? N
   N3         1.0     0.881278     0.197552     0.856640    Uiso  ? N
   N4         1.0     0.769240     0.086568     0.596262    Uiso  ? N
   N5         1.0     0.553959     0.206230     0.358197    Uiso  ? N
   N6         1.0     0.453170     0.078367     0.096079    Uiso  ? N
   N7         1.0     0.227802     0.214132     0.847310    Uiso  ? N
   N8         1.0     0.126366     0.087745     0.591992    Uiso  ? N
   N9         1.0     0.887717     0.202296     0.348299    Uiso  ? N
   N10        1.0     0.788676     0.087052     0.104608    Uiso  ? N
   N11        1.0     0.556012     0.206352     0.846582    Uiso  ? N
   N12        1.0     0.441417     0.103847     0.603868    Uiso  ? N
   N13        1.0     0.224906     0.540244     0.352377    Uiso  ? N
   N14        1.0     0.107296     0.443098     0.105456    Uiso  ? N
   N15        1.0     0.897256     0.546344     0.858100    Uiso  ? N
   N16        1.0     0.758550     0.437701     0.591252    Uiso  ? N
   N17        1.0     0.552836     0.538172     0.340676    Uiso  ? N
   N18        1.0     0.434694     0.442416     0.098599    Uiso  ? N
   N19        1.0     0.228639     0.529360     0.846817    Uiso  ? N
   N20        1.0     0.125456     0.423745     0.595142    Uiso  ? N
   N21        1.0     0.891574     0.537801     0.345391    Uiso  ? N
   N22        1.0     0.779498     0.427040     0.111524    Uiso  ? N
   N23        1.0     0.542289     0.544849     0.853118    Uiso  ? N
   N24        1.0     0.445399     0.428051     0.599848    Uiso  ? N
   N25        1.0     0.224275     0.869474     0.343259    Uiso  ? N
   N26        1.0     0.109926     0.761894     0.109797    Uiso  ? N
   N27        1.0     0.874248     0.878116     0.852560    Uiso  ? N
   N28        1.0     0.782598     0.770351     0.589851    Uiso  ? N
   N29        1.0     0.554171     0.872300     0.343728    Uiso  ? N
   N30        1.0     0.445193     0.760410     0.101992    Uiso  ? N
   N31        1.0     0.236027     0.864045     0.853387    Uiso  ? N
   N32        1.0     0.108406     0.764849     0.592688    Uiso  ? N
   N33        1.0     0.889030     0.872471     0.344354    Uiso  ? N
   N34        1.0     0.778178     0.761116     0.105334    Uiso  ? N
   N35        1.0     0.557621     0.868329     0.859168    Uiso  ? N
   N36        1.0     0.438360     0.752513     0.592988    Uiso  ? N
