
#======================================================================
# CRYSTAL DATA
#----------------------------------------------------------------------
data_VESTA_phase_1

_chemical_name_common                  'Al   Hf   Mg   N                      '
_cell_length_a                         9.825529
_cell_length_b                         9.798324
_cell_length_c                         9.763161
_cell_angle_alpha                      90.037170
_cell_angle_beta                       89.988579
_cell_angle_gamma                      59.810642
_cell_volume                           812.450261
_space_group_name_H-M_alt              'P 1'
_space_group_IT_number                 1

loop_
_space_group_symop_operation_xyz
   'x, y, z'

loop_
   _atom_site_label
   _atom_site_occupancy
   _atom_site_fract_x
   _atom_site_fract_y
   _atom_site_fract_z
   _atom_site_adp_type
   _atom_site_U_iso_or_equiv
   _atom_site_type_symbol
   Al1        1.0     0.107824     0.089081     0.334772    Uiso  ? Al
   Al2        1.0     0.772304     0.085951     0.826516    Uiso  ? Al
   Al3        1.0     0.452772     0.082360     0.337696    Uiso  ? Al
   Al4        1.0     0.230999     0.204486     0.567753    Uiso  ? Al
   Al5        1.0     0.784419     0.090822     0.330677    Uiso  ? Al
   Al6        1.0     0.891894     0.197692     0.061794    Uiso  ? Al
   Al7        1.0     0.444834     0.094653     0.817941    Uiso  ? Al
   Al8        1.0     0.548622     0.208888     0.571091    Uiso  ? Al
   Al9        1.0     0.108085     0.438737     0.328806    Uiso  ? Al
   Al10       1.0     0.218485     0.549950     0.071574    Uiso  ? Al
   Al11       1.0     0.439807     0.436781     0.332479    Uiso  ? Al
   Al12       1.0     0.547566     0.547882     0.075728    Uiso  ? Al
   Al13       1.0     0.124839     0.426067     0.828226    Uiso  ? Al
   Al14       1.0     0.225394     0.544119     0.577612    Uiso  ? Al
   Al15       1.0     0.777003     0.427119     0.320346    Uiso  ? Al
   Al16       1.0     0.888353     0.545134     0.067239    Uiso  ? Al
   Al17       1.0     0.441857     0.432600     0.822381    Uiso  ? Al
   Al18       1.0     0.545327     0.543834     0.573940    Uiso  ? Al
   Al19       1.0     0.111506     0.761537     0.329640    Uiso  ? Al
   Al20       1.0     0.225109     0.863883     0.074325    Uiso  ? Al
   Al21       1.0     0.775708     0.770576     0.832036    Uiso  ? Al
   Al22       1.0     0.890319     0.869584     0.571966    Uiso  ? Al
   Al23       1.0     0.446439     0.761717     0.327711    Uiso  ? Al
   Al24       1.0     0.558936     0.860479     0.073320    Uiso  ? Al
   Al25       1.0     0.227299     0.865091     0.574741    Uiso  ? Al
   Al26       1.0     0.773496     0.762834     0.322327    Uiso  ? Al
   Al27       1.0     0.893780     0.866887     0.077844    Uiso  ? Al
   Al28       1.0     0.439284     0.757392     0.825106    Uiso  ? Al
   Hf1        1.0     0.218764     0.205709     0.094512    Uiso  ? Hf
   Hf2        1.0     0.888838     0.201880     0.604441    Uiso  ? Hf
   Hf3        1.0     0.558487     0.207499     0.088942    Uiso  ? Hf
   Hf4        1.0     0.889076     0.542754     0.596269    Uiso  ? Hf
   Mg1        1.0     0.126237     0.085242     0.829943    Uiso  ? Mg
   Mg2        1.0     0.767591     0.433860     0.847615    Uiso  ? Mg
   Mg3        1.0     0.109036     0.765044     0.828673    Uiso  ? Mg
   Mg4        1.0     0.550289     0.871916     0.584757    Uiso  ? Mg
   N1         1.0     0.221961     0.208242     0.363624    Uiso  ? N
   N2         1.0     0.100303     0.085176     0.134098    Uiso  ? N
   N3         1.0     0.884161     0.191886     0.863805    Uiso  ? N
   N4         1.0     0.763401     0.085269     0.626855    Uiso  ? N
   N5         1.0     0.556554     0.206587     0.368083    Uiso  ? N
   N6         1.0     0.457410     0.073332     0.139299    Uiso  ? N
   N7         1.0     0.233784     0.212059     0.884495    Uiso  ? N
   N8         1.0     0.132469     0.088229     0.612632    Uiso  ? N
   N9         1.0     0.886198     0.207418     0.381882    Uiso  ? N
   N10        1.0     0.795284     0.086574     0.135094    Uiso  ? N
   N11        1.0     0.553465     0.206526     0.875335    Uiso  ? N
   N12        1.0     0.438457     0.109350     0.623028    Uiso  ? N
   N13        1.0     0.221865     0.540202     0.381709    Uiso  ? N
   N14        1.0     0.101256     0.449490     0.133464    Uiso  ? N
   N15        1.0     0.901525     0.544907     0.869081    Uiso  ? N
   N16        1.0     0.755407     0.439969     0.630570    Uiso  ? N
   N17        1.0     0.557681     0.538082     0.376525    Uiso  ? N
   N18        1.0     0.432964     0.446791     0.137884    Uiso  ? N
   N19        1.0     0.232361     0.526538     0.880952    Uiso  ? N
   N20        1.0     0.132056     0.418880     0.628563    Uiso  ? N
   N21        1.0     0.887614     0.539170     0.376936    Uiso  ? N
   N22        1.0     0.781102     0.424946     0.118720    Uiso  ? N
   N23        1.0     0.536803     0.545164     0.886189    Uiso  ? N
   N24        1.0     0.445344     0.426882     0.623413    Uiso  ? N
   N25        1.0     0.224678     0.869388     0.376875    Uiso  ? N
   N26        1.0     0.110045     0.761525     0.132258    Uiso  ? N
   N27        1.0     0.872991     0.880716     0.888481    Uiso  ? N
   N28        1.0     0.782009     0.774289     0.637692    Uiso  ? N
   N29        1.0     0.559218     0.866143     0.373450    Uiso  ? N
   N30        1.0     0.445062     0.761434     0.133349    Uiso  ? N
   N31        1.0     0.236565     0.863966     0.887736    Uiso  ? N
   N32        1.0     0.107157     0.765631     0.614042    Uiso  ? N
   N33        1.0     0.886718     0.870987     0.375264    Uiso  ? N
   N34        1.0     0.777602     0.759224     0.126277    Uiso  ? N
   N35        1.0     0.553505     0.872251     0.875635    Uiso  ? N
   N36        1.0     0.435934     0.751509     0.630672    Uiso  ? N
