
#======================================================================
# CRYSTAL DATA
#----------------------------------------------------------------------
data_VESTA_phase_1

_chemical_name_common                  'Al   Hf   Mg   N                      '
_cell_length_a                         9.693181
_cell_length_b                         9.674865
_cell_length_c                         10.124113
_cell_angle_alpha                      90.056076
_cell_angle_beta                       90.025635
_cell_angle_gamma                      59.801182
_cell_volume                           820.587829
_space_group_name_H-M_alt              'P 1'
_space_group_IT_number                 1

loop_
_space_group_symop_operation_xyz
   'x, y, z'

loop_
   _atom_site_label
   _atom_site_occupancy
   _atom_site_fract_x
   _atom_site_fract_y
   _atom_site_fract_z
   _atom_site_adp_type
   _atom_site_U_iso_or_equiv
   _atom_site_type_symbol
   Al1        1.0     0.111303     0.088727     0.321014    Uiso  ? Al
   Al2        1.0     0.776801     0.086913     0.817804    Uiso  ? Al
   Al3        1.0     0.450730     0.085952     0.325020    Uiso  ? Al
   Al4        1.0     0.231154     0.203770     0.561813    Uiso  ? Al
   Al5        1.0     0.780503     0.090260     0.319016    Uiso  ? Al
   Al6        1.0     0.890383     0.199423     0.057570    Uiso  ? Al
   Al7        1.0     0.444927     0.093057     0.808449    Uiso  ? Al
   Al8        1.0     0.548314     0.208020     0.566198    Uiso  ? Al
   Al9        1.0     0.111502     0.433980     0.316667    Uiso  ? Al
   Al10       1.0     0.219193     0.548935     0.063259    Uiso  ? Al
   Al11       1.0     0.441799     0.433674     0.322153    Uiso  ? Al
   Al12       1.0     0.549935     0.547033     0.064827    Uiso  ? Al
   Al13       1.0     0.120238     0.429530     0.819393    Uiso  ? Al
   Al14       1.0     0.225621     0.543520     0.566519    Uiso  ? Al
   Al15       1.0     0.774444     0.429360     0.309017    Uiso  ? Al
   Al16       1.0     0.887060     0.545284     0.060989    Uiso  ? Al
   Al17       1.0     0.441318     0.433891     0.813188    Uiso  ? Al
   Al18       1.0     0.543958     0.545414     0.565814    Uiso  ? Al
   Al19       1.0     0.111465     0.760914     0.318800    Uiso  ? Al
   Al20       1.0     0.224862     0.863920     0.066029    Uiso  ? Al
   Al21       1.0     0.777508     0.767418     0.823448    Uiso  ? Al
   Al22       1.0     0.890635     0.869351     0.564412    Uiso  ? Al
   Al23       1.0     0.446674     0.761509     0.316040    Uiso  ? Al
   Al24       1.0     0.559618     0.861083     0.063424    Uiso  ? Al
   Al25       1.0     0.228026     0.864470     0.563923    Uiso  ? Al
   Al26       1.0     0.773189     0.765209     0.310795    Uiso  ? Al
   Al27       1.0     0.893878     0.866883     0.066526    Uiso  ? Al
   Al28       1.0     0.439214     0.758543     0.818587    Uiso  ? Al
   Hf1        1.0     0.218406     0.204736     0.074625    Uiso  ? Hf
   Hf2        1.0     0.888252     0.201865     0.579022    Uiso  ? Hf
   Hf3        1.0     0.559011     0.208102     0.068755    Uiso  ? Hf
   Hf4        1.0     0.888752     0.544213     0.574994    Uiso  ? Hf
   Mg1        1.0     0.119514     0.085995     0.818017    Uiso  ? Mg
   Mg2        1.0     0.771167     0.431963     0.832329    Uiso  ? Mg
   Mg3        1.0     0.110883     0.764143     0.818827    Uiso  ? Mg
   Mg4        1.0     0.549609     0.873076     0.571868    Uiso  ? Mg
   N1         1.0     0.222309     0.207312     0.364089    Uiso  ? N
   N2         1.0     0.101328     0.084932     0.130746    Uiso  ? N
   N3         1.0     0.882467     0.193889     0.870961    Uiso  ? N
   N4         1.0     0.766070     0.085087     0.625021    Uiso  ? N
   N5         1.0     0.556065     0.206274     0.369743    Uiso  ? N
   N6         1.0     0.456110     0.077147     0.132828    Uiso  ? N
   N7         1.0     0.231411     0.212004     0.874072    Uiso  ? N
   N8         1.0     0.130154     0.087672     0.609210    Uiso  ? N
   N9         1.0     0.886389     0.207006     0.370016    Uiso  ? N
   N10        1.0     0.792851     0.086005     0.131330    Uiso  ? N
   N11        1.0     0.553959     0.206228     0.864445    Uiso  ? N
   N12        1.0     0.438283     0.108214     0.622157    Uiso  ? N
   N13        1.0     0.222281     0.538889     0.375956    Uiso  ? N
   N14        1.0     0.103571     0.445854     0.128613    Uiso  ? N
   N15        1.0     0.900567     0.545391     0.872114    Uiso  ? N
   N16        1.0     0.757981     0.439254     0.623788    Uiso  ? N
   N17        1.0     0.556480     0.539001     0.373583    Uiso  ? N
   N18        1.0     0.435652     0.444605     0.133206    Uiso  ? N
   N19        1.0     0.232648     0.525505     0.879182    Uiso  ? N
   N20        1.0     0.129121     0.421069     0.625683    Uiso  ? N
   N21        1.0     0.887955     0.539766     0.365821    Uiso  ? N
   N22        1.0     0.779244     0.426441     0.117441    Uiso  ? N
   N23        1.0     0.538895     0.544426     0.881510    Uiso  ? N
   N24        1.0     0.444647     0.427853     0.620521    Uiso  ? N
   N25        1.0     0.225166     0.869001     0.371767    Uiso  ? N
   N26        1.0     0.110031     0.760978     0.128118    Uiso  ? N
   N27        1.0     0.873451     0.880477     0.883625    Uiso  ? N
   N28        1.0     0.782734     0.772620     0.635007    Uiso  ? N
   N29        1.0     0.558258     0.868069     0.366585    Uiso  ? N
   N30        1.0     0.445915     0.761127     0.127853    Uiso  ? N
   N31        1.0     0.236257     0.865387     0.886396    Uiso  ? N
   N32        1.0     0.108462     0.764546     0.609837    Uiso  ? N
   N33        1.0     0.887086     0.870990     0.372704    Uiso  ? N
   N34        1.0     0.777625     0.761042     0.122160    Uiso  ? N
   N35        1.0     0.554230     0.872131     0.872873    Uiso  ? N
   N36        1.0     0.435625     0.752783     0.629274    Uiso  ? N
