
#======================================================================
# CRYSTAL DATA
#----------------------------------------------------------------------
data_VESTA_phase_1

_chemical_name_common                  'Al   Hf   Mg   N                      '
_cell_length_a                         10.100641
_cell_length_b                         10.079315
_cell_length_c                         8.939035
_cell_angle_alpha                      90.018913
_cell_angle_beta                       90.017853
_cell_angle_gamma                      59.849831
_cell_volume                           786.940803
_space_group_name_H-M_alt              'P 1'
_space_group_IT_number                 1

loop_
_space_group_symop_operation_xyz
   'x, y, z'

loop_
   _atom_site_label
   _atom_site_occupancy
   _atom_site_fract_x
   _atom_site_fract_y
   _atom_site_fract_z
   _atom_site_adp_type
   _atom_site_U_iso_or_equiv
   _atom_site_type_symbol
   Al1        1.0     0.119148     0.084426     0.359173    Uiso  ? Al
   Al2        1.0     0.778939     0.089081     0.867928    Uiso  ? Al
   Al3        1.0     0.446150     0.090489     0.385739    Uiso  ? Al
   Al4        1.0     0.226578     0.207425     0.622335    Uiso  ? Al
   Al5        1.0     0.778237     0.086861     0.364403    Uiso  ? Al
   Al6        1.0     0.890362     0.202635     0.110569    Uiso  ? Al
   Al7        1.0     0.450913     0.085359     0.845129    Uiso  ? Al
   Al8        1.0     0.551608     0.209367     0.620335    Uiso  ? Al
   Al9        1.0     0.119578     0.427532     0.363551    Uiso  ? Al
   Al10       1.0     0.218767     0.550945     0.123311    Uiso  ? Al
   Al11       1.0     0.443627     0.433375     0.376194    Uiso  ? Al
   Al12       1.0     0.550400     0.544435     0.111911    Uiso  ? Al
   Al13       1.0     0.114006     0.437353     0.869184    Uiso  ? Al
   Al14       1.0     0.224856     0.542123     0.618056    Uiso  ? Al
   Al15       1.0     0.769735     0.429929     0.344152    Uiso  ? Al
   Al16       1.0     0.887752     0.542667     0.119699    Uiso  ? Al
   Al17       1.0     0.437225     0.436610     0.862059    Uiso  ? Al
   Al18       1.0     0.544477     0.545280     0.629728    Uiso  ? Al
   Al19       1.0     0.110668     0.766126     0.363552    Uiso  ? Al
   Al20       1.0     0.223113     0.865295     0.107685    Uiso  ? Al
   Al21       1.0     0.773510     0.766251     0.879197    Uiso  ? Al
   Al22       1.0     0.889248     0.870321     0.625679    Uiso  ? Al
   Al23       1.0     0.440555     0.758639     0.366735    Uiso  ? Al
   Al24       1.0     0.557310     0.863604     0.117601    Uiso  ? Al
   Al25       1.0     0.230145     0.863067     0.630932    Uiso  ? Al
   Al26       1.0     0.775460     0.770140     0.357539    Uiso  ? Al
   Al27       1.0     0.896692     0.866288     0.116001    Uiso  ? Al
   Al28       1.0     0.446159     0.761260     0.874114    Uiso  ? Al
   Hf1        1.0     0.221025     0.203952     0.100920    Uiso  ? Hf
   Hf2        1.0     0.887197     0.202910     0.607703    Uiso  ? Hf
   Hf3        1.0     0.554605     0.207544     0.105316    Uiso  ? Hf
   Hf4        1.0     0.888853     0.543617     0.604739    Uiso  ? Hf
   Mg1        1.0     0.113283     0.088752     0.857391    Uiso  ? Mg
   Mg2        1.0     0.773971     0.431804     0.873491    Uiso  ? Mg
   Mg3        1.0     0.110605     0.760207     0.863317    Uiso  ? Mg
   Mg4        1.0     0.554269     0.865381     0.610796    Uiso  ? Mg
   N1         1.0     0.228274     0.203573     0.343610    Uiso  ? N
   N2         1.0     0.104161     0.087481     0.104264    Uiso  ? N
   N3         1.0     0.880344     0.199263     0.844842    Uiso  ? N
   N4         1.0     0.767117     0.086327     0.585440    Uiso  ? N
   N5         1.0     0.552203     0.206136     0.346308    Uiso  ? N
   N6         1.0     0.454904     0.075486     0.078447    Uiso  ? N
   N7         1.0     0.225814     0.216539     0.846602    Uiso  ? N
   N8         1.0     0.129098     0.087076     0.587437    Uiso  ? N
   N9         1.0     0.888849     0.200715     0.346811    Uiso  ? N
   N10        1.0     0.790288     0.086832     0.093104    Uiso  ? N
   N11        1.0     0.556910     0.207123     0.845460    Uiso  ? N
   N12        1.0     0.440607     0.105352     0.602971    Uiso  ? N
   N13        1.0     0.225912     0.539648     0.342775    Uiso  ? N
   N14        1.0     0.105578     0.445650     0.095340    Uiso  ? N
   N15        1.0     0.896327     0.547856     0.846228    Uiso  ? N
   N16        1.0     0.755987     0.439041     0.580825    Uiso  ? N
   N17        1.0     0.551141     0.537565     0.329086    Uiso  ? N
   N18        1.0     0.432406     0.444175     0.084388    Uiso  ? N
   N19        1.0     0.228048     0.528653     0.832019    Uiso  ? N
   N20        1.0     0.127276     0.421554     0.582402    Uiso  ? N
   N21        1.0     0.892630     0.537151     0.343460    Uiso  ? N
   N22        1.0     0.780615     0.426257     0.110975    Uiso  ? N
   N23        1.0     0.543424     0.545342     0.846020    Uiso  ? N
   N24        1.0     0.446593     0.427344     0.592367    Uiso  ? N
   N25        1.0     0.224014     0.869718     0.331617    Uiso  ? N
   N26        1.0     0.110200     0.761269     0.101226    Uiso  ? N
   N27        1.0     0.872632     0.878119     0.843089    Uiso  ? N
   N28        1.0     0.783426     0.771613     0.575449    Uiso  ? N
   N29        1.0     0.552278     0.874822     0.339188    Uiso  ? N
   N30        1.0     0.445638     0.760658     0.093804    Uiso  ? N
   N31        1.0     0.237603     0.863309     0.845988    Uiso  ? N
   N32        1.0     0.107601     0.766049     0.587260    Uiso  ? N
   N33        1.0     0.889539     0.873464     0.332580    Uiso  ? N
   N34        1.0     0.778148     0.760552     0.100381    Uiso  ? N
   N35        1.0     0.559872     0.865052     0.849689    Uiso  ? N
   N36        1.0     0.437019     0.750953     0.581004    Uiso  ? N
