
#======================================================================
# CRYSTAL DATA
#----------------------------------------------------------------------
data_VESTA_phase_1

_chemical_name_common                  'Al   Hf   Mg   N                      '
_cell_length_a                         10.141849
_cell_length_b                         10.121066
_cell_length_c                         8.816556
_cell_angle_alpha                      90.021873
_cell_angle_beta                       90.017593
_cell_angle_gamma                      59.844891
_cell_volume                           782.513841
_space_group_name_H-M_alt              'P 1'
_space_group_IT_number                 1

loop_
_space_group_symop_operation_xyz
   'x, y, z'

loop_
   _atom_site_label
   _atom_site_occupancy
   _atom_site_fract_x
   _atom_site_fract_y
   _atom_site_fract_z
   _atom_site_adp_type
   _atom_site_U_iso_or_equiv
   _atom_site_type_symbol
   Al1        1.0     0.117999     0.084152     0.356775    Uiso  ? Al
   Al2        1.0     0.777950     0.089020     0.864627    Uiso  ? Al
   Al3        1.0     0.446759     0.089379     0.383253    Uiso  ? Al
   Al4        1.0     0.226596     0.207057     0.616696    Uiso  ? Al
   Al5        1.0     0.779469     0.086792     0.361096    Uiso  ? Al
   Al6        1.0     0.890144     0.202851     0.104074    Uiso  ? Al
   Al7        1.0     0.450369     0.086261     0.842673    Uiso  ? Al
   Al8        1.0     0.551638     0.209106     0.614962    Uiso  ? Al
   Al9        1.0     0.118662     0.428872     0.360754    Uiso  ? Al
   Al10       1.0     0.218947     0.550640     0.119336    Uiso  ? Al
   Al11       1.0     0.443145     0.434258     0.373714    Uiso  ? Al
   Al12       1.0     0.550584     0.544361     0.109114    Uiso  ? Al
   Al13       1.0     0.114975     0.436013     0.865867    Uiso  ? Al
   Al14       1.0     0.224555     0.542675     0.615713    Uiso  ? Al
   Al15       1.0     0.770088     0.429656     0.342450    Uiso  ? Al
   Al16       1.0     0.887734     0.542536     0.114811    Uiso  ? Al
   Al17       1.0     0.437766     0.435694     0.858971    Uiso  ? Al
   Al18       1.0     0.544653     0.545161     0.627485    Uiso  ? Al
   Al19       1.0     0.110843     0.765982     0.360268    Uiso  ? Al
   Al20       1.0     0.223365     0.865379     0.104340    Uiso  ? Al
   Al21       1.0     0.773446     0.766742     0.876968    Uiso  ? Al
   Al22       1.0     0.889941     0.869999     0.622510    Uiso  ? Al
   Al23       1.0     0.440803     0.758907     0.364148    Uiso  ? Al
   Al24       1.0     0.557234     0.863639     0.114312    Uiso  ? Al
   Al25       1.0     0.229590     0.863251     0.628470    Uiso  ? Al
   Al26       1.0     0.775246     0.769903     0.354942    Uiso  ? Al
   Al27       1.0     0.896304     0.866433     0.113176    Uiso  ? Al
   Al28       1.0     0.445898     0.761217     0.871429    Uiso  ? Al
   Hf1        1.0     0.221063     0.204067     0.101253    Uiso  ? Hf
   Hf2        1.0     0.887365     0.202951     0.607375    Uiso  ? Hf
   Hf3        1.0     0.554491     0.207691     0.105163    Uiso  ? Hf
   Hf4        1.0     0.888793     0.543562     0.604064    Uiso  ? Hf
   Mg1        1.0     0.114366     0.088671     0.855366    Uiso  ? Mg
   Mg2        1.0     0.773172     0.432172     0.871005    Uiso  ? Mg
   Mg3        1.0     0.110409     0.760450     0.861225    Uiso  ? Mg
   Mg4        1.0     0.554350     0.865461     0.608850    Uiso  ? Mg
   N1         1.0     0.227778     0.203894     0.348362    Uiso  ? N
   N2         1.0     0.104383     0.087853     0.106914    Uiso  ? N
   N3         1.0     0.880846     0.198694     0.850069    Uiso  ? N
   N4         1.0     0.768075     0.086275     0.588861    Uiso  ? N
   N5         1.0     0.552571     0.206183     0.350850    Uiso  ? N
   N6         1.0     0.454324     0.076470     0.082772    Uiso  ? N
   N7         1.0     0.226131     0.216121     0.846749    Uiso  ? N
   N8         1.0     0.128215     0.086991     0.589419    Uiso  ? N
   N9         1.0     0.888487     0.201305     0.347827    Uiso  ? N
   N10        1.0     0.789502     0.087084     0.096845    Uiso  ? N
   N11        1.0     0.556755     0.206920     0.845717    Uiso  ? N
   N12        1.0     0.440927     0.104685     0.604099    Uiso  ? N
   N13        1.0     0.225822     0.539808     0.345262    Uiso  ? N
   N14        1.0     0.106313     0.444695     0.098717    Uiso  ? N
   N15        1.0     0.896557     0.547543     0.850669    Uiso  ? N
   N16        1.0     0.756657     0.438695     0.584968    Uiso  ? N
   N17        1.0     0.551861     0.537461     0.331651    Uiso  ? N
   N18        1.0     0.433029     0.443441     0.087709    Uiso  ? N
   N19        1.0     0.228051     0.528957     0.835706    Uiso  ? N
   N20        1.0     0.126525     0.422421     0.585620    Uiso  ? N
   N21        1.0     0.892231     0.537117     0.343972    Uiso  ? N
   N22        1.0     0.780433     0.426377     0.110903    Uiso  ? N
   N23        1.0     0.542978     0.545330     0.848777    Uiso  ? N
   N24        1.0     0.446278     0.427749     0.594918    Uiso  ? N
   N25        1.0     0.224101     0.869677     0.334244    Uiso  ? N
   N26        1.0     0.110107     0.761422     0.104186    Uiso  ? N
   N27        1.0     0.873115     0.878016     0.846165    Uiso  ? N
   N28        1.0     0.783291     0.771210     0.579029    Uiso  ? N
   N29        1.0     0.552658     0.874321     0.340607    Uiso  ? N
   N30        1.0     0.445660     0.760532     0.096383    Uiso  ? N
   N31        1.0     0.237108     0.863527     0.849174    Uiso  ? N
   N32        1.0     0.107832     0.765850     0.589030    Uiso  ? N
   N33        1.0     0.889451     0.873224     0.335439    Uiso  ? N
   N34        1.0     0.778117     0.760730     0.102457    Uiso  ? N
   N35        1.0     0.559338     0.865874     0.853009    Uiso  ? N
   N36        1.0     0.437279     0.751351     0.584131    Uiso  ? N
