
#======================================================================
# CRYSTAL DATA
#----------------------------------------------------------------------
data_VESTA_phase_1

_chemical_name_common                  'Al   Hf   Mg   N '
_cell_length_a                         9.687306
_cell_length_b                         9.669761
_cell_length_c                         10.127953
_cell_angle_alpha                      90.055161
_cell_angle_beta                       90.027206
_cell_angle_gamma                      59.806835
_cell_volume                           820.015803
_space_group_name_H-M_alt              'P 1'
_space_group_IT_number                 1

loop_
_space_group_symop_operation_xyz
   'x, y, z'

loop_
   _atom_site_label
   _atom_site_occupancy
   _atom_site_fract_x
   _atom_site_fract_y
   _atom_site_fract_z
   _atom_site_adp_type
   _atom_site_U_iso_or_equiv
   _atom_site_type_symbol
   Al1        1.0     0.111344     0.088744     0.300141    Uiso  ? Al
   Al2        1.0     0.776863     0.086938     0.796978    Uiso  ? Al
   Al3        1.0     0.450671     0.086053     0.304192    Uiso  ? Al
   Al4        1.0     0.231092     0.203776     0.541043    Uiso  ? Al
   Al5        1.0     0.780422     0.090272     0.298153    Uiso  ? Al
   Al6        1.0     0.890321     0.199485     0.036907    Uiso  ? Al
   Al7        1.0     0.444901     0.092997     0.787573    Uiso  ? Al
   Al8        1.0     0.548307     0.208014     0.545438    Uiso  ? Al
   Al9        1.0     0.111552     0.433903     0.295814    Uiso  ? Al
   Al10       1.0     0.219226     0.548899     0.042458    Uiso  ? Al
   Al11       1.0     0.441851     0.433628     0.301339    Uiso  ? Al
   Al12       1.0     0.549973     0.547038     0.044000    Uiso  ? Al
   Al13       1.0     0.120164     0.429546     0.798566    Uiso  ? Al
   Al14       1.0     0.225625     0.543506     0.545673    Uiso  ? Al
   Al15       1.0     0.774403     0.429465     0.288142    Uiso  ? Al
   Al16       1.0     0.887056     0.545280     0.040211    Uiso  ? Al
   Al17       1.0     0.441338     0.433889     0.792337    Uiso  ? Al
   Al18       1.0     0.543928     0.545490     0.544994    Uiso  ? Al
   Al19       1.0     0.111471     0.760912     0.297969    Uiso  ? Al
   Al20       1.0     0.224840     0.863927     0.045201    Uiso  ? Al
   Al21       1.0     0.777498     0.767378     0.802653    Uiso  ? Al
   Al22       1.0     0.890625     0.869363     0.543620    Uiso  ? Al
   Al23       1.0     0.446639     0.761545     0.295198    Uiso  ? Al
   Al24       1.0     0.559613     0.861117     0.042636    Uiso  ? Al
   Al25       1.0     0.227981     0.864496     0.543127    Uiso  ? Al
   Al26       1.0     0.773216     0.765241     0.289935    Uiso  ? Al
   Al27       1.0     0.893883     0.866891     0.045678    Uiso  ? Al
   Al28       1.0     0.439203     0.758587     0.797811    Uiso  ? Al
   Hf1        1.0     0.218380     0.204711     0.053595    Uiso  ? Hf
   Hf2        1.0     0.888164     0.201950     0.557863    Uiso  ? Hf
   Hf3        1.0     0.559006     0.208138     0.047714    Uiso  ? Hf
   Hf4        1.0     0.888725     0.544287     0.554011    Uiso  ? Hf
   Mg1        1.0     0.119272     0.086047     0.797156    Uiso  ? Mg
   Mg2        1.0     0.771222     0.431934     0.811450    Uiso  ? Mg
   Mg3        1.0     0.110890     0.764076     0.798009    Uiso  ? Mg
   Mg4        1.0     0.549590     0.873093     0.550935    Uiso  ? Mg
   N1         1.0     0.222277     0.207323     0.343443    Uiso  ? N
   N2         1.0     0.101342     0.084902     0.110029    Uiso  ? N
   N3         1.0     0.882363     0.193980     0.850484    Uiso  ? N
   N4         1.0     0.766118     0.085089     0.604296    Uiso  ? N
   N5         1.0     0.556062     0.206295     0.349105    Uiso  ? N
   N6         1.0     0.456067     0.077231     0.112072    Uiso  ? N
   N7         1.0     0.231333     0.211961     0.853155    Uiso  ? N
   N8         1.0     0.130018     0.087695     0.588484    Uiso  ? N
   N9         1.0     0.886359     0.207069     0.349053    Uiso  ? N
   N10        1.0     0.792785     0.085982     0.110602    Uiso  ? N
   N11        1.0     0.553937     0.206210     0.843506    Uiso  ? N
   N12        1.0     0.438268     0.108159     0.601400    Uiso  ? N
   N13        1.0     0.222290     0.538880     0.355188    Uiso  ? N
   N14        1.0     0.103621     0.445773     0.107857    Uiso  ? N
   N15        1.0     0.900546     0.545394     0.851462    Uiso  ? N
   N16        1.0     0.757990     0.439285     0.603042    Uiso  ? N
   N17        1.0     0.556472     0.539059     0.352845    Uiso  ? N
   N18        1.0     0.435712     0.444565     0.112471    Uiso  ? N
   N19        1.0     0.232673     0.525452     0.858469    Uiso  ? N
   N20        1.0     0.129081     0.421090     0.604954    Uiso  ? N
   N21        1.0     0.887967     0.539804     0.344961    Uiso  ? N
   N22        1.0     0.779215     0.426497     0.096731    Uiso  ? N
   N23        1.0     0.538921     0.544436     0.860764    Uiso  ? N
   N24        1.0     0.444651     0.427873     0.599761    Uiso  ? N
   N25        1.0     0.225146     0.869029     0.351045    Uiso  ? N
   N26        1.0     0.110039     0.760957     0.107379    Uiso  ? N
   N27        1.0     0.873464     0.880478     0.862866    Uiso  ? N
   N28        1.0     0.782674     0.772648     0.614296    Uiso  ? N
   N29        1.0     0.558256     0.868115     0.345766    Uiso  ? N
   N30        1.0     0.445887     0.761151     0.107095    Uiso  ? N
   N31        1.0     0.236194     0.865434     0.865657    Uiso  ? N
   N32        1.0     0.108467     0.764499     0.589114    Uiso  ? N
   N33        1.0     0.887102     0.871009     0.351981    Uiso  ? N
   N34        1.0     0.777638     0.761064     0.101405    Uiso  ? N
   N35        1.0     0.554210     0.872147     0.852177    Uiso  ? N
   N36        1.0     0.435603     0.752851     0.608563    Uiso  ? N
