
#======================================================================
# CRYSTAL DATA
#----------------------------------------------------------------------
data_VESTA_phase_1

_chemical_name_common                  'Al   Hf   Mg   N                      '
_cell_length_a                         9.924740
_cell_length_b                         9.896994
_cell_length_c                         9.478122
_cell_angle_alpha                      90.029137
_cell_angle_beta                       89.988045
_cell_angle_gamma                      59.813736
_cell_volume                           804.742650
_space_group_name_H-M_alt              'P 1'
_space_group_IT_number                 1

loop_
_space_group_symop_operation_xyz
   'x, y, z'

loop_
   _atom_site_label
   _atom_site_occupancy
   _atom_site_fract_x
   _atom_site_fract_y
   _atom_site_fract_z
   _atom_site_adp_type
   _atom_site_U_iso_or_equiv
   _atom_site_type_symbol
   Al1        1.0     0.108097     0.088486     0.340271    Uiso  ? Al
   Al2        1.0     0.771340     0.086068     0.828573    Uiso  ? Al
   Al3        1.0     0.452763     0.082076     0.345013    Uiso  ? Al
   Al4        1.0     0.229581     0.205377     0.570143    Uiso  ? Al
   Al5        1.0     0.785266     0.090471     0.334440    Uiso  ? Al
   Al6        1.0     0.891937     0.197565     0.065650    Uiso  ? Al
   Al7        1.0     0.445293     0.094352     0.818440    Uiso  ? Al
   Al8        1.0     0.549448     0.209355     0.572363    Uiso  ? Al
   Al9        1.0     0.107772     0.439817     0.332737    Uiso  ? Al
   Al10       1.0     0.218669     0.549939     0.073313    Uiso  ? Al
   Al11       1.0     0.439008     0.437774     0.336330    Uiso  ? Al
   Al12       1.0     0.546114     0.548467     0.079453    Uiso  ? Al
   Al13       1.0     0.125970     0.425029     0.830097    Uiso  ? Al
   Al14       1.0     0.225095     0.544133     0.581486    Uiso  ? Al
   Al15       1.0     0.777469     0.427152     0.322748    Uiso  ? Al
   Al16       1.0     0.889306     0.544575     0.070180    Uiso  ? Al
   Al17       1.0     0.442551     0.431982     0.823940    Uiso  ? Al
   Al18       1.0     0.546614     0.542952     0.575373    Uiso  ? Al
   Al19       1.0     0.112040     0.761740     0.334184    Uiso  ? Al
   Al20       1.0     0.225303     0.863785     0.074324    Uiso  ? Al
   Al21       1.0     0.774768     0.771732     0.835817    Uiso  ? Al
   Al22       1.0     0.890369     0.869255     0.573987    Uiso  ? Al
   Al23       1.0     0.445298     0.762172     0.332403    Uiso  ? Al
   Al24       1.0     0.557781     0.861130     0.078426    Uiso  ? Al
   Al25       1.0     0.226715     0.865364     0.580399    Uiso  ? Al
   Al26       1.0     0.773855     0.762175     0.324746    Uiso  ? Al
   Al27       1.0     0.894079     0.867241     0.081369    Uiso  ? Al
   Al28       1.0     0.440520     0.757006     0.825484    Uiso  ? Al
   Hf1        1.0     0.219361     0.205608     0.099416    Uiso  ? Hf
   Hf2        1.0     0.888347     0.202779     0.608893    Uiso  ? Hf
   Hf3        1.0     0.557888     0.207254     0.095562    Uiso  ? Hf
   Hf4        1.0     0.888832     0.542579     0.602632    Uiso  ? Hf
   Mg1        1.0     0.125550     0.086217     0.834405    Uiso  ? Mg
   Mg2        1.0     0.766928     0.433698     0.853935    Uiso  ? Mg
   Mg3        1.0     0.107992     0.764861     0.831736    Uiso  ? Mg
   Mg4        1.0     0.552016     0.870284     0.587953    Uiso  ? Mg
   N1         1.0     0.221369     0.208990     0.361078    Uiso  ? N
   N2         1.0     0.101501     0.084844     0.130259    Uiso  ? N
   N3         1.0     0.883550     0.191828     0.860835    Uiso  ? N
   N4         1.0     0.763878     0.085643     0.621995    Uiso  ? N
   N5         1.0     0.556931     0.206938     0.364161    Uiso  ? N
   N6         1.0     0.456797     0.073553     0.138173    Uiso  ? N
   N7         1.0     0.234609     0.211560     0.880775    Uiso  ? N
   N8         1.0     0.131021     0.089430     0.608721    Uiso  ? N
   N9         1.0     0.886228     0.207565     0.378592    Uiso  ? N
   N10        1.0     0.794861     0.086750     0.132522    Uiso  ? N
   N11        1.0     0.553162     0.206342     0.873002    Uiso  ? N
   N12        1.0     0.439068     0.108649     0.615461    Uiso  ? N
   N13        1.0     0.221862     0.540562     0.379940    Uiso  ? N
   N14        1.0     0.101960     0.449331     0.130533    Uiso  ? N
   N15        1.0     0.901955     0.544354     0.865102    Uiso  ? N
   N16        1.0     0.755729     0.439537     0.627530    Uiso  ? N
   N17        1.0     0.558186     0.537636     0.372451    Uiso  ? N
   N18        1.0     0.432309     0.446654     0.135296    Uiso  ? N
   N19        1.0     0.232474     0.526729     0.875885    Uiso  ? N
   N20        1.0     0.131632     0.418955     0.624249    Uiso  ? N
   N21        1.0     0.887640     0.539174     0.374786    Uiso  ? N
   N22        1.0     0.781456     0.425110     0.115299    Uiso  ? N
   N23        1.0     0.536398     0.545529     0.883367    Uiso  ? N
   N24        1.0     0.445882     0.426697     0.619131    Uiso  ? N
   N25        1.0     0.224205     0.869723     0.376096    Uiso  ? N
   N26        1.0     0.110606     0.761608     0.129330    Uiso  ? N
   N27        1.0     0.873180     0.880980     0.885572    Uiso  ? N
   N28        1.0     0.782037     0.774045     0.634464    Uiso  ? N
   N29        1.0     0.559777     0.865414     0.370016    Uiso  ? N
   N30        1.0     0.443603     0.761957     0.131522    Uiso  ? N
   N31        1.0     0.236532     0.863531     0.880509    Uiso  ? N
   N32        1.0     0.106685     0.765445     0.610732    Uiso  ? N
   N33        1.0     0.886608     0.870701     0.371541    Uiso  ? N
   N34        1.0     0.777714     0.758845     0.122512    Uiso  ? N
   N35        1.0     0.552899     0.872702     0.873031    Uiso  ? N
   N36        1.0     0.437250     0.751016     0.625088    Uiso  ? N
