
#======================================================================
# CRYSTAL DATA
#----------------------------------------------------------------------
data_VESTA_phase_1

_chemical_name_common                  'Al   Hf   Mg   N                      '
_cell_length_a                         10.246558
_cell_length_b                         10.229650
_cell_length_c                         8.528095
_cell_angle_alpha                      90.025421
_cell_angle_beta                       90.005508
_cell_angle_gamma                      59.827271
_cell_volume                           772.792490
_space_group_name_H-M_alt              'P 1'
_space_group_IT_number                 1

loop_
_space_group_symop_operation_xyz
   'x, y, z'

loop_
   _atom_site_label
   _atom_site_occupancy
   _atom_site_fract_x
   _atom_site_fract_y
   _atom_site_fract_z
   _atom_site_adp_type
   _atom_site_U_iso_or_equiv
   _atom_site_type_symbol
   Al1        1.0     0.115774     0.084095     0.354423    Uiso  ? Al
   Al2        1.0     0.776751     0.087899     0.852599    Uiso  ? Al
   Al3        1.0     0.448676     0.086811     0.369561    Uiso  ? Al
   Al4        1.0     0.227592     0.205812     0.603370    Uiso  ? Al
   Al5        1.0     0.781263     0.086539     0.353248    Uiso  ? Al
   Al6        1.0     0.889623     0.202281     0.099323    Uiso  ? Al
   Al7        1.0     0.449055     0.088003     0.835498    Uiso  ? Al
   Al8        1.0     0.551056     0.208413     0.600979    Uiso  ? Al
   Al9        1.0     0.116354     0.432986     0.353036    Uiso  ? Al
   Al10       1.0     0.219199     0.549913     0.098058    Uiso  ? Al
   Al11       1.0     0.440435     0.436289     0.359405    Uiso  ? Al
   Al12       1.0     0.550020     0.546022     0.100882    Uiso  ? Al
   Al13       1.0     0.118612     0.431581     0.852011    Uiso  ? Al
   Al14       1.0     0.224343     0.543792     0.604058    Uiso  ? Al
   Al15       1.0     0.770744     0.430293     0.341622    Uiso  ? Al
   Al16       1.0     0.887824     0.543218     0.103697    Uiso  ? Al
   Al17       1.0     0.440589     0.433962     0.843816    Uiso  ? Al
   Al18       1.0     0.546311     0.543463     0.607004    Uiso  ? Al
   Al19       1.0     0.111659     0.763706     0.353357    Uiso  ? Al
   Al20       1.0     0.224891     0.864620     0.093568    Uiso  ? Al
   Al21       1.0     0.773156     0.768881     0.863620    Uiso  ? Al
   Al22       1.0     0.891582     0.869163     0.606235    Uiso  ? Al
   Al23       1.0     0.442008     0.760954     0.356288    Uiso  ? Al
   Al24       1.0     0.556985     0.862862     0.105512    Uiso  ? Al
   Al25       1.0     0.227232     0.864657     0.612110    Uiso  ? Al
   Al26       1.0     0.774395     0.768487     0.348474    Uiso  ? Al
   Al27       1.0     0.895139     0.866390     0.102398    Uiso  ? Al
   Al28       1.0     0.444317     0.760219     0.849781    Uiso  ? Al
   Hf1        1.0     0.220195     0.204948     0.102462    Uiso  ? Hf
   Hf2        1.0     0.887894     0.203038     0.607388    Uiso  ? Hf
   Hf3        1.0     0.555134     0.208159     0.104231    Uiso  ? Hf
   Hf4        1.0     0.889078     0.542696     0.604768    Uiso  ? Hf
   Mg1        1.0     0.116474     0.087340     0.851573    Uiso  ? Mg
   Mg2        1.0     0.770502     0.431955     0.866342    Uiso  ? Mg
   Mg3        1.0     0.109592     0.762566     0.852033    Uiso  ? Mg
   Mg4        1.0     0.554019     0.868234     0.602534    Uiso  ? Mg
   N1         1.0     0.224692     0.206764     0.358851    Uiso  ? N
   N2         1.0     0.105764     0.086739     0.113150    Uiso  ? N
   N3         1.0     0.881317     0.196940     0.858846    Uiso  ? N
   N4         1.0     0.769403     0.086567     0.599188    Uiso  ? N
   N5         1.0     0.554960     0.206229     0.360046    Uiso  ? N
   N6         1.0     0.452790     0.079113     0.105244    Uiso  ? N
   N7         1.0     0.229283     0.212881     0.848060    Uiso  ? N
   N8         1.0     0.125214     0.089466     0.593257    Uiso  ? N
   N9         1.0     0.887294     0.202679     0.348429    Uiso  ? N
   N10        1.0     0.788450     0.086634     0.107766    Uiso  ? N
   N11        1.0     0.555323     0.206218     0.847152    Uiso  ? N
   N12        1.0     0.441442     0.103894     0.602496    Uiso  ? N
   N13        1.0     0.223936     0.540541     0.357348    Uiso  ? N
   N14        1.0     0.107812     0.442746     0.107988    Uiso  ? N
   N15        1.0     0.898009     0.545352     0.860500    Uiso  ? N
   N16        1.0     0.760304     0.436818     0.594158    Uiso  ? N
   N17        1.0     0.553255     0.538792     0.349744    Uiso  ? N
   N18        1.0     0.435283     0.442732     0.107603    Uiso  ? N
   N19        1.0     0.229791     0.528924     0.852114    Uiso  ? N
   N20        1.0     0.125499     0.423852     0.599544    Uiso  ? N
   N21        1.0     0.891263     0.538574     0.346348    Uiso  ? N
   N22        1.0     0.778274     0.427821     0.112430    Uiso  ? N
   N23        1.0     0.541729     0.544650     0.855811    Uiso  ? N
   N24        1.0     0.445062     0.427760     0.601610    Uiso  ? N
   N25        1.0     0.223860     0.869659     0.352967    Uiso  ? N
   N26        1.0     0.110339     0.762093     0.112281    Uiso  ? N
   N27        1.0     0.874891     0.878208     0.856017    Uiso  ? N
   N28        1.0     0.782293     0.769917     0.597325    Uiso  ? N
   N29        1.0     0.555517     0.870909     0.345651    Uiso  ? N
   N30        1.0     0.444079     0.760657     0.107992    Uiso  ? N
   N31        1.0     0.235716     0.864044     0.854235    Uiso  ? N
   N32        1.0     0.108186     0.763960     0.594322    Uiso  ? N
   N33        1.0     0.888501     0.871939     0.349426    Uiso  ? N
   N34        1.0     0.778059     0.761291     0.105972    Uiso  ? N
   N35        1.0     0.556040     0.869931     0.861478    Uiso  ? N
   N36        1.0     0.439387     0.753229     0.599166    Uiso  ? N
