
#======================================================================
# CRYSTAL DATA
#----------------------------------------------------------------------
data_VESTA_phase_1

_chemical_name_common                  'Al   Hf   Mg   N '
_cell_length_a                         9.686646
_cell_length_b                         9.678128
_cell_length_c                         10.123581
_cell_angle_alpha                      89.958748
_cell_angle_beta                       89.987823
_cell_angle_gamma                      59.875965
_cell_volume                           820.890608
_space_group_name_H-M_alt              'P 1'
_space_group_IT_number                 1

loop_
_space_group_symop_operation_xyz
   'x, y, z'

loop_
   _atom_site_label
   _atom_site_occupancy
   _atom_site_fract_x
   _atom_site_fract_y
   _atom_site_fract_z
   _atom_site_adp_type
   _atom_site_U_iso_or_equiv
   _atom_site_type_symbol
   Al1        1.0     0.119609     0.086970     0.410048    Uiso  ? Al
   Al2        1.0     0.781010     0.089116     0.905967    Uiso  ? Al
   Al3        1.0     0.445585     0.092464     0.419464    Uiso  ? Al
   Al4        1.0     0.231394     0.204303     0.668092    Uiso  ? Al
   Al5        1.0     0.776295     0.087647     0.410867    Uiso  ? Al
   Al6        1.0     0.890588     0.202409     0.169460    Uiso  ? Al
   Al7        1.0     0.449368     0.086015     0.901314    Uiso  ? Al
   Al8        1.0     0.548443     0.208145     0.665978    Uiso  ? Al
   Al9        1.0     0.116189     0.428210     0.410810    Uiso  ? Al
   Al10       1.0     0.217512     0.551329     0.163392    Uiso  ? Al
   Al11       1.0     0.442995     0.431215     0.415712    Uiso  ? Al
   Al12       1.0     0.553032     0.545295     0.161569    Uiso  ? Al
   Al13       1.0     0.115029     0.435559     0.907853    Uiso  ? Al
   Al14       1.0     0.226926     0.540111     0.661617    Uiso  ? Al
   Al15       1.0     0.771013     0.431531     0.397516    Uiso  ? Al
   Al16       1.0     0.885313     0.544325     0.164757    Uiso  ? Al
   Al17       1.0     0.439400     0.437303     0.903024    Uiso  ? Al
   Al18       1.0     0.542495     0.545896     0.662855    Uiso  ? Al
   Al19       1.0     0.110733     0.762417     0.411465    Uiso  ? Al
   Al20       1.0     0.222522     0.864794     0.163379    Uiso  ? Al
   Al21       1.0     0.775063     0.766752     0.915561    Uiso  ? Al
   Al22       1.0     0.887297     0.870805     0.663789    Uiso  ? Al
   Al23       1.0     0.442974     0.759004     0.411048    Uiso  ? Al
   Al24       1.0     0.559750     0.861015     0.160509    Uiso  ? Al
   Al25       1.0     0.232454     0.862718     0.662898    Uiso  ? Al
   Al26       1.0     0.776476     0.766425     0.405633    Uiso  ? Al
   Al27       1.0     0.897487     0.865456     0.161690    Uiso  ? Al
   Al28       1.0     0.443766     0.760776     0.908818    Uiso  ? Al
   Hf1        1.0     0.217487     0.206088     0.148488    Uiso  ? Hf
   Hf2        1.0     0.888201     0.200569     0.649135    Uiso  ? Hf
   Hf3        1.0     0.558793     0.207931     0.149260    Uiso  ? Hf
   Hf4        1.0     0.887209     0.544511     0.655582    Uiso  ? Hf
   Mg1        1.0     0.111765     0.086731     0.905320    Uiso  ? Mg
   Mg2        1.0     0.774593     0.428805     0.918240    Uiso  ? Mg
   Mg3        1.0     0.112678     0.762181     0.906723    Uiso  ? Mg
   Mg4        1.0     0.549564     0.873101     0.660478    Uiso  ? Mg
   N1         1.0     0.224487     0.205556     0.355959    Uiso  ? N
   N2         1.0     0.102576     0.084398     0.115152    Uiso  ? N
   N3         1.0     0.878974     0.200383     0.847121    Uiso  ? N
   N4         1.0     0.764056     0.086245     0.598142    Uiso  ? N
   N5         1.0     0.554232     0.206288     0.356210    Uiso  ? N
   N6         1.0     0.455187     0.075514     0.095445    Uiso  ? N
   N7         1.0     0.227719     0.214116     0.860918    Uiso  ? N
   N8         1.0     0.131912     0.087173     0.599518    Uiso  ? N
   N9         1.0     0.889789     0.200517     0.365137    Uiso  ? N
   N10        1.0     0.795983     0.084812     0.100800    Uiso  ? N
   N11        1.0     0.555498     0.206666     0.862870    Uiso  ? N
   N12        1.0     0.438871     0.108523     0.604432    Uiso  ? N
   N13        1.0     0.224336     0.537986     0.354502    Uiso  ? N
   N14        1.0     0.102514     0.448352     0.101994    Uiso  ? N
   N15        1.0     0.895766     0.548060     0.858928    Uiso  ? N
   N16        1.0     0.757060     0.438808     0.589560    Uiso  ? N
   N17        1.0     0.550402     0.538876     0.349774    Uiso  ? N
   N18        1.0     0.434008     0.447390     0.097379    Uiso  ? N
   N19        1.0     0.229405     0.527527     0.845561    Uiso  ? N
   N20        1.0     0.126282     0.420911     0.598811    Uiso  ? N
   N21        1.0     0.891827     0.538849     0.358365    Uiso  ? N
   N22        1.0     0.779833     0.425264     0.126632    Uiso  ? N
   N23        1.0     0.545416     0.544777     0.849208    Uiso  ? N
   N24        1.0     0.445875     0.425627     0.603675    Uiso  ? N
   N25        1.0     0.223420     0.870116     0.353759    Uiso  ? N
   N26        1.0     0.111072     0.762205     0.114339    Uiso  ? N
   N27        1.0     0.873072     0.878460     0.849575    Uiso  ? N
   N28        1.0     0.782119     0.771568     0.590586    Uiso  ? N
   N29        1.0     0.553553     0.873554     0.352538    Uiso  ? N
   N30        1.0     0.443433     0.761050     0.105332    Uiso  ? N
   N31        1.0     0.238941     0.863661     0.844157    Uiso  ? N
   N32        1.0     0.107916     0.763555     0.602315    Uiso  ? N
   N33        1.0     0.888985     0.872957     0.350751    Uiso  ? N
   N34        1.0     0.778988     0.761684     0.109246    Uiso  ? N
   N35        1.0     0.559130     0.866711     0.865116    Uiso  ? N
   N36        1.0     0.439345     0.751482     0.593803    Uiso  ? N
