
#======================================================================
# CRYSTAL DATA
#----------------------------------------------------------------------
data_VESTA_phase_1

_chemical_name_common                  'Al   Hf   Mg   N                      '
_cell_length_a                         9.689985
_cell_length_b                         9.680969
_cell_length_c                         10.114703
_cell_angle_alpha                      89.957993
_cell_angle_beta                       89.986641
_cell_angle_gamma                      59.880135
_cell_volume                           820.729005
_space_group_name_H-M_alt              'P 1'
_space_group_IT_number                 1

loop_
_space_group_symop_operation_xyz
   'x, y, z'

loop_
   _atom_site_label
   _atom_site_occupancy
   _atom_site_fract_x
   _atom_site_fract_y
   _atom_site_fract_z
   _atom_site_adp_type
   _atom_site_U_iso_or_equiv
   _atom_site_type_symbol
   Al1        1.0     0.119763     0.086998     0.385266    Uiso  ? Al
   Al2        1.0     0.781053     0.089133     0.881279    Uiso  ? Al
   Al3        1.0     0.445502     0.092571     0.394721    Uiso  ? Al
   Al4        1.0     0.231385     0.204351     0.643591    Uiso  ? Al
   Al5        1.0     0.776167     0.087634     0.386114    Uiso  ? Al
   Al6        1.0     0.890604     0.202375     0.144881    Uiso  ? Al
   Al7        1.0     0.449497     0.085855     0.876638    Uiso  ? Al
   Al8        1.0     0.548411     0.208201     0.641384    Uiso  ? Al
   Al9        1.0     0.116323     0.428096     0.386020    Uiso  ? Al
   Al10       1.0     0.217459     0.551405     0.138747    Uiso  ? Al
   Al11       1.0     0.442987     0.431221     0.390989    Uiso  ? Al
   Al12       1.0     0.552978     0.545321     0.136831    Uiso  ? Al
   Al13       1.0     0.114898     0.435759     0.883198    Uiso  ? Al
   Al14       1.0     0.226908     0.540139     0.636883    Uiso  ? Al
   Al15       1.0     0.770917     0.431583     0.372709    Uiso  ? Al
   Al16       1.0     0.885322     0.544323     0.140172    Uiso  ? Al
   Al17       1.0     0.439294     0.437425     0.878408    Uiso  ? Al
   Al18       1.0     0.542486     0.545893     0.638229    Uiso  ? Al
   Al19       1.0     0.110686     0.762504     0.386775    Uiso  ? Al
   Al20       1.0     0.222493     0.864820     0.138622    Uiso  ? Al
   Al21       1.0     0.775030     0.766700     0.890851    Uiso  ? Al
   Al22       1.0     0.887242     0.870845     0.639157    Uiso  ? Al
   Al23       1.0     0.442928     0.759006     0.386353    Uiso  ? Al
   Al24       1.0     0.559765     0.860984     0.135895    Uiso  ? Al
   Al25       1.0     0.232445     0.862750     0.638258    Uiso  ? Al
   Al26       1.0     0.776456     0.766496     0.380940    Uiso  ? Al
   Al27       1.0     0.897479     0.865455     0.136935    Uiso  ? Al
   Al28       1.0     0.443784     0.760788     0.884182    Uiso  ? Al
   Hf1        1.0     0.217488     0.206076     0.123256    Uiso  ? Hf
   Hf2        1.0     0.888167     0.200578     0.624114    Uiso  ? Hf
   Hf3        1.0     0.558777     0.207948     0.124294    Uiso  ? Hf
   Hf4        1.0     0.887255     0.544455     0.630633    Uiso  ? Hf
   Mg1        1.0     0.111577     0.086732     0.880500    Uiso  ? Mg
   Mg2        1.0     0.774628     0.428759     0.893481    Uiso  ? Mg
   Mg3        1.0     0.112643     0.762200     0.881998    Uiso  ? Mg
   Mg4        1.0     0.549570     0.873070     0.635635    Uiso  ? Mg
   N1         1.0     0.224550     0.205568     0.331026    Uiso  ? N
   N2         1.0     0.102487     0.084401     0.090531    Uiso  ? N
   N3         1.0     0.878898     0.200406     0.822297    Uiso  ? N
   N4         1.0     0.763921     0.086250     0.573545    Uiso  ? N
   N5         1.0     0.554183     0.206332     0.331452    Uiso  ? N
   N6         1.0     0.455320     0.075346     0.070861    Uiso  ? N
   N7         1.0     0.227713     0.214141     0.836730    Uiso  ? N
   N8         1.0     0.131996     0.087226     0.574954    Uiso  ? N
   N9         1.0     0.889809     0.200484     0.340721    Uiso  ? N
   N10        1.0     0.796019     0.084829     0.076242    Uiso  ? N
   N11        1.0     0.555478     0.206700     0.838488    Uiso  ? N
   N12        1.0     0.438811     0.108599     0.579924    Uiso  ? N
   N13        1.0     0.224316     0.538063     0.329957    Uiso  ? N
   N14        1.0     0.102405     0.448510     0.077456    Uiso  ? N
   N15        1.0     0.895752     0.548052     0.834172    Uiso  ? N
   N16        1.0     0.756925     0.438870     0.564928    Uiso  ? N
   N17        1.0     0.550340     0.538915     0.325145    Uiso  ? N
   N18        1.0     0.433889     0.447493     0.072826    Uiso  ? N
   N19        1.0     0.229373     0.527569     0.820969    Uiso  ? N
   N20        1.0     0.126401     0.420817     0.574205    Uiso  ? N
   N21        1.0     0.891843     0.538851     0.333930    Uiso  ? N
   N22        1.0     0.779850     0.425237     0.102147    Uiso  ? N
   N23        1.0     0.545393     0.544792     0.824731    Uiso  ? N
   N24        1.0     0.445869     0.425632     0.579110    Uiso  ? N
   N25        1.0     0.223411     0.870152     0.329142    Uiso  ? N
   N26        1.0     0.111045     0.762231     0.089724    Uiso  ? N
   N27        1.0     0.873026     0.878477     0.825083    Uiso  ? N
   N28        1.0     0.782115     0.771606     0.566023    Uiso  ? N
   N29        1.0     0.553542     0.873567     0.328038    Uiso  ? N
   N30        1.0     0.443432     0.761073     0.080768    Uiso  ? N
   N31        1.0     0.238956     0.863652     0.819669    Uiso  ? N
   N32        1.0     0.107850     0.763642     0.577768    Uiso  ? N
   N33        1.0     0.888968     0.872975     0.326122    Uiso  ? N
   N34        1.0     0.778976     0.761622     0.084687    Uiso  ? N
   N35        1.0     0.559158     0.866644     0.840428    Uiso  ? N
   N36        1.0     0.439292     0.751459     0.569240    Uiso  ? N
