
#======================================================================
# CRYSTAL DATA
#----------------------------------------------------------------------
data_VESTA_phase_1

_chemical_name_common                  'Al   Hf   Mg   N                      '
_cell_length_a                         9.768929
_cell_length_b                         9.753542
_cell_length_c                         9.902697
_cell_angle_alpha                      89.977753
_cell_angle_beta                       89.997360
_cell_angle_gamma                      59.889687
_cell_volume                           816.224305
_space_group_name_H-M_alt              'P 1'
_space_group_IT_number                 1

loop_
_space_group_symop_operation_xyz
   'x, y, z'

loop_
   _atom_site_label
   _atom_site_occupancy
   _atom_site_fract_x
   _atom_site_fract_y
   _atom_site_fract_z
   _atom_site_adp_type
   _atom_site_U_iso_or_equiv
   _atom_site_type_symbol
   Al1        1.0     0.122316     0.086740     0.378938    Uiso  ? Al
   Al2        1.0     0.782350     0.089165     0.877157    Uiso  ? Al
   Al3        1.0     0.444683     0.093733     0.389981    Uiso  ? Al
   Al4        1.0     0.231087     0.205134     0.641318    Uiso  ? Al
   Al5        1.0     0.774528     0.087307     0.380178    Uiso  ? Al
   Al6        1.0     0.891199     0.201529     0.141464    Uiso  ? Al
   Al7        1.0     0.451539     0.083227     0.870807    Uiso  ? Al
   Al8        1.0     0.548822     0.208710     0.638406    Uiso  ? Al
   Al9        1.0     0.119324     0.425756     0.379599    Uiso  ? Al
   Al10       1.0     0.217027     0.552100     0.134546    Uiso  ? Al
   Al11       1.0     0.443445     0.430679     0.385725    Uiso  ? Al
   Al12       1.0     0.551967     0.545438     0.131039    Uiso  ? Al
   Al13       1.0     0.112880     0.438704     0.878880    Uiso  ? Al
   Al14       1.0     0.227175     0.539978     0.631302    Uiso  ? Al
   Al15       1.0     0.769668     0.432023     0.364572    Uiso  ? Al
   Al16       1.0     0.886044     0.544281     0.137488    Uiso  ? Al
   Al17       1.0     0.437946     0.439106     0.874797    Uiso  ? Al
   Al18       1.0     0.542998     0.545499     0.634657    Uiso  ? Al
   Al19       1.0     0.110396     0.763503     0.381675    Uiso  ? Al
   Al20       1.0     0.222145     0.864982     0.131882    Uiso  ? Al
   Al21       1.0     0.774698     0.765774     0.885752    Uiso  ? Al
   Al22       1.0     0.886849     0.871454     0.635380    Uiso  ? Al
   Al23       1.0     0.442134     0.758678     0.381338    Uiso  ? Al
   Al24       1.0     0.559719     0.860701     0.132099    Uiso  ? Al
   Al25       1.0     0.232391     0.862922     0.634933    Uiso  ? Al
   Al26       1.0     0.776198     0.768132     0.375630    Uiso  ? Al
   Al27       1.0     0.897622     0.865291     0.130882    Uiso  ? Al
   Al28       1.0     0.444468     0.760767     0.880608    Uiso  ? Al
   Hf1        1.0     0.217676     0.205558     0.110075    Uiso  ? Hf
   Hf2        1.0     0.887626     0.201241     0.614552    Uiso  ? Hf
   Hf3        1.0     0.558216     0.207694     0.114465    Uiso  ? Hf
   Hf4        1.0     0.888255     0.543789     0.620127    Uiso  ? Hf
   Mg1        1.0     0.109239     0.086827     0.873328    Uiso  ? Mg
   Mg2        1.0     0.775584     0.428654     0.887864    Uiso  ? Mg
   Mg3        1.0     0.112235     0.761899     0.876084    Uiso  ? Mg
   Mg4        1.0     0.550238     0.871719     0.627894    Uiso  ? Mg
   N1         1.0     0.226021     0.205017     0.324652    Uiso  ? N
   N2         1.0     0.101633     0.084518     0.088093    Uiso  ? N
   N3         1.0     0.877943     0.200961     0.817883    Uiso  ? N
   N4         1.0     0.762672     0.086483     0.571587    Uiso  ? N
   N5         1.0     0.553528     0.206371     0.326871    Uiso  ? N
   N6         1.0     0.456804     0.072806     0.068433    Uiso  ? N
   N7         1.0     0.227513     0.214568     0.840482    Uiso  ? N
   N8         1.0     0.133033     0.087805     0.573771    Uiso  ? N
   N9         1.0     0.890375     0.199540     0.341012    Uiso  ? N
   N10        1.0     0.796456     0.085065     0.075276    Uiso  ? N
   N11        1.0     0.555744     0.206890     0.840031    Uiso  ? N
   N12        1.0     0.438595     0.109216     0.580465    Uiso  ? N
   N13        1.0     0.224556     0.538694     0.328646    Uiso  ? N
   N14        1.0     0.101213     0.450160     0.076588    Uiso  ? N
   N15        1.0     0.895778     0.547971     0.828810    Uiso  ? N
   N16        1.0     0.755198     0.439786     0.561937    Uiso  ? N
   N17        1.0     0.549355     0.539145     0.322293    Uiso  ? N
   N18        1.0     0.432464     0.448366     0.071496    Uiso  ? N
   N19        1.0     0.229267     0.527601     0.818971    Uiso  ? N
   N20        1.0     0.128846     0.419137     0.571818    Uiso  ? N
   N21        1.0     0.892664     0.538765     0.335047    Uiso  ? N
   N22        1.0     0.780485     0.425019     0.102858    Uiso  ? N
   N23        1.0     0.545416     0.544750     0.825019    Uiso  ? N
   N24        1.0     0.446525     0.425225     0.577686    Uiso  ? N
   N25        1.0     0.223399     0.870298     0.326132    Uiso  ? N
   N26        1.0     0.110799     0.762140     0.087079    Uiso  ? N
   N27        1.0     0.872400     0.878750     0.824925    Uiso  ? N
   N28        1.0     0.782231     0.772651     0.564167    Uiso  ? N
   N29        1.0     0.553304     0.873697     0.327512    Uiso  ? N
   N30        1.0     0.443746     0.761105     0.079259    Uiso  ? N
   N31        1.0     0.239264     0.863238     0.820275    Uiso  ? N
   N32        1.0     0.107357     0.764522     0.576450    Uiso  ? N
   N33        1.0     0.889095     0.873158     0.323259    Uiso  ? N
   N34        1.0     0.778870     0.760586     0.083404    Uiso  ? N
   N35        1.0     0.559807     0.865201     0.836662    Uiso  ? N
   N36        1.0     0.438460     0.750864     0.567779    Uiso  ? N
