
#======================================================================
# CRYSTAL DATA
#----------------------------------------------------------------------
data_VESTA_phase_1

_chemical_name_common                  'Al   Hf   Mg   N                      '
_cell_length_a                         9.969543
_cell_length_b                         9.948048
_cell_length_c                         9.332225
_cell_angle_alpha                      90.006897
_cell_angle_beta                       90.012802
_cell_angle_gamma                      59.866306
_cell_volume                           800.464815
_space_group_name_H-M_alt              'P 1'
_space_group_IT_number                 1

loop_
_space_group_symop_operation_xyz
   'x, y, z'

loop_
   _atom_site_label
   _atom_site_occupancy
   _atom_site_fract_x
   _atom_site_fract_y
   _atom_site_fract_z
   _atom_site_adp_type
   _atom_site_U_iso_or_equiv
   _atom_site_type_symbol
   Al1        1.0     0.122507     0.085220     0.368825    Uiso  ? Al
   Al2        1.0     0.781882     0.089178     0.873854    Uiso  ? Al
   Al3        1.0     0.444900     0.093134     0.389453    Uiso  ? Al
   Al4        1.0     0.227856     0.207345     0.634848    Uiso  ? Al
   Al5        1.0     0.774946     0.086933     0.372540    Uiso  ? Al
   Al6        1.0     0.891270     0.201402     0.130681    Uiso  ? Al
   Al7        1.0     0.452135     0.082976     0.855502    Uiso  ? Al
   Al8        1.0     0.550818     0.209653     0.632478    Uiso  ? Al
   Al9        1.0     0.121417     0.424968     0.371260    Uiso  ? Al
   Al10       1.0     0.217794     0.551823     0.130182    Uiso  ? Al
   Al11       1.0     0.444119     0.431300     0.381052    Uiso  ? Al
   Al12       1.0     0.550279     0.545011     0.121003    Uiso  ? Al
   Al13       1.0     0.111938     0.439967     0.875024    Uiso  ? Al
   Al14       1.0     0.226136     0.540660     0.624412    Uiso  ? Al
   Al15       1.0     0.768766     0.431377     0.351432    Uiso  ? Al
   Al16       1.0     0.887610     0.543421     0.131510    Uiso  ? Al
   Al17       1.0     0.436586     0.439037     0.869465    Uiso  ? Al
   Al18       1.0     0.544121     0.545200     0.633141    Uiso  ? Al
   Al19       1.0     0.110402     0.765465     0.373164    Uiso  ? Al
   Al20       1.0     0.222350     0.865185     0.119015    Uiso  ? Al
   Al21       1.0     0.773844     0.765344     0.882824    Uiso  ? Al
   Al22       1.0     0.887538     0.871260     0.631708    Uiso  ? Al
   Al23       1.0     0.440598     0.758243     0.374098    Uiso  ? Al
   Al24       1.0     0.558063     0.862709     0.126046    Uiso  ? Al
   Al25       1.0     0.231511     0.862873     0.634550    Uiso  ? Al
   Al26       1.0     0.775828     0.770275     0.366130    Uiso  ? Al
   Al27       1.0     0.897503     0.865792     0.123102    Uiso  ? Al
   Al28       1.0     0.445994     0.761167     0.878502    Uiso  ? Al
   Hf1        1.0     0.219863     0.204233     0.101149    Uiso  ? Hf
   Hf2        1.0     0.886923     0.202638     0.608444    Uiso  ? Hf
   Hf3        1.0     0.555878     0.207207     0.106443    Uiso  ? Hf
   Hf4        1.0     0.888867     0.543538     0.608527    Uiso  ? Hf
   Mg1        1.0     0.109953     0.088300     0.864239    Uiso  ? Mg
   Mg2        1.0     0.775797     0.430012     0.880904    Uiso  ? Mg
   Mg3        1.0     0.111180     0.760630     0.868863    Uiso  ? Mg
   Mg4        1.0     0.553053     0.866963     0.617371    Uiso  ? Mg
   N1         1.0     0.228474     0.203605     0.331748    Uiso  ? N
   N2         1.0     0.102807     0.086253     0.095646    Uiso  ? N
   N3         1.0     0.878573     0.200630     0.828581    Uiso  ? N
   N4         1.0     0.764139     0.086619     0.577872    Uiso  ? N
   N5         1.0     0.552099     0.206078     0.334438    Uiso  ? N
   N6         1.0     0.456364     0.072959     0.071053    Uiso  ? N
   N7         1.0     0.226027     0.216371     0.846096    Uiso  ? N
   N8         1.0     0.131534     0.087663     0.580937    Uiso  ? N
   N9         1.0     0.889962     0.199212     0.344727    Uiso  ? N
   N10        1.0     0.793478     0.086184     0.084089    Uiso  ? N
   N11        1.0     0.556744     0.207339     0.844930    Uiso  ? N
   N12        1.0     0.439622     0.107510     0.595308    Uiso  ? N
   N13        1.0     0.225514     0.539358     0.336054    Uiso  ? N
   N14        1.0     0.103061     0.448378     0.086222    Uiso  ? N
   N15        1.0     0.895881     0.548126     0.834779    Uiso  ? N
   N16        1.0     0.754584     0.439890     0.569351    Uiso  ? N
   N17        1.0     0.549216     0.538480     0.324713    Uiso  ? N
   N18        1.0     0.431542     0.446470     0.077761    Uiso  ? N
   N19        1.0     0.228484     0.527918     0.824853    Uiso  ? N
   N20        1.0     0.129272     0.419371     0.576329    Uiso  ? N
   N21        1.0     0.893414     0.537880     0.341727    Uiso  ? N
   N22        1.0     0.780962     0.425619     0.110256    Uiso  ? N
   N23        1.0     0.544713     0.545057     0.836783    Uiso  ? N
   N24        1.0     0.447044     0.425986     0.585206    Uiso  ? N
   N25        1.0     0.223643     0.869987     0.327597    Uiso  ? N
   N26        1.0     0.110450     0.761378     0.093168    Uiso  ? N
   N27        1.0     0.871773     0.878636     0.834729    Uiso  ? N
   N28        1.0     0.783213     0.772648     0.568812    Uiso  ? N
   N29        1.0     0.552158     0.874989     0.334686    Uiso  ? N
   N30        1.0     0.444971     0.761042     0.086660    Uiso  ? N
   N31        1.0     0.238786     0.863013     0.834525    Uiso  ? N
   N32        1.0     0.107198     0.765826     0.582438    Uiso  ? N
   N33        1.0     0.889562     0.873658     0.327028    Uiso  ? N
   N34        1.0     0.778405     0.760099     0.092779    Uiso  ? N
   N35        1.0     0.560578     0.863801     0.841379    Uiso  ? N
   N36        1.0     0.437028     0.750298     0.574118    Uiso  ? N
