
#======================================================================
# CRYSTAL DATA
#----------------------------------------------------------------------
data_VESTA_phase_1

_chemical_name_common                  'Al   Hf   Mg   N                      '
_cell_length_a                         9.686712
_cell_length_b                         9.678120
_cell_length_c                         10.123451
_cell_angle_alpha                      89.956978
_cell_angle_beta                       89.986153
_cell_angle_gamma                      59.877235
_cell_volume                           820.895564
_space_group_name_H-M_alt              'P 1'
_space_group_IT_number                 1

loop_
_space_group_symop_operation_xyz
   'x, y, z'

loop_
   _atom_site_label
   _atom_site_occupancy
   _atom_site_fract_x
   _atom_site_fract_y
   _atom_site_fract_z
   _atom_site_adp_type
   _atom_site_U_iso_or_equiv
   _atom_site_type_symbol
   Al1        1.0     0.119609     0.086985     0.400043    Uiso  ? Al
   Al2        1.0     0.780996     0.089115     0.895953    Uiso  ? Al
   Al3        1.0     0.445567     0.092484     0.409462    Uiso  ? Al
   Al4        1.0     0.231377     0.204320     0.658098    Uiso  ? Al
   Al5        1.0     0.776277     0.087647     0.400862    Uiso  ? Al
   Al6        1.0     0.890592     0.202403     0.159455    Uiso  ? Al
   Al7        1.0     0.449375     0.086015     0.891304    Uiso  ? Al
   Al8        1.0     0.548417     0.208166     0.655971    Uiso  ? Al
   Al9        1.0     0.116170     0.428227     0.400804    Uiso  ? Al
   Al10       1.0     0.217510     0.551343     0.153394    Uiso  ? Al
   Al11       1.0     0.442975     0.431237     0.405707    Uiso  ? Al
   Al12       1.0     0.553029     0.545306     0.151556    Uiso  ? Al
   Al13       1.0     0.115020     0.435579     0.897858    Uiso  ? Al
   Al14       1.0     0.226896     0.540136     0.651618    Uiso  ? Al
   Al15       1.0     0.771002     0.431531     0.387501    Uiso  ? Al
   Al16       1.0     0.885315     0.544318     0.154744    Uiso  ? Al
   Al17       1.0     0.439385     0.437321     0.893021    Uiso  ? Al
   Al18       1.0     0.542482     0.545897     0.652851    Uiso  ? Al
   Al19       1.0     0.110719     0.762437     0.401466    Uiso  ? Al
   Al20       1.0     0.222524     0.864805     0.153377    Uiso  ? Al
   Al21       1.0     0.775056     0.766747     0.905569    Uiso  ? Al
   Al22       1.0     0.887279     0.870798     0.653789    Uiso  ? Al
   Al23       1.0     0.442970     0.759012     0.401036    Uiso  ? Al
   Al24       1.0     0.559755     0.861023     0.150507    Uiso  ? Al
   Al25       1.0     0.232453     0.862721     0.652895    Uiso  ? Al
   Al26       1.0     0.776470     0.766417     0.395627    Uiso  ? Al
   Al27       1.0     0.897488     0.865460     0.151688    Uiso  ? Al
   Al28       1.0     0.443769     0.760780     0.898813    Uiso  ? Al
   Hf1        1.0     0.217502     0.206089     0.138460    Uiso  ? Hf
   Hf2        1.0     0.888193     0.200551     0.639118    Uiso  ? Hf
   Hf3        1.0     0.558800     0.207943     0.139251    Uiso  ? Hf
   Hf4        1.0     0.887190     0.544493     0.645597    Uiso  ? Hf
   Mg1        1.0     0.111762     0.086736     0.895306    Uiso  ? Mg
   Mg2        1.0     0.774587     0.428782     0.908236    Uiso  ? Mg
   Mg3        1.0     0.112669     0.762205     0.896727    Uiso  ? Mg
   Mg4        1.0     0.549555     0.873100     0.650465    Uiso  ? Mg
   N1         1.0     0.224481     0.205575     0.345942    Uiso  ? N
   N2         1.0     0.102579     0.084406     0.105148    Uiso  ? N
   N3         1.0     0.878974     0.200370     0.837104    Uiso  ? N
   N4         1.0     0.764028     0.086237     0.588140    Uiso  ? N
   N5         1.0     0.554217     0.206309     0.346204    Uiso  ? N
   N6         1.0     0.455206     0.075516     0.085436    Uiso  ? N
   N7         1.0     0.227718     0.214131     0.850935    Uiso  ? N
   N8         1.0     0.131908     0.087180     0.589518    Uiso  ? N
   N9         1.0     0.889784     0.200513     0.355141    Uiso  ? N
   N10        1.0     0.795981     0.084813     0.090793    Uiso  ? N
   N11        1.0     0.555486     0.206682     0.852863    Uiso  ? N
   N12        1.0     0.438853     0.108531     0.594435    Uiso  ? N
   N13        1.0     0.224319     0.538010     0.344504    Uiso  ? N
   N14        1.0     0.102518     0.448363     0.091999    Uiso  ? N
   N15        1.0     0.895757     0.548052     0.848948    Uiso  ? N
   N16        1.0     0.757044     0.438792     0.579554    Uiso  ? N
   N17        1.0     0.550392     0.538888     0.339761    Uiso  ? N
   N18        1.0     0.433998     0.447408     0.087375    Uiso  ? N
   N19        1.0     0.229389     0.527555     0.835565    Uiso  ? N
   N20        1.0     0.126256     0.420927     0.588815    Uiso  ? N
   N21        1.0     0.891815     0.538847     0.348354    Uiso  ? N
   N22        1.0     0.779831     0.425258     0.116630    Uiso  ? N
   N23        1.0     0.545411     0.544784     0.839205    Uiso  ? N
   N24        1.0     0.445843     0.425647     0.593672    Uiso  ? N
   N25        1.0     0.223415     0.870131     0.343758    Uiso  ? N
   N26        1.0     0.111074     0.762219     0.104339    Uiso  ? N
   N27        1.0     0.873065     0.878453     0.839578    Uiso  ? N
   N28        1.0     0.782118     0.771545     0.580587    Uiso  ? N
   N29        1.0     0.553545     0.873568     0.342539    Uiso  ? N
   N30        1.0     0.443435     0.761062     0.095329    Uiso  ? N
   N31        1.0     0.238947     0.863667     0.834153    Uiso  ? N
   N32        1.0     0.107895     0.763578     0.592318    Uiso  ? N
   N33        1.0     0.888976     0.872959     0.340750    Uiso  ? N
   N34        1.0     0.778993     0.761681     0.099252    Uiso  ? N
   N35        1.0     0.559133     0.866713     0.855109    Uiso  ? N
   N36        1.0     0.439340     0.751480     0.583791    Uiso  ? N
