
#======================================================================
# CRYSTAL DATA
#----------------------------------------------------------------------
data_VESTA_phase_1

_chemical_name_common                  'Al   Hf   Mg   N                      '
_cell_length_a                         9.687154
_cell_length_b                         9.678487
_cell_length_c                         10.122230
_cell_angle_alpha                      89.956985
_cell_angle_beta                       89.986069
_cell_angle_gamma                      59.878178
_cell_volume                           820.872889
_space_group_name_H-M_alt              'P 1'
_space_group_IT_number                 1

loop_
_space_group_symop_operation_xyz
   'x, y, z'

loop_
   _atom_site_label
   _atom_site_occupancy
   _atom_site_fract_x
   _atom_site_fract_y
   _atom_site_fract_z
   _atom_site_adp_type
   _atom_site_U_iso_or_equiv
   _atom_site_type_symbol
   Al1        1.0     0.119623     0.086993     0.389219    Uiso  ? Al
   Al2        1.0     0.780995     0.089124     0.885146    Uiso  ? Al
   Al3        1.0     0.445552     0.092501     0.398643    Uiso  ? Al
   Al4        1.0     0.231373     0.204329     0.647311    Uiso  ? Al
   Al5        1.0     0.776256     0.087649     0.390045    Uiso  ? Al
   Al6        1.0     0.890586     0.202407     0.148665    Uiso  ? Al
   Al7        1.0     0.449385     0.085999     0.880496    Uiso  ? Al
   Al8        1.0     0.548410     0.208176     0.645171    Uiso  ? Al
   Al9        1.0     0.116182     0.428215     0.389980    Uiso  ? Al
   Al10       1.0     0.217496     0.551357     0.142594    Uiso  ? Al
   Al11       1.0     0.442970     0.431242     0.394894    Uiso  ? Al
   Al12       1.0     0.553016     0.545314     0.140742    Uiso  ? Al
   Al13       1.0     0.114998     0.435608     0.887051    Uiso  ? Al
   Al14       1.0     0.226891     0.540142     0.640800    Uiso  ? Al
   Al15       1.0     0.770983     0.431545     0.376685    Uiso  ? Al
   Al16       1.0     0.885309     0.544324     0.143949    Uiso  ? Al
   Al17       1.0     0.439365     0.437339     0.882223    Uiso  ? Al
   Al18       1.0     0.542475     0.545903     0.642054    Uiso  ? Al
   Al19       1.0     0.110707     0.762452     0.390659    Uiso  ? Al
   Al20       1.0     0.222513     0.864812     0.142564    Uiso  ? Al
   Al21       1.0     0.775046     0.766746     0.894755    Uiso  ? Al
   Al22       1.0     0.887268     0.870810     0.642992    Uiso  ? Al
   Al23       1.0     0.442959     0.759016     0.390226    Uiso  ? Al
   Al24       1.0     0.559751     0.861023     0.139707    Uiso  ? Al
   Al25       1.0     0.232446     0.862731     0.642090    Uiso  ? Al
   Al26       1.0     0.776462     0.766432     0.384823    Uiso  ? Al
   Al27       1.0     0.897480     0.865464     0.140871    Uiso  ? Al
   Al28       1.0     0.443763     0.760788     0.888011    Uiso  ? Al
   Hf1        1.0     0.217496     0.206095     0.127580    Uiso  ? Hf
   Hf2        1.0     0.888184     0.200559     0.628266    Uiso  ? Hf
   Hf3        1.0     0.558789     0.207951     0.128409    Uiso  ? Hf
   Hf4        1.0     0.887194     0.544492     0.634754    Uiso  ? Hf
   Mg1        1.0     0.111730     0.086739     0.884483    Uiso  ? Mg
   Mg2        1.0     0.774585     0.428782     0.897417    Uiso  ? Mg
   Mg3        1.0     0.112661     0.762209     0.885915    Uiso  ? Mg
   Mg4        1.0     0.549551     0.873102     0.639637    Uiso  ? Mg
   N1         1.0     0.224484     0.205581     0.335100    Uiso  ? N
   N2         1.0     0.102557     0.084410     0.094352    Uiso  ? N
   N3         1.0     0.878958     0.200379     0.826279    Uiso  ? N
   N4         1.0     0.764008     0.086243     0.577343    Uiso  ? N
   N5         1.0     0.554207     0.206318     0.335389    Uiso  ? N
   N6         1.0     0.455215     0.075499     0.074643    Uiso  ? N
   N7         1.0     0.227712     0.214136     0.840190    Uiso  ? N
   N8         1.0     0.131914     0.087192     0.578723    Uiso  ? N
   N9         1.0     0.889780     0.200516     0.344371    Uiso  ? N
   N10        1.0     0.795981     0.084820     0.080004    Uiso  ? N
   N11        1.0     0.555479     0.206690     0.842093    Uiso  ? N
   N12        1.0     0.438841     0.108545     0.583648    Uiso  ? N
   N13        1.0     0.224312     0.538023     0.333716    Uiso  ? N
   N14        1.0     0.102496     0.448388     0.081209    Uiso  ? N
   N15        1.0     0.895750     0.548057     0.838130    Uiso  ? N
   N16        1.0     0.757021     0.438808     0.568759    Uiso  ? N
   N17        1.0     0.550380     0.538898     0.328963    Uiso  ? N
   N18        1.0     0.433975     0.447425     0.076587    Uiso  ? N
   N19        1.0     0.229380     0.527563     0.824767    Uiso  ? N
   N20        1.0     0.126269     0.420917     0.578016    Uiso  ? N
   N21        1.0     0.891811     0.538854     0.337581    Uiso  ? N
   N22        1.0     0.779826     0.425260     0.105847    Uiso  ? N
   N23        1.0     0.545401     0.544791     0.828428    Uiso  ? N
   N24        1.0     0.445840     0.425651     0.582880    Uiso  ? N
   N25        1.0     0.223408     0.870139     0.332961    Uiso  ? N
   N26        1.0     0.111063     0.762226     0.093542    Uiso  ? N
   N27        1.0     0.873054     0.878462     0.828799    Uiso  ? N
   N28        1.0     0.782112     0.771557     0.569799    Uiso  ? N
   N29        1.0     0.553540     0.873573     0.331754    Uiso  ? N
   N30        1.0     0.443426     0.761070     0.084537    Uiso  ? N
   N31        1.0     0.238941     0.863671     0.823370    Uiso  ? N
   N32        1.0     0.107882     0.763592     0.581528    Uiso  ? N
   N33        1.0     0.888968     0.872966     0.329951    Uiso  ? N
   N34        1.0     0.778984     0.761678     0.088458    Uiso  ? N
   N35        1.0     0.559129     0.866710     0.844301    Uiso  ? N
   N36        1.0     0.439328     0.751482     0.572999    Uiso  ? N
