
#======================================================================
# CRYSTAL DATA
#----------------------------------------------------------------------
data_VESTA_phase_1

_chemical_name_common                  'Al   Hf   Mg   N                      '
_cell_length_a                         10.180997
_cell_length_b                         10.158630
_cell_length_c                         8.709226
_cell_angle_alpha                      90.022690
_cell_angle_beta                       89.998940
_cell_angle_gamma                      59.816223
_cell_volume                           778.625023
_space_group_name_H-M_alt              'P 1'
_space_group_IT_number                 1

loop_
_space_group_symop_operation_xyz
   'x, y, z'

loop_
   _atom_site_label
   _atom_site_occupancy
   _atom_site_fract_x
   _atom_site_fract_y
   _atom_site_fract_z
   _atom_site_adp_type
   _atom_site_U_iso_or_equiv
   _atom_site_type_symbol
   Al1        1.0     0.114128     0.085438     0.354100    Uiso  ? Al
   Al2        1.0     0.774925     0.087272     0.842921    Uiso  ? Al
   Al3        1.0     0.449430     0.086240     0.364413    Uiso  ? Al
   Al4        1.0     0.227581     0.205948     0.596533    Uiso  ? Al
   Al5        1.0     0.782193     0.088045     0.348522    Uiso  ? Al
   Al6        1.0     0.890314     0.200748     0.092453    Uiso  ? Al
   Al7        1.0     0.448482     0.089238     0.828130    Uiso  ? Al
   Al8        1.0     0.550968     0.208668     0.592475    Uiso  ? Al
   Al9        1.0     0.114340     0.434923     0.348552    Uiso  ? Al
   Al10       1.0     0.219577     0.549820     0.086675    Uiso  ? Al
   Al11       1.0     0.439155     0.436599     0.352322    Uiso  ? Al
   Al12       1.0     0.547401     0.547690     0.094041    Uiso  ? Al
   Al13       1.0     0.120929     0.429160     0.844165    Uiso  ? Al
   Al14       1.0     0.224089     0.544178     0.597081    Uiso  ? Al
   Al15       1.0     0.773466     0.429095     0.336745    Uiso  ? Al
   Al16       1.0     0.888821     0.542972     0.096091    Uiso  ? Al
   Al17       1.0     0.442315     0.433197     0.833517    Uiso  ? Al
   Al18       1.0     0.547546     0.542390     0.589592    Uiso  ? Al
   Al19       1.0     0.112729     0.762782     0.350118    Uiso  ? Al
   Al20       1.0     0.225808     0.863777     0.081983    Uiso  ? Al
   Al21       1.0     0.773240     0.769893     0.854848    Uiso  ? Al
   Al22       1.0     0.891420     0.868698     0.591317    Uiso  ? Al
   Al23       1.0     0.441387     0.762328     0.350541    Uiso  ? Al
   Al24       1.0     0.556047     0.862464     0.101796    Uiso  ? Al
   Al25       1.0     0.226074     0.865546     0.603902    Uiso  ? Al
   Al26       1.0     0.774614     0.765754     0.338463    Uiso  ? Al
   Al27       1.0     0.894795     0.867204     0.094237    Uiso  ? Al
   Al28       1.0     0.444665     0.758383     0.835041    Uiso  ? Al
   Hf1        1.0     0.220416     0.204992     0.102976    Uiso  ? Hf
   Hf2        1.0     0.887953     0.203556     0.608897    Uiso  ? Hf
   Hf3        1.0     0.555873     0.208123     0.103678    Uiso  ? Hf
   Hf4        1.0     0.888807     0.542775     0.606191    Uiso  ? Hf
   Mg1        1.0     0.118097     0.087847     0.848674    Uiso  ? Mg
   Mg2        1.0     0.769120     0.432330     0.865076    Uiso  ? Mg
   Mg3        1.0     0.107746     0.763580     0.845196    Uiso  ? Mg
   Mg4        1.0     0.554533     0.868559     0.597537    Uiso  ? Mg
   N1         1.0     0.222505     0.208124     0.359464    Uiso  ? N
   N2         1.0     0.106136     0.084638     0.115844    Uiso  ? N
   N3         1.0     0.881303     0.195199     0.859549    Uiso  ? N
   N4         1.0     0.768326     0.086286     0.604924    Uiso  ? N
   N5         1.0     0.556017     0.206754     0.361011    Uiso  ? N
   N6         1.0     0.453466     0.078462     0.119292    Uiso  ? N
   N7         1.0     0.232045     0.211498     0.854496    Uiso  ? N
   N8         1.0     0.125591     0.091252     0.596918    Uiso  ? N
   N9         1.0     0.887798     0.204252     0.355453    Uiso  ? N
   N10        1.0     0.789874     0.086778     0.117542    Uiso  ? N
   N11        1.0     0.554081     0.206236     0.852677    Uiso  ? N
   N12        1.0     0.441175     0.104654     0.601559    Uiso  ? N
   N13        1.0     0.222773     0.541014     0.367743    Uiso  ? N
   N14        1.0     0.107356     0.444328     0.115072    Uiso  ? N
   N15        1.0     0.900059     0.543751     0.862012    Uiso  ? N
   N16        1.0     0.759848     0.437236     0.603707    Uiso  ? N
   N17        1.0     0.555490     0.537918     0.358607    Uiso  ? N
   N18        1.0     0.433841     0.443937     0.120449    Uiso  ? N
   N19        1.0     0.231473     0.528019     0.858238    Uiso  ? N
   N20        1.0     0.126643     0.422768     0.606547    Uiso  ? N
   N21        1.0     0.889864     0.539359     0.352717    Uiso  ? N
   N22        1.0     0.779055     0.427122     0.112705    Uiso  ? N
   N23        1.0     0.539691     0.545283     0.867193    Uiso  ? N
   N24        1.0     0.445769     0.427457     0.605254    Uiso  ? N
   N25        1.0     0.222791     0.870576     0.367212    Uiso  ? N
   N26        1.0     0.111276     0.762199     0.116819    Uiso  ? N
   N27        1.0     0.874540     0.879452     0.867695    Uiso  ? N
   N28        1.0     0.781848     0.770831     0.613759    Uiso  ? N
   N29        1.0     0.557786     0.868579     0.350532    Uiso  ? N
   N30        1.0     0.441473     0.761914     0.120061    Uiso  ? N
   N31        1.0     0.236350     0.863419     0.856838    Uiso  ? N
   N32        1.0     0.107037     0.764139     0.598361    Uiso  ? N
   N33        1.0     0.887655     0.870763     0.357944    Uiso  ? N
   N34        1.0     0.777838     0.760551     0.109000    Uiso  ? N
   N35        1.0     0.553439     0.871569     0.865020    Uiso  ? N
   N36        1.0     0.440294     0.752243     0.605553    Uiso  ? N
