
#======================================================================
# CRYSTAL DATA
#----------------------------------------------------------------------
data_VESTA_phase_1

_chemical_name_common                  'Al   Hf   Mg   N                      '
_cell_length_a                         10.058640
_cell_length_b                         10.036962
_cell_length_c                         9.065542
_cell_angle_alpha                      90.015175
_cell_angle_beta                       90.016647
_cell_angle_gamma                      59.855015
_cell_volume                           791.461137
_space_group_name_H-M_alt              'P 1'
_space_group_IT_number                 1

loop_
_space_group_symop_operation_xyz
   'x, y, z'

loop_
   _atom_site_label
   _atom_site_occupancy
   _atom_site_fract_x
   _atom_site_fract_y
   _atom_site_fract_z
   _atom_site_adp_type
   _atom_site_U_iso_or_equiv
   _atom_site_type_symbol
   Al1        1.0     0.120403     0.084667     0.362199    Uiso  ? Al
   Al2        1.0     0.780015     0.089141     0.870442    Uiso  ? Al
   Al3        1.0     0.445643     0.091514     0.387494    Uiso  ? Al
   Al4        1.0     0.226780     0.207598     0.627288    Uiso  ? Al
   Al5        1.0     0.776990     0.086886     0.367415    Uiso  ? Al
   Al6        1.0     0.890644     0.202265     0.118168    Uiso  ? Al
   Al7        1.0     0.451397     0.084480     0.848035    Uiso  ? Al
   Al8        1.0     0.551468     0.209559     0.625132    Uiso  ? Al
   Al9        1.0     0.120380     0.426437     0.366233    Uiso  ? Al
   Al10       1.0     0.218488     0.551248     0.126205    Uiso  ? Al
   Al11       1.0     0.443928     0.432570     0.378098    Uiso  ? Al
   Al12       1.0     0.550268     0.544593     0.114880    Uiso  ? Al
   Al13       1.0     0.113152     0.438465     0.871637    Uiso  ? Al
   Al14       1.0     0.225250     0.541588     0.620246    Uiso  ? Al
   Al15       1.0     0.769321     0.430423     0.346320    Uiso  ? Al
   Al16       1.0     0.887766     0.542870     0.124232    Uiso  ? Al
   Al17       1.0     0.436862     0.437505     0.864807    Uiso  ? Al
   Al18       1.0     0.544363     0.545290     0.631275    Uiso  ? Al
   Al19       1.0     0.110552     0.766046     0.366885    Uiso  ? Al
   Al20       1.0     0.222858     0.865224     0.111336    Uiso  ? Al
   Al21       1.0     0.773588     0.765861     0.880773    Uiso  ? Al
   Al22       1.0     0.888603     0.870652     0.628127    Uiso  ? Al
   Al23       1.0     0.440441     0.758441     0.369292    Uiso  ? Al
   Al24       1.0     0.557470     0.863435     0.120704    Uiso  ? Al
   Al25       1.0     0.230651     0.862956     0.632665    Uiso  ? Al
   Al26       1.0     0.775621     0.770293     0.360323    Uiso  ? Al
   Al27       1.0     0.897025     0.866131     0.118534    Uiso  ? Al
   Al28       1.0     0.446247     0.761268     0.876025    Uiso  ? Al
   Hf1        1.0     0.220789     0.203955     0.100721    Uiso  ? Hf
   Hf2        1.0     0.887058     0.202857     0.607928    Uiso  ? Hf
   Hf3        1.0     0.554902     0.207391     0.105490    Uiso  ? Hf
   Hf4        1.0     0.888879     0.543617     0.605702    Uiso  ? Hf
   Mg1        1.0     0.112079     0.088726     0.859641    Uiso  ? Mg
   Mg2        1.0     0.774727     0.431210     0.876083    Uiso  ? Mg
   Mg3        1.0     0.110781     0.760204     0.865234    Uiso  ? Mg
   Mg4        1.0     0.554019     0.865621     0.612843    Uiso  ? Mg
   N1         1.0     0.228559     0.203451     0.339188    Uiso  ? N
   N2         1.0     0.103806     0.087085     0.101383    Uiso  ? N
   N3         1.0     0.879743     0.199774     0.838974    Uiso  ? N
   N4         1.0     0.766083     0.086421     0.582490    Uiso  ? N
   N5         1.0     0.552017     0.206092     0.341940    Uiso  ? N
   N6         1.0     0.455442     0.074551     0.075203    Uiso  ? N
   N7         1.0     0.225714     0.216682     0.846499    Uiso  ? N
   N8         1.0     0.129960     0.087249     0.585218    Uiso  ? N
   N9         1.0     0.889215     0.200145     0.345822    Uiso  ? N
   N10        1.0     0.791273     0.086613     0.089762    Uiso  ? N
   N11        1.0     0.556952     0.207262     0.845313    Uiso  ? N
   N12        1.0     0.440280     0.106069     0.601110    Uiso  ? N
   N13        1.0     0.225862     0.539532     0.340458    Uiso  ? N
   N14        1.0     0.104758     0.446595     0.092139    Uiso  ? N
   N15        1.0     0.896139     0.548036     0.841973    Uiso  ? N
   N16        1.0     0.755415     0.439363     0.576636    Uiso  ? N
   N17        1.0     0.550412     0.537819     0.327192    Uiso  ? N
   N18        1.0     0.431965     0.444933     0.081791    Uiso  ? N
   N19        1.0     0.228139     0.528370     0.829154    Uiso  ? N
   N20        1.0     0.128020     0.420724     0.579926    Uiso  ? N
   N21        1.0     0.892980     0.537325     0.342981    Uiso  ? N
   N22        1.0     0.780765     0.426084     0.110981    Uiso  ? N
   N23        1.0     0.543888     0.545276     0.843052    Uiso  ? N
   N24        1.0     0.446823     0.426884     0.589878    Uiso  ? N
   N25        1.0     0.223908     0.869773     0.329751    Uiso  ? N
   N26        1.0     0.110285     0.761216     0.098340    Uiso  ? N
   N27        1.0     0.872234     0.878287     0.840186    Uiso  ? N
   N28        1.0     0.783450     0.771989     0.572691    Uiso  ? N
   N29        1.0     0.552088     0.875068     0.337764    Uiso  ? N
   N30        1.0     0.445499     0.760796     0.091318    Uiso  ? N
   N31        1.0     0.238049     0.863162     0.842368    Uiso  ? N
   N32        1.0     0.107425     0.766087     0.585582    Uiso  ? N
   N33        1.0     0.889587     0.873609     0.330340    Uiso  ? N
   N34        1.0     0.778211     0.760375     0.098015    Uiso  ? N
   N35        1.0     0.560243     0.864441     0.846574    Uiso  ? N
   N36        1.0     0.436902     0.750643     0.578392    Uiso  ? N
