
#======================================================================
# CRYSTAL DATA
#----------------------------------------------------------------------
data_VESTA_phase_1

_chemical_name_common                  'Al   Hf   Mg   N                      '
_cell_length_a                         9.875819
_cell_length_b                         9.848064
_cell_length_c                         9.620055
_cell_angle_alpha                      90.032471
_cell_angle_beta                       89.987663
_cell_angle_gamma                      59.812656
_cell_volume                           808.740338
_space_group_name_H-M_alt              'P 1'
_space_group_IT_number                 1

loop_
_space_group_symop_operation_xyz
   'x, y, z'

loop_
   _atom_site_label
   _atom_site_occupancy
   _atom_site_fract_x
   _atom_site_fract_y
   _atom_site_fract_z
   _atom_site_adp_type
   _atom_site_U_iso_or_equiv
   _atom_site_type_symbol
   Al1        1.0     0.107740     0.088838     0.337435    Uiso  ? Al
   Al2        1.0     0.771594     0.085988     0.827464    Uiso  ? Al
   Al3        1.0     0.452903     0.081984     0.341130    Uiso  ? Al
   Al4        1.0     0.230322     0.204932     0.568545    Uiso  ? Al
   Al5        1.0     0.785047     0.090668     0.332476    Uiso  ? Al
   Al6        1.0     0.891994     0.197516     0.063326    Uiso  ? Al
   Al7        1.0     0.444996     0.094670     0.818157    Uiso  ? Al
   Al8        1.0     0.549019     0.209150     0.571350    Uiso  ? Al
   Al9        1.0     0.107675     0.439538     0.330720    Uiso  ? Al
   Al10       1.0     0.218540     0.549974     0.072342    Uiso  ? Al
   Al11       1.0     0.439344     0.437438     0.334258    Uiso  ? Al
   Al12       1.0     0.546742     0.548221     0.077464    Uiso  ? Al
   Al13       1.0     0.125686     0.425344     0.829050    Uiso  ? Al
   Al14       1.0     0.225267     0.544131     0.579430    Uiso  ? Al
   Al15       1.0     0.777367     0.427077     0.321498    Uiso  ? Al
   Al16       1.0     0.888877     0.544907     0.068300    Uiso  ? Al
   Al17       1.0     0.442220     0.432210     0.823121    Uiso  ? Al
   Al18       1.0     0.545999     0.543353     0.574574    Uiso  ? Al
   Al19       1.0     0.111741     0.761647     0.331739    Uiso  ? Al
   Al20       1.0     0.225196     0.863847     0.074359    Uiso  ? Al
   Al21       1.0     0.775185     0.771328     0.833666    Uiso  ? Al
   Al22       1.0     0.890340     0.869457     0.572828    Uiso  ? Al
   Al23       1.0     0.445963     0.761932     0.329907    Uiso  ? Al
   Al24       1.0     0.558380     0.860762     0.075519    Uiso  ? Al
   Al25       1.0     0.226991     0.865247     0.577253    Uiso  ? Al
   Al26       1.0     0.773677     0.762363     0.323594    Uiso  ? Al
   Al27       1.0     0.893912     0.867042     0.079554    Uiso  ? Al
   Al28       1.0     0.439779     0.757164     0.825178    Uiso  ? Al
   Hf1        1.0     0.219045     0.205698     0.097352    Uiso  ? Hf
   Hf2        1.0     0.888606     0.202312     0.607279    Uiso  ? Hf
   Hf3        1.0     0.558201     0.207337     0.092613    Uiso  ? Hf
   Hf4        1.0     0.888984     0.542598     0.600009    Uiso  ? Hf
   Mg1        1.0     0.126225     0.085665     0.832078    Uiso  ? Mg
   Mg2        1.0     0.767116     0.433826     0.850935    Uiso  ? Mg
   Mg3        1.0     0.108502     0.764984     0.830106    Uiso  ? Mg
   Mg4        1.0     0.551104     0.871112     0.586456    Uiso  ? Mg
   N1         1.0     0.221663     0.208643     0.362059    Uiso  ? N
   N2         1.0     0.100792     0.085035     0.132300    Uiso  ? N
   N3         1.0     0.883940     0.191740     0.861889    Uiso  ? N
   N4         1.0     0.763478     0.085486     0.624491    Uiso  ? N
   N5         1.0     0.556767     0.206762     0.365786    Uiso  ? N
   N6         1.0     0.457203     0.073195     0.138875    Uiso  ? N
   N7         1.0     0.234295     0.211815     0.883123    Uiso  ? N
   N8         1.0     0.131876     0.088823     0.610742    Uiso  ? N
   N9         1.0     0.886165     0.207563     0.380636    Uiso  ? N
   N10        1.0     0.795240     0.086649     0.133842    Uiso  ? N
   N11        1.0     0.553285     0.206448     0.874637    Uiso  ? N
   N12        1.0     0.438724     0.109125     0.619342    Uiso  ? N
   N13        1.0     0.221838     0.540422     0.380874    Uiso  ? N
   N14        1.0     0.101425     0.449607     0.132081    Uiso  ? N
   N15        1.0     0.901788     0.544645     0.866659    Uiso  ? N
   N16        1.0     0.755424     0.439777     0.629359    Uiso  ? N
   N17        1.0     0.558006     0.537843     0.374556    Uiso  ? N
   N18        1.0     0.432541     0.446851     0.136656    Uiso  ? N
   N19        1.0     0.232429     0.526635     0.878508    Uiso  ? N
   N20        1.0     0.132057     0.418760     0.626474    Uiso  ? N
   N21        1.0     0.887596     0.539137     0.376353    Uiso  ? N
   N22        1.0     0.781355     0.424988     0.116815    Uiso  ? N
   N23        1.0     0.536466     0.545382     0.884839    Uiso  ? N
   N24        1.0     0.445640     0.426727     0.621331    Uiso  ? N
   N25        1.0     0.224457     0.869547     0.376416    Uiso  ? N
   N26        1.0     0.110300     0.761570     0.130855    Uiso  ? N
   N27        1.0     0.873057     0.880871     0.887132    Uiso  ? N
   N28        1.0     0.782003     0.774288     0.636083    Uiso  ? N
   N29        1.0     0.559554     0.865665     0.372076    Uiso  ? N
   N30        1.0     0.444390     0.761697     0.132477    Uiso  ? N
   N31        1.0     0.236545     0.863725     0.884372    Uiso  ? N
   N32        1.0     0.106908     0.765579     0.612498    Uiso  ? N
   N33        1.0     0.886654     0.870854     0.373440    Uiso  ? N
   N34        1.0     0.777649     0.758950     0.124513    Uiso  ? N
   N35        1.0     0.553189     0.872495     0.874233    Uiso  ? N
   N36        1.0     0.436512     0.751218     0.627981    Uiso  ? N
