
#======================================================================
# CRYSTAL DATA
#----------------------------------------------------------------------
data_VESTA_phase_1

_chemical_name_common                  'Al   Hf   Mg   N                      '
_cell_length_a                         9.872474
_cell_length_b                         9.852662
_cell_length_c                         9.614430
_cell_angle_alpha                      89.996094
_cell_angle_beta                       90.007614
_cell_angle_gamma                      59.878765
_cell_volume                           808.913173
_space_group_name_H-M_alt              'P 1'
_space_group_IT_number                 1

loop_
_space_group_symop_operation_xyz
   'x, y, z'

loop_
   _atom_site_label
   _atom_site_occupancy
   _atom_site_fract_x
   _atom_site_fract_y
   _atom_site_fract_z
   _atom_site_adp_type
   _atom_site_U_iso_or_equiv
   _atom_site_type_symbol
   Al1        1.0     0.123364     0.085970     0.374614    Uiso  ? Al
   Al2        1.0     0.782811     0.089150     0.875933    Uiso  ? Al
   Al3        1.0     0.444509     0.093985     0.389862    Uiso  ? Al
   Al4        1.0     0.229583     0.206390     0.639526    Uiso  ? Al
   Al5        1.0     0.773974     0.087068     0.376697    Uiso  ? Al
   Al6        1.0     0.891578     0.201000     0.138146    Uiso  ? Al
   Al7        1.0     0.452381     0.082247     0.864056    Uiso  ? Al
   Al8        1.0     0.549803     0.209307     0.636840    Uiso  ? Al
   Al9        1.0     0.121282     0.424589     0.375723    Uiso  ? Al
   Al10       1.0     0.217195     0.552200     0.132788    Uiso  ? Al
   Al11       1.0     0.443908     0.430609     0.383479    Uiso  ? Al
   Al12       1.0     0.550805     0.545373     0.126661    Uiso  ? Al
   Al13       1.0     0.111694     0.440257     0.877263    Uiso  ? Al
   Al14       1.0     0.226887     0.540074     0.628160    Uiso  ? Al
   Al15       1.0     0.768852     0.431923     0.357537    Uiso  ? Al
   Al16       1.0     0.887045     0.543983     0.136013    Uiso  ? Al
   Al17       1.0     0.436914     0.439786     0.872894    Uiso  ? Al
   Al18       1.0     0.543693     0.545193     0.634094    Uiso  ? Al
   Al19       1.0     0.110329     0.764564     0.378222    Uiso  ? Al
   Al20       1.0     0.222048     0.865150     0.126137    Uiso  ? Al
   Al21       1.0     0.774244     0.765246     0.884219    Uiso  ? Al
   Al22       1.0     0.886905     0.871616     0.634055    Uiso  ? Al
   Al23       1.0     0.441202     0.758342     0.378212    Uiso  ? Al
   Al24       1.0     0.558942     0.861584     0.129918    Uiso  ? Al
   Al25       1.0     0.232101     0.862897     0.635057    Uiso  ? Al
   Al26       1.0     0.775959     0.769648     0.371530    Uiso  ? Al
   Al27       1.0     0.897703     0.865448     0.127208    Uiso  ? Al
   Al28       1.0     0.445337     0.760940     0.879898    Uiso  ? Al
   Hf1        1.0     0.218645     0.204818     0.103608    Uiso  ? Hf
   Hf2        1.0     0.887076     0.202127     0.610215    Uiso  ? Hf
   Hf3        1.0     0.557092     0.207323     0.109078    Uiso  ? Hf
   Hf4        1.0     0.888731     0.543506     0.613067    Uiso  ? Hf
   Mg1        1.0     0.108773     0.087527     0.868725    Uiso  ? Mg
   Mg2        1.0     0.776100     0.429143     0.884866    Uiso  ? Mg
   Mg3        1.0     0.111672     0.761305     0.872475    Uiso  ? Mg
   Mg4        1.0     0.551625     0.869244     0.622452    Uiso  ? Mg
   N1         1.0     0.227554     0.204184     0.326509    Uiso  ? N
   N2         1.0     0.101901     0.085319     0.091001    Uiso  ? N
   N3         1.0     0.877828     0.201121     0.821394    Uiso  ? N
   N4         1.0     0.762802     0.086684     0.574376    Uiso  ? N
   N5         1.0     0.552667     0.206205     0.329119    Uiso  ? N
   N6         1.0     0.456960     0.072110     0.069259    Uiso  ? N
   N7         1.0     0.226793     0.215526     0.844700    Uiso  ? N
   N8         1.0     0.132703     0.087947     0.577220    Uiso  ? N
   N9         1.0     0.890479     0.198895     0.343631    Uiso  ? N
   N10        1.0     0.795444     0.085621     0.079345    Uiso  ? N
   N11        1.0     0.556269     0.207158     0.843611    Uiso  ? N
   N12        1.0     0.438996     0.108724     0.587700    Uiso  ? N
   N13        1.0     0.225022     0.539127     0.332047    Uiso  ? N
   N14        1.0     0.101634     0.449817     0.080987    Uiso  ? N
   N15        1.0     0.895774     0.548028     0.830067    Uiso  ? N
   N16        1.0     0.754369     0.440107     0.564323    Uiso  ? N
   N17        1.0     0.548739     0.539021     0.323285    Uiso  ? N
   N18        1.0     0.431669     0.447828     0.074478    Uiso  ? N
   N19        1.0     0.228912     0.527670     0.821610    Uiso  ? N
   N20        1.0     0.129808     0.418680     0.573791    Uiso  ? N
   N21        1.0     0.893350     0.538449     0.339363    Uiso  ? N
   N22        1.0     0.780902     0.425220     0.107740    Uiso  ? N
   N23        1.0     0.545265     0.544841     0.830596    Uiso  ? N
   N24        1.0     0.446960     0.425334     0.581113    Uiso  ? N
   N25        1.0     0.223434     0.870229     0.326682    Uiso  ? N
   N26        1.0     0.110614     0.761767     0.089336    Uiso  ? N
   N27        1.0     0.871835     0.878829     0.829636    Uiso  ? N
   N28        1.0     0.782699     0.773019     0.566252    Uiso  ? N
   N29        1.0     0.552665     0.874384     0.331225    Uiso  ? N
   N30        1.0     0.444314     0.761149     0.082574    Uiso  ? N
   N31        1.0     0.239234     0.863015     0.826902    Uiso  ? N
   N32        1.0     0.107146     0.765275     0.579436    Uiso  ? N
   N33        1.0     0.889369     0.873462     0.324759    Uiso  ? N
   N34        1.0     0.778653     0.760073     0.087618    Uiso  ? N
   N35        1.0     0.560397     0.864046     0.838016    Uiso  ? N
   N36        1.0     0.437573     0.750372     0.570688    Uiso  ? N
