
#======================================================================
# CRYSTAL DATA
#----------------------------------------------------------------------
data_VESTA_phase_1

_chemical_name_common                  'Al   Hf   Mg   N                      '
_cell_length_a                         10.060608
_cell_length_b                         10.034451
_cell_length_c                         9.072380
_cell_angle_alpha                      90.023636
_cell_angle_beta                       89.991463
_cell_angle_gamma                      59.814152
_cell_volume                           791.686514
_space_group_name_H-M_alt              'P 1'
_space_group_IT_number                 1

loop_
_space_group_symop_operation_xyz
   'x, y, z'

loop_
   _atom_site_label
   _atom_site_occupancy
   _atom_site_fract_x
   _atom_site_fract_y
   _atom_site_fract_z
   _atom_site_adp_type
   _atom_site_U_iso_or_equiv
   _atom_site_type_symbol
   Al1        1.0     0.110699     0.087091     0.348797    Uiso  ? Al
   Al2        1.0     0.772399     0.086439     0.833376    Uiso  ? Al
   Al3        1.0     0.451324     0.083990     0.356255    Uiso  ? Al
   Al4        1.0     0.227964     0.206094     0.580172    Uiso  ? Al
   Al5        1.0     0.784272     0.089672     0.341149    Uiso  ? Al
   Al6        1.0     0.891233     0.198723     0.076475    Uiso  ? Al
   Al7        1.0     0.446762     0.092060     0.821187    Uiso  ? Al
   Al8        1.0     0.550493     0.209377     0.579825    Uiso  ? Al
   Al9        1.0     0.110252     0.438332     0.339836    Uiso  ? Al
   Al10       1.0     0.219214     0.549769     0.077791    Uiso  ? Al
   Al11       1.0     0.438631     0.437486     0.343783    Uiso  ? Al
   Al12       1.0     0.545642     0.548569     0.086454    Uiso  ? Al
   Al13       1.0     0.124404     0.426058     0.834870    Uiso  ? Al
   Al14       1.0     0.224488     0.544203     0.588745    Uiso  ? Al
   Al15       1.0     0.776483     0.427721     0.328170    Uiso  ? Al
   Al16       1.0     0.889780     0.543395     0.080250    Uiso  ? Al
   Al17       1.0     0.443034     0.432180     0.827239    Uiso  ? Al
   Al18       1.0     0.547752     0.542222     0.579480    Uiso  ? Al
   Al19       1.0     0.112899     0.762080     0.342622    Uiso  ? Al
   Al20       1.0     0.225712     0.863553     0.075339    Uiso  ? Al
   Al21       1.0     0.773854     0.771476     0.844365    Uiso  ? Al
   Al22       1.0     0.890669     0.868630     0.579547    Uiso  ? Al
   Al23       1.0     0.442831     0.762683     0.341346    Uiso  ? Al
   Al24       1.0     0.556320     0.862056     0.090469    Uiso  ? Al
   Al25       1.0     0.226071     0.865626     0.592580    Uiso  ? Al
   Al26       1.0     0.774473     0.762978     0.328906    Uiso  ? Al
   Al27       1.0     0.894553     0.867691     0.087209    Uiso  ? Al
   Al28       1.0     0.443271     0.757095     0.828020    Uiso  ? Al
   Hf1        1.0     0.220134     0.205299     0.102459    Uiso  ? Hf
   Hf2        1.0     0.887859     0.203770     0.610078    Uiso  ? Hf
   Hf3        1.0     0.556931     0.207490     0.101135    Uiso  ? Hf
   Hf4        1.0     0.888429     0.542856     0.606079    Uiso  ? Hf
   Mg1        1.0     0.121891     0.087687     0.842024    Uiso  ? Mg
   Mg2        1.0     0.767425     0.433149     0.860687    Uiso  ? Mg
   Mg3        1.0     0.106962     0.764330     0.837696    Uiso  ? Mg
   Mg4        1.0     0.554212     0.868624     0.592115    Uiso  ? Mg
   N1         1.0     0.221134     0.209238     0.360065    Uiso  ? N
   N2         1.0     0.104091     0.084302     0.122762    Uiso  ? N
   N3         1.0     0.882165     0.193008     0.859824    Uiso  ? N
   N4         1.0     0.766031     0.085865     0.613830    Uiso  ? N
   N5         1.0     0.556908     0.207181     0.361908    Uiso  ? N
   N6         1.0     0.455023     0.076136     0.132471    Uiso  ? N
   N7         1.0     0.234260     0.211102     0.869350    Uiso  ? N
   N8         1.0     0.128044     0.090909     0.602443    Uiso  ? N
   N9         1.0     0.886989     0.206548     0.369019    Uiso  ? N
   N10        1.0     0.792657     0.086971     0.127279    Uiso  ? N
   N11        1.0     0.553242     0.206149     0.864183    Uiso  ? N
   N12        1.0     0.440267     0.106538     0.605594    Uiso  ? N
   N13        1.0     0.222176     0.540824     0.375939    Uiso  ? N
   N14        1.0     0.104638     0.447246     0.124606    Uiso  ? N
   N15        1.0     0.901769     0.543553     0.863191    Uiso  ? N
   N16        1.0     0.757506     0.438596     0.618394    Uiso  ? N
   N17        1.0     0.557742     0.537308     0.365666    Uiso  ? N
   N18        1.0     0.432452     0.445398     0.129887    Uiso  ? N
   N19        1.0     0.232316     0.527187     0.867236    Uiso  ? N
   N20        1.0     0.129186     0.420657     0.616471    Uiso  ? N
   N21        1.0     0.888253     0.539447     0.365799    Uiso  ? N
   N22        1.0     0.780928     0.425786     0.112824    Uiso  ? N
   N23        1.0     0.537337     0.545683     0.877597    Uiso  ? N
   N24        1.0     0.446199     0.427039     0.612111    Uiso  ? N
   N25        1.0     0.223293     0.870347     0.374416    Uiso  ? N
   N26        1.0     0.111390     0.761821     0.123716    Uiso  ? N
   N27        1.0     0.873760     0.880782     0.879141    Uiso  ? N
   N28        1.0     0.781990     0.772687     0.627975    Uiso  ? N
   N29        1.0     0.559542     0.866115     0.360490    Uiso  ? N
   N30        1.0     0.441421     0.762403     0.127650    Uiso  ? N
   N31        1.0     0.236528     0.863194     0.867295    Uiso  ? N
   N32        1.0     0.106322     0.764854     0.604542    Uiso  ? N
   N33        1.0     0.886756     0.870355     0.365383    Uiso  ? N
   N34        1.0     0.777929     0.759257     0.115600    Uiso  ? N
   N35        1.0     0.552428     0.872760     0.869703    Uiso  ? N
   N36        1.0     0.439499     0.751072     0.615319    Uiso  ? N
