
#======================================================================
# CRYSTAL DATA
#----------------------------------------------------------------------
data_VESTA_phase_1

_chemical_name_common                  'Al   Hf   Mg   N                      '
_cell_length_a                         9.686779
_cell_length_b                         9.678168
_cell_length_c                         10.123282
_cell_angle_alpha                      89.956955
_cell_angle_beta                       89.986107
_cell_angle_gamma                      59.877499
_cell_volume                           820.893846
_space_group_name_H-M_alt              'P 1'
_space_group_IT_number                 1

loop_
_space_group_symop_operation_xyz
   'x, y, z'

loop_
   _atom_site_label
   _atom_site_occupancy
   _atom_site_fract_x
   _atom_site_fract_y
   _atom_site_fract_z
   _atom_site_adp_type
   _atom_site_U_iso_or_equiv
   _atom_site_type_symbol
   Al1        1.0     0.119607     0.086990     0.392955    Uiso  ? Al
   Al2        1.0     0.780992     0.089120     0.888869    Uiso  ? Al
   Al3        1.0     0.445561     0.092490     0.402375    Uiso  ? Al
   Al4        1.0     0.231373     0.204325     0.651017    Uiso  ? Al
   Al5        1.0     0.776270     0.087650     0.393776    Uiso  ? Al
   Al6        1.0     0.890587     0.202407     0.152373    Uiso  ? Al
   Al7        1.0     0.449373     0.086016     0.884219    Uiso  ? Al
   Al8        1.0     0.548413     0.208170     0.648888    Uiso  ? Al
   Al9        1.0     0.116168     0.428228     0.393717    Uiso  ? Al
   Al10       1.0     0.217504     0.551349     0.146310    Uiso  ? Al
   Al11       1.0     0.442970     0.431241     0.398623    Uiso  ? Al
   Al12       1.0     0.553023     0.545311     0.144470    Uiso  ? Al
   Al13       1.0     0.115012     0.435587     0.890775    Uiso  ? Al
   Al14       1.0     0.226891     0.540140     0.644532    Uiso  ? Al
   Al15       1.0     0.770994     0.431536     0.380415    Uiso  ? Al
   Al16       1.0     0.885310     0.544322     0.147663    Uiso  ? Al
   Al17       1.0     0.439378     0.437327     0.885936    Uiso  ? Al
   Al18       1.0     0.542477     0.545901     0.645767    Uiso  ? Al
   Al19       1.0     0.110713     0.762443     0.394380    Uiso  ? Al
   Al20       1.0     0.222519     0.864810     0.146292    Uiso  ? Al
   Al21       1.0     0.775051     0.766749     0.898484    Uiso  ? Al
   Al22       1.0     0.887273     0.870804     0.646706    Uiso  ? Al
   Al23       1.0     0.442964     0.759016     0.393952    Uiso  ? Al
   Al24       1.0     0.559750     0.861026     0.143423    Uiso  ? Al
   Al25       1.0     0.232448     0.862725     0.645810    Uiso  ? Al
   Al26       1.0     0.776465     0.766423     0.388542    Uiso  ? Al
   Al27       1.0     0.897483     0.865464     0.144601    Uiso  ? Al
   Al28       1.0     0.443764     0.760785     0.891729    Uiso  ? Al
   Hf1        1.0     0.217497     0.206093     0.131364    Uiso  ? Hf
   Hf2        1.0     0.888187     0.200556     0.632027    Uiso  ? Hf
   Hf3        1.0     0.558795     0.207948     0.132162    Uiso  ? Hf
   Hf4        1.0     0.887187     0.544497     0.638507    Uiso  ? Hf
   Mg1        1.0     0.111753     0.086739     0.888219    Uiso  ? Mg
   Mg2        1.0     0.774583     0.428785     0.901150    Uiso  ? Mg
   Mg3        1.0     0.112664     0.762209     0.889642    Uiso  ? Mg
   Mg4        1.0     0.549551     0.873103     0.643377    Uiso  ? Mg
   N1         1.0     0.224478     0.205579     0.338852    Uiso  ? N
   N2         1.0     0.102571     0.084410     0.098065    Uiso  ? N
   N3         1.0     0.878968     0.200374     0.830017    Uiso  ? N
   N4         1.0     0.764021     0.086242     0.581056    Uiso  ? N
   N5         1.0     0.554211     0.206314     0.339119    Uiso  ? N
   N6         1.0     0.455204     0.075516     0.078354    Uiso  ? N
   N7         1.0     0.227713     0.214135     0.843861    Uiso  ? N
   N8         1.0     0.131905     0.087186     0.582435    Uiso  ? N
   N9         1.0     0.889779     0.200517     0.348062    Uiso  ? N
   N10        1.0     0.795977     0.084817     0.083711    Uiso  ? N
   N11        1.0     0.555481     0.206686     0.845784    Uiso  ? N
   N12        1.0     0.438847     0.108537     0.587354    Uiso  ? N
   N13        1.0     0.224315     0.538015     0.337422    Uiso  ? N
   N14        1.0     0.102510     0.448371     0.084918    Uiso  ? N
   N15        1.0     0.895752     0.548056     0.841861    Uiso  ? N
   N16        1.0     0.757037     0.438798     0.572472    Uiso  ? N
   N17        1.0     0.550386     0.538893     0.332678    Uiso  ? N
   N18        1.0     0.433990     0.447414     0.080292    Uiso  ? N
   N19        1.0     0.229383     0.527560     0.828482    Uiso  ? N
   N20        1.0     0.126254     0.420929     0.581732    Uiso  ? N
   N21        1.0     0.891810     0.538851     0.341276    Uiso  ? N
   N22        1.0     0.779826     0.425262     0.109549    Uiso  ? N
   N23        1.0     0.545406     0.544789     0.832125    Uiso  ? N
   N24        1.0     0.445839     0.425651     0.586591    Uiso  ? N
   N25        1.0     0.223410     0.870135     0.336675    Uiso  ? N
   N26        1.0     0.111069     0.762223     0.097256    Uiso  ? N
   N27        1.0     0.873059     0.878458     0.832498    Uiso  ? N
   N28        1.0     0.782112     0.771550     0.573504    Uiso  ? N
   N29        1.0     0.553541     0.873572     0.335457    Uiso  ? N
   N30        1.0     0.443429     0.761067     0.088246    Uiso  ? N
   N31        1.0     0.238942     0.863671     0.827071    Uiso  ? N
   N32        1.0     0.107889     0.763583     0.585235    Uiso  ? N
   N33        1.0     0.888970     0.872964     0.333666    Uiso  ? N
   N34        1.0     0.778987     0.761683     0.092170    Uiso  ? N
   N35        1.0     0.559128     0.866716     0.848025    Uiso  ? N
   N36        1.0     0.439334     0.751484     0.576708    Uiso  ? N
