
#======================================================================
# CRYSTAL DATA
#----------------------------------------------------------------------
data_VESTA_phase_1

_chemical_name_common                  'Al   Hf   Mg   N                      '
_cell_length_a                         9.691877
_cell_length_b                         9.673865
_cell_length_c                         10.127342
_cell_angle_alpha                      90.056023
_cell_angle_beta                       90.027397
_cell_angle_gamma                      59.800747
_cell_volume                           820.650752
_space_group_name_H-M_alt              'P 1'
_space_group_IT_number                 1

loop_
_space_group_symop_operation_xyz
   'x, y, z'

loop_
   _atom_site_label
   _atom_site_occupancy
   _atom_site_fract_x
   _atom_site_fract_y
   _atom_site_fract_z
   _atom_site_adp_type
   _atom_site_U_iso_or_equiv
   _atom_site_type_symbol
   Al1        1.0     0.111345     0.088726     0.306740    Uiso  ? Al
   Al2        1.0     0.776841     0.086940     0.803585    Uiso  ? Al
   Al3        1.0     0.450688     0.086009     0.310773    Uiso  ? Al
   Al4        1.0     0.231122     0.203776     0.547620    Uiso  ? Al
   Al5        1.0     0.780449     0.090252     0.304758    Uiso  ? Al
   Al6        1.0     0.890345     0.199455     0.043453    Uiso  ? Al
   Al7        1.0     0.444912     0.093044     0.794187    Uiso  ? Al
   Al8        1.0     0.548308     0.208018     0.552010    Uiso  ? Al
   Al9        1.0     0.111531     0.433932     0.302409    Uiso  ? Al
   Al10       1.0     0.219201     0.548919     0.049043    Uiso  ? Al
   Al11       1.0     0.441820     0.433650     0.307916    Uiso  ? Al
   Al12       1.0     0.549941     0.547042     0.050577    Uiso  ? Al
   Al13       1.0     0.120187     0.429565     0.805156    Uiso  ? Al
   Al14       1.0     0.225621     0.543511     0.552264    Uiso  ? Al
   Al15       1.0     0.774405     0.429418     0.294751    Uiso  ? Al
   Al16       1.0     0.887046     0.545296     0.046787    Uiso  ? Al
   Al17       1.0     0.441313     0.433903     0.798951    Uiso  ? Al
   Al18       1.0     0.543942     0.545442     0.551596    Uiso  ? Al
   Al19       1.0     0.111464     0.760912     0.304563    Uiso  ? Al
   Al20       1.0     0.224846     0.863928     0.051792    Uiso  ? Al
   Al21       1.0     0.777509     0.767406     0.809232    Uiso  ? Al
   Al22       1.0     0.890638     0.869355     0.550210    Uiso  ? Al
   Al23       1.0     0.446659     0.761521     0.301789    Uiso  ? Al
   Al24       1.0     0.559606     0.861110     0.049203    Uiso  ? Al
   Al25       1.0     0.228015     0.864477     0.549695    Uiso  ? Al
   Al26       1.0     0.773187     0.765237     0.296540    Uiso  ? Al
   Al27       1.0     0.893876     0.866890     0.052275    Uiso  ? Al
   Al28       1.0     0.439203     0.758573     0.804378    Uiso  ? Al
   Hf1        1.0     0.218386     0.204727     0.060254    Uiso  ? Hf
   Hf2        1.0     0.888212     0.201896     0.564563    Uiso  ? Hf
   Hf3        1.0     0.559003     0.208115     0.054410    Uiso  ? Hf
   Hf4        1.0     0.888734     0.544241     0.560660    Uiso  ? Hf
   Mg1        1.0     0.119368     0.086030     0.803766    Uiso  ? Mg
   Mg2        1.0     0.771201     0.431934     0.818068    Uiso  ? Mg
   Mg3        1.0     0.110900     0.764117     0.804597    Uiso  ? Mg
   Mg4        1.0     0.549603     0.873090     0.557586    Uiso  ? Mg
   N1         1.0     0.222295     0.207314     0.349963    Uiso  ? N
   N2         1.0     0.101350     0.084927     0.116561    Uiso  ? N
   N3         1.0     0.882405     0.193930     0.856960    Uiso  ? N
   N4         1.0     0.766109     0.085100     0.610851    Uiso  ? N
   N5         1.0     0.556055     0.206280     0.355613    Uiso  ? N
   N6         1.0     0.456066     0.077217     0.118615    Uiso  ? N
   N7         1.0     0.231364     0.211999     0.859771    Uiso  ? N
   N8         1.0     0.130070     0.087693     0.595019    Uiso  ? N
   N9         1.0     0.886375     0.207019     0.355682    Uiso  ? N
   N10        1.0     0.792800     0.085995     0.117151    Uiso  ? N
   N11        1.0     0.553947     0.206225     0.850164    Uiso  ? N
   N12        1.0     0.438274     0.108199     0.607966    Uiso  ? N
   N13        1.0     0.222283     0.538877     0.361744    Uiso  ? N
   N14        1.0     0.103601     0.445801     0.114408    Uiso  ? N
   N15        1.0     0.900549     0.545405     0.857986    Uiso  ? N
   N16        1.0     0.758014     0.439242     0.609573    Uiso  ? N
   N17        1.0     0.556463     0.539025     0.359402    Uiso  ? N
   N18        1.0     0.435688     0.444577     0.119009    Uiso  ? N
   N19        1.0     0.232653     0.525481     0.865015    Uiso  ? N
   N20        1.0     0.129076     0.421104     0.611493    Uiso  ? N
   N21        1.0     0.887953     0.539785     0.351561    Uiso  ? N
   N22        1.0     0.779210     0.426488     0.103273    Uiso  ? N
   N23        1.0     0.538899     0.544436     0.867308    Uiso  ? N
   N24        1.0     0.444641     0.427868     0.606334    Uiso  ? N
   N25        1.0     0.225160     0.869007     0.357581    Uiso  ? N
   N26        1.0     0.110032     0.760970     0.113926    Uiso  ? N
   N27        1.0     0.873454     0.880483     0.869424    Uiso  ? N
   N28        1.0     0.782730     0.772618     0.620835    Uiso  ? N
   N29        1.0     0.558243     0.868098     0.352350    Uiso  ? N
   N30        1.0     0.445905     0.761139     0.113647    Uiso  ? N
   N31        1.0     0.236232     0.865418     0.872211    Uiso  ? N
   N32        1.0     0.108478     0.764522     0.595647    Uiso  ? N
   N33        1.0     0.887087     0.870995     0.358535    Uiso  ? N
   N34        1.0     0.777622     0.761069     0.107964    Uiso  ? N
   N35        1.0     0.554220     0.872149     0.858701    Uiso  ? N
   N36        1.0     0.435620     0.752812     0.615101    Uiso  ? N
