
#======================================================================
# CRYSTAL DATA
#----------------------------------------------------------------------
data_VESTA_phase_1

_chemical_name_common                  'Al   Hf   Mg   N                      '
_cell_length_a                         9.717449
_cell_length_b                         9.705675
_cell_length_c                         10.041613
_cell_angle_alpha                      89.964920
_cell_angle_beta                       89.989883
_cell_angle_gamma                      59.888813
_cell_volume                           819.264932
_space_group_name_H-M_alt              'P 1'
_space_group_IT_number                 1

loop_
_space_group_symop_operation_xyz
   'x, y, z'

loop_
   _atom_site_label
   _atom_site_occupancy
   _atom_site_fract_x
   _atom_site_fract_y
   _atom_site_fract_z
   _atom_site_adp_type
   _atom_site_U_iso_or_equiv
   _atom_site_type_symbol
   Al1        1.0     0.120856     0.086963     0.381030    Uiso  ? Al
   Al2        1.0     0.781573     0.089165     0.877834    Uiso  ? Al
   Al3        1.0     0.445132     0.093084     0.390887    Uiso  ? Al
   Al4        1.0     0.231395     0.204588     0.641115    Uiso  ? Al
   Al5        1.0     0.775475     0.087495     0.382039    Uiso  ? Al
   Al6        1.0     0.890810     0.202065     0.141938    Uiso  ? Al
   Al7        1.0     0.450383     0.084720     0.872920    Uiso  ? Al
   Al8        1.0     0.548503     0.208391     0.638489    Uiso  ? Al
   Al9        1.0     0.117515     0.427126     0.381728    Uiso  ? Al
   Al10       1.0     0.217232     0.551734     0.135359    Uiso  ? Al
   Al11       1.0     0.443157     0.431006     0.387132    Uiso  ? Al
   Al12       1.0     0.552640     0.545366     0.132886    Uiso  ? Al
   Al13       1.0     0.114091     0.436977     0.879745    Uiso  ? Al
   Al14       1.0     0.227052     0.540076     0.632939    Uiso  ? Al
   Al15       1.0     0.770406     0.431819     0.368039    Uiso  ? Al
   Al16       1.0     0.885533     0.544314     0.137383    Uiso  ? Al
   Al17       1.0     0.438751     0.438118     0.875292    Uiso  ? Al
   Al18       1.0     0.542639     0.545759     0.635052    Uiso  ? Al
   Al19       1.0     0.110548     0.762896     0.383079    Uiso  ? Al
   Al20       1.0     0.222349     0.864869     0.134370    Uiso  ? Al
   Al21       1.0     0.774908     0.766325     0.887024    Uiso  ? Al
   Al22       1.0     0.887062     0.871108     0.635916    Uiso  ? Al
   Al23       1.0     0.442654     0.758887     0.382694    Uiso  ? Al
   Al24       1.0     0.559834     0.860745     0.132727    Uiso  ? Al
   Al25       1.0     0.232443     0.862849     0.635095    Uiso  ? Al
   Al26       1.0     0.776377     0.767083     0.377219    Uiso  ? Al
   Al27       1.0     0.897523     0.865367     0.132827    Uiso  ? Al
   Al28       1.0     0.444014     0.760771     0.880990    Uiso  ? Al
   Hf1        1.0     0.217492     0.205902     0.116079    Uiso  ? Hf
   Hf2        1.0     0.887990     0.200778     0.618408    Uiso  ? Hf
   Hf3        1.0     0.558619     0.207880     0.118655    Uiso  ? Hf
   Hf4        1.0     0.887710     0.544158     0.624850    Uiso  ? Hf
   Mg1        1.0     0.110493     0.086704     0.875971    Uiso  ? Mg
   Mg2        1.0     0.775014     0.428641     0.889456    Uiso  ? Mg
   Mg3        1.0     0.112504     0.762104     0.877986    Uiso  ? Mg
   Mg4        1.0     0.549767     0.872674     0.630913    Uiso  ? Mg
   N1         1.0     0.225108     0.205400     0.326213    Uiso  ? N
   N2         1.0     0.102027     0.084365     0.087579    Uiso  ? N
   N3         1.0     0.878467     0.200626     0.818286    Uiso  ? N
   N4         1.0     0.763315     0.086320     0.570784    Uiso  ? N
   N5         1.0     0.553966     0.206378     0.327553    Uiso  ? N
   N6         1.0     0.456055     0.074186     0.068089    Uiso  ? N
   N7         1.0     0.227691     0.214235     0.836544    Uiso  ? N
   N8         1.0     0.132552     0.087481     0.572469    Uiso  ? N
   N9         1.0     0.890049     0.200146     0.339039    Uiso  ? N
   N10        1.0     0.796308     0.084891     0.073831    Uiso  ? N
   N11        1.0     0.555543     0.206770     0.837260    Uiso  ? N
   N12        1.0     0.438649     0.108945     0.577930    Uiso  ? N
   N13        1.0     0.224385     0.538337     0.327472    Uiso  ? N
   N14        1.0     0.101787     0.449360     0.075079    Uiso  ? N
   N15        1.0     0.895773     0.548008     0.830035    Uiso  ? N
   N16        1.0     0.756185     0.439294     0.561822    Uiso  ? N
   N17        1.0     0.549987     0.539024     0.322131    Uiso  ? N
   N18        1.0     0.433266     0.447966     0.070354    Uiso  ? N
   N19        1.0     0.229351     0.527588     0.818200    Uiso  ? N
   N20        1.0     0.127459     0.420059     0.571311    Uiso  ? N
   N21        1.0     0.892144     0.538825     0.332406    Uiso  ? N
   N22        1.0     0.780100     0.425096     0.100321    Uiso  ? N
   N23        1.0     0.545384     0.544774     0.822817    Uiso  ? N
   N24        1.0     0.446133     0.425451     0.576555    Uiso  ? N
   N25        1.0     0.223422     0.870223     0.326097    Uiso  ? N
   N26        1.0     0.110935     0.762228     0.086736    Uiso  ? N
   N27        1.0     0.872799     0.878592     0.823015    Uiso  ? N
   N28        1.0     0.782141     0.772037     0.563389    Uiso  ? N
   N29        1.0     0.553511     0.873549     0.325883    Uiso  ? N
   N30        1.0     0.443528     0.761081     0.078202    Uiso  ? N
   N31        1.0     0.239095     0.863479     0.817791    Uiso  ? N
   N32        1.0     0.107629     0.764009     0.575291    Uiso  ? N
   N33        1.0     0.888999     0.873028     0.323063    Uiso  ? N
   N34        1.0     0.778938     0.761182     0.082142    Uiso  ? N
   N35        1.0     0.559407     0.866083     0.836987    Uiso  ? N
   N36        1.0     0.438988     0.751234     0.566725    Uiso  ? N
