
#======================================================================
# CRYSTAL DATA
#----------------------------------------------------------------------
data_VESTA_phase_1

_chemical_name_common                  'Al   Hf   Mg   N                      '
_cell_length_a                         9.922014
_cell_length_b                         9.901133
_cell_length_c                         9.471766
_cell_angle_alpha                      90.002075
_cell_angle_beta                       90.010498
_cell_angle_gamma                      59.872475
_cell_volume                           804.797855
_space_group_name_H-M_alt              'P 1'
_space_group_IT_number                 1

loop_
_space_group_symop_operation_xyz
   'x, y, z'

loop_
   _atom_site_label
   _atom_site_occupancy
   _atom_site_fract_x
   _atom_site_fract_y
   _atom_site_fract_z
   _atom_site_adp_type
   _atom_site_U_iso_or_equiv
   _atom_site_type_symbol
   Al1        1.0     0.123132     0.085572     0.371895    Uiso  ? Al
   Al2        1.0     0.782496     0.089162     0.875022    Uiso  ? Al
   Al3        1.0     0.444654     0.093674     0.389803    Uiso  ? Al
   Al4        1.0     0.228679     0.206938     0.637533    Uiso  ? Al
   Al5        1.0     0.774298     0.086988     0.374719    Uiso  ? Al
   Al6        1.0     0.891494     0.201103     0.134981    Uiso  ? Al
   Al7        1.0     0.452344     0.082467     0.859809    Uiso  ? Al
   Al8        1.0     0.550335     0.209529     0.635020    Uiso  ? Al
   Al9        1.0     0.121534     0.424622     0.373567    Uiso  ? Al
   Al10       1.0     0.217463     0.552052     0.131609    Uiso  ? Al
   Al11       1.0     0.444054     0.430872     0.382305    Uiso  ? Al
   Al12       1.0     0.550464     0.545215     0.123943    Uiso  ? Al
   Al13       1.0     0.111667     0.440295     0.876246    Uiso  ? Al
   Al14       1.0     0.226548     0.540312     0.626352    Uiso  ? Al
   Al15       1.0     0.768723     0.431704     0.354334    Uiso  ? Al
   Al16       1.0     0.887388     0.543719     0.134124    Uiso  ? Al
   Al17       1.0     0.436668     0.439550     0.871346    Uiso  ? Al
   Al18       1.0     0.543939     0.545171     0.633691    Uiso  ? Al
   Al19       1.0     0.110354     0.765041     0.375882    Uiso  ? Al
   Al20       1.0     0.222158     0.865179     0.122709    Uiso  ? Al
   Al21       1.0     0.774028     0.765233     0.883553    Uiso  ? Al
   Al22       1.0     0.887157     0.871485     0.633016    Uiso  ? Al
   Al23       1.0     0.440850     0.758255     0.376259    Uiso  ? Al
   Al24       1.0     0.558481     0.862173     0.128183    Uiso  ? Al
   Al25       1.0     0.231845     0.862876     0.634927    Uiso  ? Al
   Al26       1.0     0.775894     0.770057     0.368938    Uiso  ? Al
   Al27       1.0     0.897640     0.865613     0.125207    Uiso  ? Al
   Al28       1.0     0.445703     0.761061     0.879301    Uiso  ? Al
   Hf1        1.0     0.219262     0.204493     0.102035    Uiso  ? Hf
   Hf2        1.0     0.886954     0.202430     0.609090    Uiso  ? Hf
   Hf3        1.0     0.556474     0.207224     0.107485    Uiso  ? Hf
   Hf4        1.0     0.888822     0.543502     0.610529    Uiso  ? Hf
   Mg1        1.0     0.109211     0.087935     0.866488    Uiso  ? Mg
   Mg2        1.0     0.776048     0.429533     0.883007    Uiso  ? Mg
   Mg3        1.0     0.111415     0.760958     0.870659    Uiso  ? Mg
   Mg4        1.0     0.552374     0.868018     0.619850    Uiso  ? Mg
   N1         1.0     0.228110     0.203847     0.328812    Uiso  ? N
   N2         1.0     0.102312     0.085793     0.093129    Uiso  ? N
   N3         1.0     0.878122     0.200939     0.824572    Uiso  ? N
   N4         1.0     0.763363     0.086679     0.576021    Uiso  ? N
   N5         1.0     0.552332     0.206125     0.331464    Uiso  ? N
   N6         1.0     0.456718     0.072404     0.069924    Uiso  ? N
   N7         1.0     0.226379     0.215994     0.845599    Uiso  ? N
   N8         1.0     0.132186     0.087838     0.579021    Uiso  ? N
   N9         1.0     0.890275     0.198949     0.344285    Uiso  ? N
   N10        1.0     0.794529     0.085918     0.081626    Uiso  ? N
   N11        1.0     0.556527     0.207273     0.844459    Uiso  ? N
   N12        1.0     0.439299     0.108169     0.591606    Uiso  ? N
   N13        1.0     0.225275     0.539259     0.333986    Uiso  ? N
   N14        1.0     0.102281     0.449167     0.083513    Uiso  ? N
   N15        1.0     0.895810     0.548087     0.832061    Uiso  ? N
   N16        1.0     0.754378     0.440050     0.566519    Uiso  ? N
   N17        1.0     0.548859     0.538786     0.323909    Uiso  ? N
   N18        1.0     0.431536     0.447196     0.076063    Uiso  ? N
   N19        1.0     0.228696     0.527768     0.823139    Uiso  ? N
   N20        1.0     0.129667     0.418920     0.574966    Uiso  ? N
   N21        1.0     0.893455     0.538182     0.340741    Uiso  ? N
   N22        1.0     0.780970     0.425402     0.109285    Uiso  ? N
   N23        1.0     0.545032     0.544942     0.833643    Uiso  ? N
   N24        1.0     0.447041     0.425613     0.583080    Uiso  ? N
   N25        1.0     0.223521     0.870117     0.327044    Uiso  ? N
   N26        1.0     0.110533     0.761558     0.091057    Uiso  ? N
   N27        1.0     0.871736     0.878760     0.832139    Uiso  ? N
   N28        1.0     0.782978     0.772890     0.567423    Uiso  ? N
   N29        1.0     0.552372     0.874732     0.332999    Uiso  ? N
   N30        1.0     0.444643     0.761118     0.084532    Uiso  ? N
   N31        1.0     0.239054     0.862994     0.830628    Uiso  ? N
   N32        1.0     0.107147     0.765578     0.580931    Uiso  ? N
   N33        1.0     0.889485     0.873584     0.325785    Uiso  ? N
   N34        1.0     0.778526     0.760041     0.090132    Uiso  ? N
   N35        1.0     0.560548     0.863805     0.839448    Uiso  ? N
   N36        1.0     0.437252     0.750280     0.572319    Uiso  ? N
