
#======================================================================
# CRYSTAL DATA
#----------------------------------------------------------------------
data_VESTA_phase_1

_chemical_name_common                  'Al   Hf   Mg   N                      '
_cell_length_a                         10.142460
_cell_length_b                         10.118486
_cell_length_c                         8.824094
_cell_angle_alpha                      90.022446
_cell_angle_beta                       89.995750
_cell_angle_gamma                      59.814777
_cell_volume                           782.791203
_space_group_name_H-M_alt              'P 1'
_space_group_IT_number                 1

loop_
_space_group_symop_operation_xyz
   'x, y, z'

loop_
   _atom_site_label
   _atom_site_occupancy
   _atom_site_fract_x
   _atom_site_fract_y
   _atom_site_fract_z
   _atom_site_adp_type
   _atom_site_U_iso_or_equiv
   _atom_site_type_symbol
   Al1        1.0     0.113008     0.086017     0.352925    Uiso  ? Al
   Al2        1.0     0.774002     0.086922     0.838914    Uiso  ? Al
   Al3        1.0     0.450009     0.085607     0.361989    Uiso  ? Al
   Al4        1.0     0.227614     0.206016     0.591029    Uiso  ? Al
   Al5        1.0     0.782895     0.088719     0.346034    Uiso  ? Al
   Al6        1.0     0.890612     0.200035     0.086919    Uiso  ? Al
   Al7        1.0     0.447964     0.090116     0.825240    Uiso  ? Al
   Al8        1.0     0.550859     0.208941     0.587959    Uiso  ? Al
   Al9        1.0     0.112964     0.436126     0.345583    Uiso  ? Al
   Al10       1.0     0.219515     0.549759     0.082932    Uiso  ? Al
   Al11       1.0     0.438861     0.436867     0.349397    Uiso  ? Al
   Al12       1.0     0.546561     0.548107     0.091488    Uiso  ? Al
   Al13       1.0     0.122158     0.427981     0.840356    Uiso  ? Al
   Al14       1.0     0.224171     0.544241     0.594200    Uiso  ? Al
   Al15       1.0     0.774698     0.428526     0.333633    Uiso  ? Al
   Al16       1.0     0.889293     0.542957     0.090547    Uiso  ? Al
   Al17       1.0     0.442733     0.432814     0.830852    Uiso  ? Al
   Al18       1.0     0.547764     0.542214     0.585092    Uiso  ? Al
   Al19       1.0     0.112992     0.762469     0.347919    Uiso  ? Al
   Al20       1.0     0.225865     0.863607     0.078838    Uiso  ? Al
   Al21       1.0     0.773427     0.770513     0.851110    Uiso  ? Al
   Al22       1.0     0.891156     0.868548     0.586211    Uiso  ? Al
   Al23       1.0     0.441621     0.762583     0.347667    Uiso  ? Al
   Al24       1.0     0.555948     0.862379     0.098663    Uiso  ? Al
   Al25       1.0     0.225949     0.865651     0.600630    Uiso  ? Al
   Al26       1.0     0.774664     0.764611     0.334172    Uiso  ? Al
   Al27       1.0     0.894726     0.867526     0.091548    Uiso  ? Al
   Al28       1.0     0.444480     0.757792     0.831894    Uiso  ? Al
   Hf1        1.0     0.220387     0.205108     0.102966    Uiso  ? Hf
   Hf2        1.0     0.887886     0.203772     0.609436    Uiso  ? Hf
   Hf3        1.0     0.556262     0.207899     0.103085    Uiso  ? Hf
   Hf4        1.0     0.888554     0.542911     0.606383    Uiso  ? Hf
   Mg1        1.0     0.119241     0.087965     0.846743    Uiso  ? Mg
   Mg2        1.0     0.768454     0.432629     0.863837    Uiso  ? Mg
   Mg3        1.0     0.107190     0.763891     0.842513    Uiso  ? Mg
   Mg4        1.0     0.554662     0.868446     0.595526    Uiso  ? Mg
   N1         1.0     0.221837     0.208616     0.359749    Uiso  ? N
   N2         1.0     0.105630     0.084342     0.117793    Uiso  ? N
   N3         1.0     0.881472     0.194373     0.859682    Uiso  ? N
   N4         1.0     0.767638     0.086082     0.607935    Uiso  ? N
   N5         1.0     0.556397     0.206979     0.361327    Uiso  ? N
   N6         1.0     0.453901     0.077854     0.124641    Uiso  ? N
   N7         1.0     0.232981     0.211217     0.859267    Uiso  ? N
   N8         1.0     0.126267     0.091317     0.598647    Uiso  ? N
   N9         1.0     0.887642     0.205113     0.360145    Uiso  ? N
   N10        1.0     0.790797     0.086881     0.121572    Uiso  ? N
   N11        1.0     0.553705     0.206186     0.856463    Uiso  ? N
   N12        1.0     0.440956     0.105174     0.602171    Uiso  ? N
   N13        1.0     0.222534     0.540987     0.371239    Uiso  ? N
   N14        1.0     0.106598     0.445313     0.118772    Uiso  ? N
   N15        1.0     0.900848     0.543466     0.862526    Uiso  ? N
   N16        1.0     0.759061     0.437730     0.609082    Uiso  ? N
   N17        1.0     0.556455     0.537576     0.361027    Uiso  ? N
   N18        1.0     0.433222     0.444420     0.124298    Uiso  ? N
   N19        1.0     0.231865     0.527696     0.861196    Uiso  ? N
   N20        1.0     0.127388     0.422126     0.610060    Uiso  ? N
   N21        1.0     0.889189     0.539504     0.357139    Uiso  ? N
   N22        1.0     0.779797     0.426601     0.112566    Uiso  ? N
   N23        1.0     0.538751     0.545506     0.871470    Uiso  ? N
   N24        1.0     0.446016     0.427345     0.607433    Uiso  ? N
   N25        1.0     0.222820     0.870621     0.370620    Uiso  ? N
   N26        1.0     0.111457     0.762060     0.119184    Uiso  ? N
   N27        1.0     0.874273     0.880046     0.872403    Uiso  ? N
   N28        1.0     0.781872     0.771495     0.620010    Uiso  ? N
   N29        1.0     0.558568     0.867586     0.353484    Uiso  ? N
   N30        1.0     0.441068     0.762222     0.123283    Uiso  ? N
   N31        1.0     0.236457     0.863259     0.859550    Uiso  ? N
   N32        1.0     0.106645     0.764397     0.600340    Uiso  ? N
   N33        1.0     0.887256     0.870474     0.360761    Uiso  ? N
   N34        1.0     0.777885     0.760068     0.111010    Uiso  ? N
   N35        1.0     0.552831     0.872141     0.866764    Uiso  ? N
   N36        1.0     0.440263     0.751737     0.608598    Uiso  ? N
