
#======================================================================
# CRYSTAL DATA
#----------------------------------------------------------------------
data_VESTA_phase_1

_chemical_name_common                  'Al   Hf   Mg   N                      '
_cell_length_a                         9.686699
_cell_length_b                         9.678111
_cell_length_c                         10.123512
_cell_angle_alpha                      89.957008
_cell_angle_beta                       89.986206
_cell_angle_gamma                      59.877018
_cell_volume                           820.896846
_space_group_name_H-M_alt              'P 1'
_space_group_IT_number                 1

loop_
_space_group_symop_operation_xyz
   'x, y, z'

loop_
   _atom_site_label
   _atom_site_occupancy
   _atom_site_fract_x
   _atom_site_fract_y
   _atom_site_fract_z
   _atom_site_adp_type
   _atom_site_U_iso_or_equiv
   _atom_site_type_symbol
   Al1        1.0     0.119609     0.086984     0.403427    Uiso  ? Al
   Al2        1.0     0.780997     0.089114     0.899344    Uiso  ? Al
   Al3        1.0     0.445571     0.092481     0.412846    Uiso  ? Al
   Al4        1.0     0.231380     0.204318     0.661480    Uiso  ? Al
   Al5        1.0     0.776281     0.087644     0.404248    Uiso  ? Al
   Al6        1.0     0.890594     0.202404     0.162844    Uiso  ? Al
   Al7        1.0     0.449377     0.086015     0.894686    Uiso  ? Al
   Al8        1.0     0.548421     0.208162     0.659355    Uiso  ? Al
   Al9        1.0     0.116171     0.428225     0.404189    Uiso  ? Al
   Al10       1.0     0.217513     0.551341     0.156784    Uiso  ? Al
   Al11       1.0     0.442979     0.431235     0.409097    Uiso  ? Al
   Al12       1.0     0.553033     0.545304     0.154941    Uiso  ? Al
   Al13       1.0     0.115024     0.435576     0.901244    Uiso  ? Al
   Al14       1.0     0.226898     0.540134     0.655002    Uiso  ? Al
   Al15       1.0     0.771003     0.431529     0.390895    Uiso  ? Al
   Al16       1.0     0.885317     0.544316     0.158133    Uiso  ? Al
   Al17       1.0     0.439388     0.437317     0.896406    Uiso  ? Al
   Al18       1.0     0.542484     0.545895     0.656239    Uiso  ? Al
   Al19       1.0     0.110720     0.762436     0.404853    Uiso  ? Al
   Al20       1.0     0.222527     0.864803     0.156768    Uiso  ? Al
   Al21       1.0     0.775059     0.766744     0.908956    Uiso  ? Al
   Al22       1.0     0.887281     0.870797     0.657180    Uiso  ? Al
   Al23       1.0     0.442973     0.759009     0.404420    Uiso  ? Al
   Al24       1.0     0.559757     0.861021     0.153890    Uiso  ? Al
   Al25       1.0     0.232455     0.862719     0.656277    Uiso  ? Al
   Al26       1.0     0.776472     0.766415     0.399016    Uiso  ? Al
   Al27       1.0     0.897490     0.865457     0.155074    Uiso  ? Al
   Al28       1.0     0.443770     0.760779     0.902197    Uiso  ? Al
   Hf1        1.0     0.217504     0.206087     0.141849    Uiso  ? Hf
   Hf2        1.0     0.888196     0.200547     0.642510    Uiso  ? Hf
   Hf3        1.0     0.558802     0.207941     0.142641    Uiso  ? Hf
   Hf4        1.0     0.887194     0.544491     0.648987    Uiso  ? Hf
   Mg1        1.0     0.111767     0.086733     0.898695    Uiso  ? Mg
   Mg2        1.0     0.774591     0.428780     0.911624    Uiso  ? Mg
   Mg3        1.0     0.112674     0.762202     0.900116    Uiso  ? Mg
   Mg4        1.0     0.549557     0.873098     0.653852    Uiso  ? Mg
   N1         1.0     0.224483     0.205573     0.349329    Uiso  ? N
   N2         1.0     0.102582     0.084405     0.108537    Uiso  ? N
   N3         1.0     0.878977     0.200366     0.840494    Uiso  ? N
   N4         1.0     0.764032     0.086234     0.591525    Uiso  ? N
   N5         1.0     0.554219     0.206307     0.349593    Uiso  ? N
   N6         1.0     0.455208     0.075515     0.088820    Uiso  ? N
   N7         1.0     0.227720     0.214129     0.854316    Uiso  ? N
   N8         1.0     0.131910     0.087179     0.592901    Uiso  ? N
   N9         1.0     0.889785     0.200513     0.358527    Uiso  ? N
   N10        1.0     0.795981     0.084813     0.094183    Uiso  ? N
   N11        1.0     0.555489     0.206680     0.856246    Uiso  ? N
   N12        1.0     0.438857     0.108528     0.597819    Uiso  ? N
   N13        1.0     0.224322     0.538008     0.347892    Uiso  ? N
   N14        1.0     0.102521     0.448361     0.095386    Uiso  ? N
   N15        1.0     0.895761     0.548050     0.852336    Uiso  ? N
   N16        1.0     0.757048     0.438789     0.582945    Uiso  ? N
   N17        1.0     0.550395     0.538885     0.343147    Uiso  ? N
   N18        1.0     0.434000     0.447406     0.090761    Uiso  ? N
   N19        1.0     0.229391     0.527554     0.838949    Uiso  ? N
   N20        1.0     0.126258     0.420926     0.592199    Uiso  ? N
   N21        1.0     0.891815     0.538846     0.351742    Uiso  ? N
   N22        1.0     0.779834     0.425257     0.120015    Uiso  ? N
   N23        1.0     0.545414     0.544782     0.842592    Uiso  ? N
   N24        1.0     0.445846     0.425645     0.597059    Uiso  ? N
   N25        1.0     0.223417     0.870128     0.347146    Uiso  ? N
   N26        1.0     0.111078     0.762216     0.107727    Uiso  ? N
   N27        1.0     0.873068     0.878451     0.842968    Uiso  ? N
   N28        1.0     0.782120     0.771543     0.583976    Uiso  ? N
   N29        1.0     0.553548     0.873565     0.345922    Uiso  ? N
   N30        1.0     0.443436     0.761061     0.098714    Uiso  ? N
   N31        1.0     0.238949     0.863665     0.837535    Uiso  ? N
   N32        1.0     0.107897     0.763576     0.595704    Uiso  ? N
   N33        1.0     0.888977     0.872956     0.344136    Uiso  ? N
   N34        1.0     0.778995     0.761678     0.102638    Uiso  ? N
   N35        1.0     0.559135     0.866711     0.858495    Uiso  ? N
   N36        1.0     0.439344     0.751477     0.587175    Uiso  ? N
