
#======================================================================
# CRYSTAL DATA
#----------------------------------------------------------------------
data_VESTA_phase_1

_chemical_name_common                  'Al   Hf   Mg   N                      '
_cell_length_a                         9.697926
_cell_length_b                         9.678824
_cell_length_c                         10.112000
_cell_angle_alpha                      90.055099
_cell_angle_beta                       90.020996
_cell_angle_gamma                      59.802105
_cell_volume                           820.350469
_space_group_name_H-M_alt              'P 1'
_space_group_IT_number                 1

loop_
_space_group_symop_operation_xyz
   'x, y, z'

loop_
   _atom_site_label
   _atom_site_occupancy
   _atom_site_fract_x
   _atom_site_fract_y
   _atom_site_fract_z
   _atom_site_adp_type
   _atom_site_U_iso_or_equiv
   _atom_site_type_symbol
   Al1        1.0     0.111083     0.088771     0.325081    Uiso  ? Al
   Al2        1.0     0.776582     0.086834     0.821636    Uiso  ? Al
   Al3        1.0     0.450854     0.085754     0.328956    Uiso  ? Al
   Al4        1.0     0.231225     0.203781     0.565521    Uiso  ? Al
   Al5        1.0     0.780698     0.090328     0.323012    Uiso  ? Al
   Al6        1.0     0.890488     0.199324     0.060994    Uiso  ? Al
   Al7        1.0     0.444931     0.093145     0.812439    Uiso  ? Al
   Al8        1.0     0.548292     0.208061     0.569874    Uiso  ? Al
   Al9        1.0     0.111338     0.434214     0.320664    Uiso  ? Al
   Al10       1.0     0.219127     0.549026     0.067085    Uiso  ? Al
   Al11       1.0     0.441691     0.433812     0.326047    Uiso  ? Al
   Al12       1.0     0.549865     0.547041     0.068777    Uiso  ? Al
   Al13       1.0     0.120431     0.429391     0.823294    Uiso  ? Al
   Al14       1.0     0.225600     0.543572     0.570479    Uiso  ? Al
   Al15       1.0     0.774577     0.429174     0.313035    Uiso  ? Al
   Al16       1.0     0.887088     0.545278     0.064726    Uiso  ? Al
   Al17       1.0     0.441314     0.433856     0.817095    Uiso  ? Al
   Al18       1.0     0.543983     0.545343     0.569636    Uiso  ? Al
   Al19       1.0     0.111445     0.760951     0.322710    Uiso  ? Al
   Al20       1.0     0.224876     0.863920     0.069927    Uiso  ? Al
   Al21       1.0     0.777454     0.767521     0.827251    Uiso  ? Al
   Al22       1.0     0.890596     0.869367     0.568174    Uiso  ? Al
   Al23       1.0     0.446690     0.761500     0.319996    Uiso  ? Al
   Al24       1.0     0.559625     0.861006     0.067275    Uiso  ? Al
   Al25       1.0     0.228023     0.864485     0.567804    Uiso  ? Al
   Al26       1.0     0.773176     0.765111     0.314793    Uiso  ? Al
   Al27       1.0     0.893853     0.866879     0.070494    Uiso  ? Al
   Al28       1.0     0.439205     0.758465     0.822374    Uiso  ? Al
   Hf1        1.0     0.218425     0.204806     0.079078    Uiso  ? Hf
   Hf2        1.0     0.888350     0.201809     0.583827    Uiso  ? Hf
   Hf3        1.0     0.559002     0.208078     0.073116    Uiso  ? Hf
   Hf4        1.0     0.888788     0.544114     0.579331    Uiso  ? Hf
   Mg1        1.0     0.120034     0.085890     0.821990    Uiso  ? Mg
   Mg2        1.0     0.770974     0.432119     0.836362    Uiso  ? Mg
   Mg3        1.0     0.110781     0.764244     0.822709    Uiso  ? Mg
   Mg4        1.0     0.549589     0.873057     0.575943    Uiso  ? Mg
   N1         1.0     0.222318     0.207338     0.367549    Uiso  ? N
   N2         1.0     0.101198     0.084975     0.134452    Uiso  ? N
   N3         1.0     0.882645     0.193761     0.873924    Uiso  ? N
   N4         1.0     0.765868     0.085057     0.628665    Uiso  ? N
   N5         1.0     0.556070     0.206283     0.373206    Uiso  ? N
   N6         1.0     0.456240     0.076895     0.136647    Uiso  ? N
   N7         1.0     0.231551     0.212039     0.878247    Uiso  ? N
   N8         1.0     0.130429     0.087628     0.612940    Uiso  ? N
   N9         1.0     0.886394     0.206999     0.374330    Uiso  ? N
   N10        1.0     0.793018     0.086069     0.135021    Uiso  ? N
   N11        1.0     0.553953     0.206260     0.868548    Uiso  ? N
   N12        1.0     0.438282     0.108301     0.625878    Uiso  ? N
   N13        1.0     0.222246     0.538965     0.379764    Uiso  ? N
   N14        1.0     0.103409     0.446103     0.132397    Uiso  ? N
   N15        1.0     0.900602     0.545377     0.875548    Uiso  ? N
   N16        1.0     0.757800     0.439345     0.627643    Uiso  ? N
   N17        1.0     0.556518     0.538948     0.377268    Uiso  ? N
   N18        1.0     0.435486     0.444747     0.136957    Uiso  ? N
   N19        1.0     0.232600     0.525602     0.882819    Uiso  ? N
   N20        1.0     0.129291     0.420943     0.629405    Uiso  ? N
   N21        1.0     0.887928     0.539724     0.369880    Uiso  ? N
   N22        1.0     0.779352     0.426294     0.121058    Uiso  ? N
   N23        1.0     0.538814     0.544435     0.885285    Uiso  ? N
   N24        1.0     0.444654     0.427811     0.624230    Uiso  ? N
   N25        1.0     0.225153     0.869009     0.375494    Uiso  ? N
   N26        1.0     0.110000     0.761027     0.131851    Uiso  ? N
   N27        1.0     0.873402     0.880479     0.887399    Uiso  ? N
   N28        1.0     0.782695     0.772700     0.638660    Uiso  ? N
   N29        1.0     0.558284     0.867983     0.370488    Uiso  ? N
   N30        1.0     0.445913     0.761118     0.131636    Uiso  ? N
   N31        1.0     0.236304     0.865291     0.890093    Uiso  ? N
   N32        1.0     0.108369     0.764649     0.613566    Uiso  ? N
   N33        1.0     0.887056     0.871002     0.376350    Uiso  ? N
   N34        1.0     0.777611     0.760953     0.125918    Uiso  ? N
   N35        1.0     0.554221     0.872098     0.876522    Uiso  ? N
   N36        1.0     0.435605     0.752706     0.632928    Uiso  ? N
