
#======================================================================
# CRYSTAL DATA
#----------------------------------------------------------------------
data_VESTA_phase_1

_chemical_name_common                  'Al   Hf   Mg   N                      '
_cell_length_a                         9.774975
_cell_length_b                         9.749370
_cell_length_c                         9.904272
_cell_angle_alpha                      90.043541
_cell_angle_beta                       89.992950
_cell_angle_gamma                      59.808216
_cell_volume                           815.835572
_space_group_name_H-M_alt              'P 1'
_space_group_IT_number                 1

loop_
_space_group_symop_operation_xyz
   'x, y, z'

loop_
   _atom_site_label
   _atom_site_occupancy
   _atom_site_fract_x
   _atom_site_fract_y
   _atom_site_fract_z
   _atom_site_adp_type
   _atom_site_U_iso_or_equiv
   _atom_site_type_symbol
   Al1        1.0     0.108522     0.089150     0.332265    Uiso  ? Al
   Al2        1.0     0.773572     0.086057     0.825728    Uiso  ? Al
   Al3        1.0     0.452301     0.083292     0.334989    Uiso  ? Al
   Al4        1.0     0.231440     0.204118     0.567727    Uiso  ? Al
   Al5        1.0     0.783305     0.090854     0.329000    Uiso  ? Al
   Al6        1.0     0.891574     0.198129     0.061392    Uiso  ? Al
   Al7        1.0     0.444815     0.094277     0.817514    Uiso  ? Al
   Al8        1.0     0.548331     0.208592     0.571538    Uiso  ? Al
   Al9        1.0     0.109047     0.437356     0.326925    Uiso  ? Al
   Al10       1.0     0.218563     0.549798     0.070990    Uiso  ? Al
   Al11       1.0     0.440412     0.435794     0.331037    Uiso  ? Al
   Al12       1.0     0.548508     0.547488     0.074234    Uiso  ? Al
   Al13       1.0     0.123389     0.427201     0.827590    Uiso  ? Al
   Al14       1.0     0.225466     0.544039     0.576033    Uiso  ? Al
   Al15       1.0     0.776311     0.427449     0.319071    Uiso  ? Al
   Al16       1.0     0.887791     0.545238     0.067068    Uiso  ? Al
   Al17       1.0     0.441527     0.433111     0.821672    Uiso  ? Al
   Al18       1.0     0.544678     0.544384     0.573449    Uiso  ? Al
   Al19       1.0     0.111374     0.761379     0.327941    Uiso  ? Al
   Al20       1.0     0.225028     0.863903     0.074118    Uiso  ? Al
   Al21       1.0     0.776362     0.769466     0.831025    Uiso  ? Al
   Al22       1.0     0.890327     0.869588     0.571449    Uiso  ? Al
   Al23       1.0     0.446695     0.761564     0.325812    Uiso  ? Al
   Al24       1.0     0.559360     0.860415     0.071819    Uiso  ? Al
   Al25       1.0     0.227632     0.864872     0.572877    Uiso  ? Al
   Al26       1.0     0.773305     0.763604     0.320838    Uiso  ? Al
   Al27       1.0     0.893711     0.866821     0.076233    Uiso  ? Al
   Al28       1.0     0.439085     0.757694     0.825254    Uiso  ? Al
   Hf1        1.0     0.218573     0.205555     0.090677    Uiso  ? Hf
   Hf2        1.0     0.888934     0.201601     0.599654    Uiso  ? Hf
   Hf3        1.0     0.558721     0.207719     0.084500    Uiso  ? Hf
   Hf4        1.0     0.889066     0.543099     0.591349    Uiso  ? Hf
   Mg1        1.0     0.125142     0.085104     0.828002    Uiso  ? Mg
   Mg2        1.0     0.768497     0.433629     0.844204    Uiso  ? Mg
   Mg3        1.0     0.109605     0.764976     0.827461    Uiso  ? Mg
   Mg4        1.0     0.549728     0.872556     0.582820    Uiso  ? Mg
   N1         1.0     0.222194     0.207848     0.365924    Uiso  ? N
   N2         1.0     0.100182     0.085234     0.135688    Uiso  ? N
   N3         1.0     0.884052     0.192342     0.867245    Uiso  ? N
   N4         1.0     0.763819     0.085049     0.629036    Uiso  ? N
   N5         1.0     0.556325     0.206443     0.371081    Uiso  ? N
   N6         1.0     0.457315     0.074125     0.139627    Uiso  ? N
   N7         1.0     0.233089     0.212212     0.884596    Uiso  ? N
   N8         1.0     0.132520     0.087737     0.614309    Uiso  ? N
   N9         1.0     0.886289     0.207201     0.381865    Uiso  ? N
   N10        1.0     0.794845     0.086510     0.136341    Uiso  ? N
   N11        1.0     0.553676     0.206526     0.874889    Uiso  ? N
   N12        1.0     0.438297     0.109234     0.626158    Uiso  ? N
   N13        1.0     0.221949     0.539855     0.382429    Uiso  ? N
   N14        1.0     0.101620     0.448781     0.134620    Uiso  ? N
   N15        1.0     0.901181     0.545129     0.872511    Uiso  ? N
   N16        1.0     0.755849     0.440029     0.631137    Uiso  ? N
   N17        1.0     0.557241     0.538361     0.378303    Uiso  ? N
   N18        1.0     0.433651     0.446349     0.138977    Uiso  ? N
   N19        1.0     0.232322     0.526370     0.883169    Uiso  ? N
   N20        1.0     0.131442     0.419395     0.630467    Uiso  ? N
   N21        1.0     0.887683     0.539300     0.376291    Uiso  ? N
   N22        1.0     0.780640     0.425095     0.120930    Uiso  ? N
   N23        1.0     0.537443     0.544869     0.887377    Uiso  ? N
   N24        1.0     0.445023     0.427178     0.625296    Uiso  ? N
   N25        1.0     0.224877     0.869237     0.377520    Uiso  ? N
   N26        1.0     0.109890     0.761436     0.133536    Uiso  ? N
   N27        1.0     0.873016     0.880570     0.889591    Uiso  ? N
   N28        1.0     0.782149     0.773920     0.639356    Uiso  ? N
   N29        1.0     0.558825     0.866795     0.374124    Uiso  ? N
   N30        1.0     0.445560     0.761218     0.134117    Uiso  ? N
   N31        1.0     0.236565     0.864306     0.890496    Uiso  ? N
   N32        1.0     0.107471     0.765517     0.615335    Uiso  ? N
   N33        1.0     0.886799     0.871068     0.377016    Uiso  ? N
   N34        1.0     0.777566     0.759728     0.127732    Uiso  ? N
   N35        1.0     0.553827     0.872050     0.877225    Uiso  ? N
   N36        1.0     0.435596     0.751882     0.633119    Uiso  ? N
