
#======================================================================
# CRYSTAL DATA
#----------------------------------------------------------------------
data_VESTA_phase_1

_chemical_name_common                  'Al   Hf   Mg   N                      '
_cell_length_a                         9.692219
_cell_length_b                         9.674134
_cell_length_c                         10.126509
_cell_angle_alpha                      90.056252
_cell_angle_beta                       90.026909
_cell_angle_gamma                      59.800903
_cell_volume                           820.636230
_space_group_name_H-M_alt              'P 1'
_space_group_IT_number                 1

loop_
_space_group_symop_operation_xyz
   'x, y, z'

loop_
   _atom_site_label
   _atom_site_occupancy
   _atom_site_fract_x
   _atom_site_fract_y
   _atom_site_fract_z
   _atom_site_adp_type
   _atom_site_U_iso_or_equiv
   _atom_site_type_symbol
   Al1        1.0     0.111345     0.088721     0.317232    Uiso  ? Al
   Al2        1.0     0.776840     0.086930     0.814068    Uiso  ? Al
   Al3        1.0     0.450699     0.085995     0.321262    Uiso  ? Al
   Al4        1.0     0.231131     0.203770     0.558102    Uiso  ? Al
   Al5        1.0     0.780464     0.090247     0.315249    Uiso  ? Al
   Al6        1.0     0.890355     0.199446     0.053923    Uiso  ? Al
   Al7        1.0     0.444920     0.093041     0.804675    Uiso  ? Al
   Al8        1.0     0.548316     0.208013     0.562484    Uiso  ? Al
   Al9        1.0     0.111533     0.433933     0.312900    Uiso  ? Al
   Al10       1.0     0.219207     0.548916     0.059522    Uiso  ? Al
   Al11       1.0     0.441823     0.433650     0.318397    Uiso  ? Al
   Al12       1.0     0.549945     0.547037     0.061063    Uiso  ? Al
   Al13       1.0     0.120202     0.429554     0.815642    Uiso  ? Al
   Al14       1.0     0.225629     0.543506     0.562752    Uiso  ? Al
   Al15       1.0     0.774417     0.429406     0.305242    Uiso  ? Al
   Al16       1.0     0.887055     0.545290     0.057269    Uiso  ? Al
   Al17       1.0     0.441322     0.433895     0.809433    Uiso  ? Al
   Al18       1.0     0.543950     0.545434     0.562076    Uiso  ? Al
   Al19       1.0     0.111472     0.760905     0.315053    Uiso  ? Al
   Al20       1.0     0.224855     0.863921     0.062280    Uiso  ? Al
   Al21       1.0     0.777515     0.767405     0.819713    Uiso  ? Al
   Al22       1.0     0.890646     0.869349     0.560688    Uiso  ? Al
   Al23       1.0     0.446668     0.761515     0.312277    Uiso  ? Al
   Al24       1.0     0.559615     0.861101     0.059686    Uiso  ? Al
   Al25       1.0     0.228023     0.864471     0.560178    Uiso  ? Al
   Al26       1.0     0.773193     0.765228     0.307033    Uiso  ? Al
   Al27       1.0     0.893884     0.866883     0.062766    Uiso  ? Al
   Al28       1.0     0.439210     0.758565     0.814859    Uiso  ? Al
   Hf1        1.0     0.218397     0.204722     0.070760    Uiso  ? Hf
   Hf2        1.0     0.888222     0.201888     0.575084    Uiso  ? Hf
   Hf3        1.0     0.559011     0.208106     0.064916    Uiso  ? Hf
   Hf4        1.0     0.888745     0.544229     0.571168    Uiso  ? Hf
   Mg1        1.0     0.119391     0.086019     0.814255    Uiso  ? Mg
   Mg2        1.0     0.771201     0.431934     0.828561    Uiso  ? Mg
   Mg3        1.0     0.110906     0.764115     0.815083    Uiso  ? Mg
   Mg4        1.0     0.549612     0.873081     0.568080    Uiso  ? Mg
   N1         1.0     0.222303     0.207308     0.360426    Uiso  ? N
   N2         1.0     0.101353     0.084924     0.127033    Uiso  ? N
   N3         1.0     0.882416     0.193920     0.867404    Uiso  ? N
   N4         1.0     0.766108     0.085093     0.621318    Uiso  ? N
   N5         1.0     0.556062     0.206275     0.366072    Uiso  ? N
   N6         1.0     0.456078     0.077200     0.129091    Uiso  ? N
   N7         1.0     0.231375     0.211994     0.870258    Uiso  ? N
   N8         1.0     0.130086     0.087686     0.605492    Uiso  ? N
   N9         1.0     0.886383     0.207013     0.366177    Uiso  ? N
   N10        1.0     0.792815     0.085990     0.127624    Uiso  ? N
   N11        1.0     0.553955     0.206220     0.860653    Uiso  ? N
   N12        1.0     0.438282     0.108196     0.618436    Uiso  ? N
   N13        1.0     0.222291     0.538872     0.372221    Uiso  ? N
   N14        1.0     0.103603     0.445803     0.124884    Uiso  ? N
   N15        1.0     0.900558     0.545399     0.868447    Uiso  ? N
   N16        1.0     0.758012     0.439240     0.620049    Uiso  ? N
   N17        1.0     0.556471     0.539017     0.369872    Uiso  ? N
   N18        1.0     0.435688     0.444577     0.129480    Uiso  ? N
   N19        1.0     0.232660     0.525479     0.875482    Uiso  ? N
   N20        1.0     0.129091     0.421093     0.621966    Uiso  ? N
   N21        1.0     0.887961     0.539777     0.362051    Uiso  ? N
   N22        1.0     0.779221     0.426478     0.113743    Uiso  ? N
   N23        1.0     0.538904     0.544431     0.877781    Uiso  ? N
   N24        1.0     0.444649     0.427860     0.616804    Uiso  ? N
   N25        1.0     0.225167     0.869001     0.368053    Uiso  ? N
   N26        1.0     0.110039     0.760965     0.124402    Uiso  ? N
   N27        1.0     0.873462     0.880477     0.879900    Uiso  ? N
   N28        1.0     0.782737     0.772615     0.631303    Uiso  ? N
   N29        1.0     0.558251     0.868089     0.362831    Uiso  ? N
   N30        1.0     0.445913     0.761133     0.124123    Uiso  ? N
   N31        1.0     0.236242     0.865408     0.882685    Uiso  ? N
   N32        1.0     0.108483     0.764520     0.606120    Uiso  ? N
   N33        1.0     0.887094     0.870989     0.369006    Uiso  ? N
   N34        1.0     0.777629     0.761060     0.118441    Uiso  ? N
   N35        1.0     0.554229     0.872141     0.869171    Uiso  ? N
   N36        1.0     0.435626     0.752804     0.625571    Uiso  ? N
