
#======================================================================
# CRYSTAL DATA
#----------------------------------------------------------------------
data_VESTA_phase_1

_chemical_name_common                  'Al   Hf   Mg   N                      '
_cell_length_a                         9.971888
_cell_length_b                         9.944456
_cell_length_c                         9.339040
_cell_angle_alpha                      90.026695
_cell_angle_beta                       89.988876
_cell_angle_gamma                      59.814110
_cell_volume                           800.524476
_space_group_name_H-M_alt              'P 1'
_space_group_IT_number                 1

loop_
_space_group_symop_operation_xyz
   'x, y, z'

loop_
   _atom_site_label
   _atom_site_occupancy
   _atom_site_fract_x
   _atom_site_fract_y
   _atom_site_fract_z
   _atom_site_adp_type
   _atom_site_U_iso_or_equiv
   _atom_site_type_symbol
   Al1        1.0     0.108768     0.088064     0.343201    Uiso  ? Al
   Al2        1.0     0.771439     0.086167     0.829877    Uiso  ? Al
   Al3        1.0     0.452419     0.082517     0.349001    Uiso  ? Al
   Al4        1.0     0.228900     0.205744     0.572581    Uiso  ? Al
   Al5        1.0     0.785159     0.090252     0.336555    Uiso  ? Al
   Al6        1.0     0.891768     0.197804     0.068626    Uiso  ? Al
   Al7        1.0     0.445702     0.093763     0.818979    Uiso  ? Al
   Al8        1.0     0.549856     0.209468     0.574124    Uiso  ? Al
   Al9        1.0     0.108287     0.439658     0.334903    Uiso  ? Al
   Al10       1.0     0.218839     0.549880     0.074511    Uiso  ? Al
   Al11       1.0     0.438786     0.437848     0.338637    Uiso  ? Al
   Al12       1.0     0.545716     0.548604     0.081649    Uiso  ? Al
   Al13       1.0     0.125788     0.425075     0.831378    Uiso  ? Al
   Al14       1.0     0.224896     0.544142     0.583744    Uiso  ? Al
   Al15       1.0     0.777350     0.427287     0.324226    Uiso  ? Al
   Al16       1.0     0.889612     0.544177     0.072801    Uiso  ? Al
   Al17       1.0     0.442811     0.431916     0.824869    Uiso  ? Al
   Al18       1.0     0.547127     0.542626     0.576391    Uiso  ? Al
   Al19       1.0     0.112361     0.761836     0.336887    Uiso  ? Al
   Al20       1.0     0.225433     0.863701     0.074356    Uiso  ? Al
   Al21       1.0     0.774421     0.771851     0.838376    Uiso  ? Al
   Al22       1.0     0.890420     0.869023     0.575450    Uiso  ? Al
   Al23       1.0     0.444502     0.762401     0.335175    Uiso  ? Al
   Al24       1.0     0.557210     0.861494     0.081984    Uiso  ? Al
   Al25       1.0     0.226466     0.865463     0.584107    Uiso  ? Al
   Al26       1.0     0.774053     0.762230     0.325913    Uiso  ? Al
   Al27       1.0     0.894255     0.867438     0.083259    Uiso  ? Al
   Al28       1.0     0.441421     0.756931     0.826032    Uiso  ? Al
   Hf1        1.0     0.219663     0.205497     0.100868    Uiso  ? Hf
   Hf2        1.0     0.888120     0.203206     0.609736    Uiso  ? Hf
   Hf3        1.0     0.557567     0.207258     0.097889    Uiso  ? Hf
   Hf4        1.0     0.888664     0.542644     0.604371    Uiso  ? Hf
   Mg1        1.0     0.124494     0.086788     0.836888    Uiso  ? Mg
   Mg2        1.0     0.766940     0.433535     0.856538    Uiso  ? Mg
   Mg3        1.0     0.107536     0.764702     0.833549    Uiso  ? Mg
   Mg4        1.0     0.552894     0.869553     0.589324    Uiso  ? Mg
   N1         1.0     0.221150     0.209228     0.360512    Uiso  ? N
   N2         1.0     0.102332     0.084635     0.127948    Uiso  ? N
   N3         1.0     0.883089     0.192090     0.860261    Uiso  ? N
   N4         1.0     0.764486     0.085743     0.619379    Uiso  ? N
   N5         1.0     0.557019     0.207082     0.363068    Uiso  ? N
   N6         1.0     0.456259     0.074256     0.136968    Uiso  ? N
   N7         1.0     0.234710     0.211344     0.877628    Uiso  ? N
   N8         1.0     0.130050     0.090001     0.606622    Uiso  ? N
   N9         1.0     0.886396     0.207398     0.375937    Uiso  ? N
   N10        1.0     0.794258     0.086855     0.131048    Uiso  ? N
   N11        1.0     0.553110     0.206245     0.870616    Uiso  ? N
   N12        1.0     0.439456     0.108012     0.611709    Uiso  ? N
   N13        1.0     0.221932     0.540658     0.378855    Uiso  ? N
   N14        1.0     0.102728     0.448798     0.128806    Uiso  ? N
   N15        1.0     0.902016     0.544056     0.864144    Uiso  ? N
   N16        1.0     0.756214     0.439262     0.625099    Uiso  ? N
   N17        1.0     0.558210     0.537466     0.370244    Uiso  ? N
   N18        1.0     0.432226     0.446305     0.133758    Uiso  ? N
   N19        1.0     0.232476     0.526845     0.873111    Uiso  ? N
   N20        1.0     0.130942     0.419379     0.621865    Uiso  ? N
   N21        1.0     0.887758     0.539254     0.372436    Uiso  ? N
   N22        1.0     0.781424     0.425280     0.114153    Uiso  ? N
   N23        1.0     0.536544     0.545623     0.881726    Uiso  ? N
   N24        1.0     0.446059     0.426760     0.616844    Uiso  ? N
   N25        1.0     0.223919     0.869922     0.375781    Uiso  ? N
   N26        1.0     0.110916     0.761659     0.127644    Uiso  ? N
   N27        1.0     0.873343     0.881013     0.883763    Uiso  ? N
   N28        1.0     0.782055     0.773666     0.632690    Uiso  ? N
   N29        1.0     0.559857     0.865413     0.367310    Uiso  ? N
   N30        1.0     0.442785     0.762178     0.130443    Uiso  ? N
   N31        1.0     0.236530     0.863374     0.876256    Uiso  ? N
   N32        1.0     0.106493     0.765267     0.608779    Uiso  ? N
   N33        1.0     0.886597     0.870553     0.369561    Uiso  ? N
   N34        1.0     0.777796     0.758867     0.120318    Uiso  ? N
   N35        1.0     0.552658     0.872830     0.871950    Uiso  ? N
   N36        1.0     0.438054     0.750915     0.621995    Uiso  ? N
