
#======================================================================
# CRYSTAL DATA
#----------------------------------------------------------------------
data_VESTA_phase_1

_chemical_name_common                  'Al   Hf   Mg   N                      '
_cell_length_a                         9.692035
_cell_length_b                         9.673977
_cell_length_c                         10.126962
_cell_angle_alpha                      90.056107
_cell_angle_beta                       90.027145
_cell_angle_gamma                      59.800823
_cell_volume                           820.643341
_space_group_name_H-M_alt              'P 1'
_space_group_IT_number                 1

loop_
_space_group_symop_operation_xyz
   'x, y, z'

loop_
   _atom_site_label
   _atom_site_occupancy
   _atom_site_fract_x
   _atom_site_fract_y
   _atom_site_fract_z
   _atom_site_adp_type
   _atom_site_U_iso_or_equiv
   _atom_site_type_symbol
   Al1        1.0     0.111343     0.088723     0.313619    Uiso  ? Al
   Al2        1.0     0.776840     0.086934     0.810459    Uiso  ? Al
   Al3        1.0     0.450697     0.085998     0.317651    Uiso  ? Al
   Al4        1.0     0.231130     0.203772     0.554489    Uiso  ? Al
   Al5        1.0     0.780459     0.090250     0.311635    Uiso  ? Al
   Al6        1.0     0.890353     0.199448     0.050313    Uiso  ? Al
   Al7        1.0     0.444918     0.093043     0.801066    Uiso  ? Al
   Al8        1.0     0.548313     0.208015     0.558880    Uiso  ? Al
   Al9        1.0     0.111530     0.433935     0.309287    Uiso  ? Al
   Al10       1.0     0.219204     0.548918     0.055915    Uiso  ? Al
   Al11       1.0     0.441821     0.433650     0.314792    Uiso  ? Al
   Al12       1.0     0.549944     0.547038     0.057455    Uiso  ? Al
   Al13       1.0     0.120197     0.429558     0.812031    Uiso  ? Al
   Al14       1.0     0.225624     0.543509     0.559142    Uiso  ? Al
   Al15       1.0     0.774414     0.429407     0.301631    Uiso  ? Al
   Al16       1.0     0.887051     0.545291     0.053657    Uiso  ? Al
   Al17       1.0     0.441318     0.433898     0.805826    Uiso  ? Al
   Al18       1.0     0.543948     0.545435     0.558469    Uiso  ? Al
   Al19       1.0     0.111468     0.760909     0.311437    Uiso  ? Al
   Al20       1.0     0.224853     0.863923     0.058666    Uiso  ? Al
   Al21       1.0     0.777513     0.767404     0.816106    Uiso  ? Al
   Al22       1.0     0.890641     0.869351     0.557080    Uiso  ? Al
   Al23       1.0     0.446664     0.761516     0.308667    Uiso  ? Al
   Al24       1.0     0.559611     0.861103     0.056076    Uiso  ? Al
   Al25       1.0     0.228020     0.864473     0.556568    Uiso  ? Al
   Al26       1.0     0.773190     0.765230     0.303416    Uiso  ? Al
   Al27       1.0     0.893880     0.866886     0.059152    Uiso  ? Al
   Al28       1.0     0.439208     0.758566     0.811249    Uiso  ? Al
   Hf1        1.0     0.218393     0.204725     0.067147    Uiso  ? Hf
   Hf2        1.0     0.888222     0.201889     0.571466    Uiso  ? Hf
   Hf3        1.0     0.559007     0.208111     0.061299    Uiso  ? Hf
   Hf4        1.0     0.888740     0.544233     0.567548    Uiso  ? Hf
   Mg1        1.0     0.119391     0.086023     0.810643    Uiso  ? Mg
   Mg2        1.0     0.771201     0.431934     0.824946    Uiso  ? Mg
   Mg3        1.0     0.110902     0.764118     0.811471    Uiso  ? Mg
   Mg4        1.0     0.549608     0.873085     0.564467    Uiso  ? Mg
   N1         1.0     0.222301     0.207310     0.356824    Uiso  ? N
   N2         1.0     0.101351     0.084925     0.123429    Uiso  ? N
   N3         1.0     0.882417     0.193921     0.863806    Uiso  ? N
   N4         1.0     0.766107     0.085095     0.617719    Uiso  ? N
   N5         1.0     0.556060     0.206276     0.362475    Uiso  ? N
   N6         1.0     0.456076     0.077204     0.125488    Uiso  ? N
   N7         1.0     0.231375     0.211997     0.866655    Uiso  ? N
   N8         1.0     0.130085     0.087687     0.601889    Uiso  ? N
   N9         1.0     0.886381     0.207014     0.362570    Uiso  ? N
   N10        1.0     0.792810     0.085993     0.124018    Uiso  ? N
   N11        1.0     0.553953     0.206223     0.857045    Uiso  ? N
   N12        1.0     0.438279     0.108198     0.614836    Uiso  ? N
   N13        1.0     0.222286     0.538876     0.368617    Uiso  ? N
   N14        1.0     0.103601     0.445805     0.121280    Uiso  ? N
   N15        1.0     0.900556     0.545400     0.864847    Uiso  ? N
   N16        1.0     0.758014     0.439239     0.616446    Uiso  ? N
   N17        1.0     0.556469     0.539019     0.366270    Uiso  ? N
   N18        1.0     0.435686     0.444578     0.125880    Uiso  ? N
   N19        1.0     0.232656     0.525482     0.871881    Uiso  ? N
   N20        1.0     0.129085     0.421097     0.618363    Uiso  ? N
   N21        1.0     0.887957     0.539780     0.358440    Uiso  ? N
   N22        1.0     0.779218     0.426479     0.110140    Uiso  ? N
   N23        1.0     0.538902     0.544431     0.874179    Uiso  ? N
   N24        1.0     0.444645     0.427863     0.613203    Uiso  ? N
   N25        1.0     0.225164     0.869004     0.364449    Uiso  ? N
   N26        1.0     0.110035     0.760969     0.120795    Uiso  ? N
   N27        1.0     0.873457     0.880480     0.876295    Uiso  ? N
   N28        1.0     0.782734     0.772616     0.627703    Uiso  ? N
   N29        1.0     0.558249     0.868091     0.359226    Uiso  ? N
   N30        1.0     0.445910     0.761134     0.120519    Uiso  ? N
   N31        1.0     0.236240     0.865411     0.879080    Uiso  ? N
   N32        1.0     0.108479     0.764523     0.602517    Uiso  ? N
   N33        1.0     0.887090     0.870991     0.365402    Uiso  ? N
   N34        1.0     0.777626     0.761063     0.114833    Uiso  ? N
   N35        1.0     0.554225     0.872143     0.865568    Uiso  ? N
   N36        1.0     0.435624     0.752805     0.621968    Uiso  ? N
