
#======================================================================
# CRYSTAL DATA
#----------------------------------------------------------------------
data_VESTA_phase_1

_chemical_name_common                  'Al   Hf   Mg   N                      '
_cell_length_a                         9.691929
_cell_length_b                         9.673905
_cell_length_c                         10.127312
_cell_angle_alpha                      90.055954
_cell_angle_beta                       90.027390
_cell_angle_gamma                      59.800575
_cell_volume                           820.654607
_space_group_name_H-M_alt              'P 1'
_space_group_IT_number                 1

loop_
_space_group_symop_operation_xyz
   'x, y, z'

loop_
   _atom_site_label
   _atom_site_occupancy
   _atom_site_fract_x
   _atom_site_fract_y
   _atom_site_fract_z
   _atom_site_adp_type
   _atom_site_U_iso_or_equiv
   _atom_site_type_symbol
   Al1        1.0     0.111342     0.088728     0.303425    Uiso  ? Al
   Al2        1.0     0.776839     0.086942     0.800277    Uiso  ? Al
   Al3        1.0     0.450685     0.086010     0.307465    Uiso  ? Al
   Al4        1.0     0.231119     0.203777     0.544312    Uiso  ? Al
   Al5        1.0     0.780446     0.090254     0.301446    Uiso  ? Al
   Al6        1.0     0.890341     0.199458     0.040144    Uiso  ? Al
   Al7        1.0     0.444910     0.093046     0.790878    Uiso  ? Al
   Al8        1.0     0.548307     0.208019     0.548699    Uiso  ? Al
   Al9        1.0     0.111529     0.433933     0.299101    Uiso  ? Al
   Al10       1.0     0.219198     0.548921     0.045729    Uiso  ? Al
   Al11       1.0     0.441817     0.433652     0.304603    Uiso  ? Al
   Al12       1.0     0.549939     0.547044     0.047268    Uiso  ? Al
   Al13       1.0     0.120183     0.429568     0.801846    Uiso  ? Al
   Al14       1.0     0.225618     0.543513     0.548955    Uiso  ? Al
   Al15       1.0     0.774403     0.429420     0.291443    Uiso  ? Al
   Al16       1.0     0.887043     0.545298     0.043477    Uiso  ? Al
   Al17       1.0     0.441312     0.433905     0.795637    Uiso  ? Al
   Al18       1.0     0.543939     0.545443     0.548285    Uiso  ? Al
   Al19       1.0     0.111462     0.760912     0.301252    Uiso  ? Al
   Al20       1.0     0.224845     0.863929     0.048483    Uiso  ? Al
   Al21       1.0     0.777508     0.767408     0.805923    Uiso  ? Al
   Al22       1.0     0.890635     0.869357     0.546896    Uiso  ? Al
   Al23       1.0     0.446657     0.761523     0.298480    Uiso  ? Al
   Al24       1.0     0.559603     0.861112     0.045889    Uiso  ? Al
   Al25       1.0     0.228012     0.864479     0.546380    Uiso  ? Al
   Al26       1.0     0.773183     0.765239     0.293229    Uiso  ? Al
   Al27       1.0     0.893874     0.866892     0.048967    Uiso  ? Al
   Al28       1.0     0.439200     0.758575     0.801067    Uiso  ? Al
   Hf1        1.0     0.218384     0.204730     0.056943    Uiso  ? Hf
   Hf2        1.0     0.888210     0.201897     0.561251    Uiso  ? Hf
   Hf3        1.0     0.558999     0.208117     0.051100    Uiso  ? Hf
   Hf4        1.0     0.888731     0.544243     0.557351    Uiso  ? Hf
   Mg1        1.0     0.119364     0.086032     0.800455    Uiso  ? Mg
   Mg2        1.0     0.771198     0.431935     0.814756    Uiso  ? Mg
   Mg3        1.0     0.110897     0.764121     0.801285    Uiso  ? Mg
   Mg4        1.0     0.549601     0.873091     0.554277    Uiso  ? Mg
   N1         1.0     0.222292     0.207315     0.346653    Uiso  ? N
   N2         1.0     0.101348     0.084930     0.113248    Uiso  ? N
   N3         1.0     0.882402     0.193932     0.853651    Uiso  ? N
   N4         1.0     0.766107     0.085101     0.607540    Uiso  ? N
   N5         1.0     0.556052     0.206282     0.352301    Uiso  ? N
   N6         1.0     0.456063     0.077218     0.115303    Uiso  ? N
   N7         1.0     0.231361     0.212001     0.856459    Uiso  ? N
   N8         1.0     0.130067     0.087695     0.591708    Uiso  ? N
   N9         1.0     0.886373     0.207020     0.352369    Uiso  ? N
   N10        1.0     0.792797     0.085997     0.113839    Uiso  ? N
   N11        1.0     0.553945     0.206227     0.846853    Uiso  ? N
   N12        1.0     0.438272     0.108201     0.604655    Uiso  ? N
   N13        1.0     0.222281     0.538878     0.358434    Uiso  ? N
   N14        1.0     0.103599     0.445803     0.111098    Uiso  ? N
   N15        1.0     0.900547     0.545407     0.854675    Uiso  ? N
   N16        1.0     0.758012     0.439242     0.606261    Uiso  ? N
   N17        1.0     0.556460     0.539026     0.356090    Uiso  ? N
   N18        1.0     0.435685     0.444579     0.115696    Uiso  ? N
   N19        1.0     0.232651     0.525484     0.861701    Uiso  ? N
   N20        1.0     0.129073     0.421106     0.608182    Uiso  ? N
   N21        1.0     0.887951     0.539787     0.348251    Uiso  ? N
   N22        1.0     0.779208     0.426491     0.099963    Uiso  ? N
   N23        1.0     0.538897     0.544437     0.863997    Uiso  ? N
   N24        1.0     0.444639     0.427869     0.603022    Uiso  ? N
   N25        1.0     0.225157     0.869010     0.354266    Uiso  ? N
   N26        1.0     0.110030     0.760972     0.110615    Uiso  ? N
   N27        1.0     0.873452     0.880485     0.866114    Uiso  ? N
   N28        1.0     0.782729     0.772620     0.617523    Uiso  ? N
   N29        1.0     0.558241     0.868100     0.349040    Uiso  ? N
   N30        1.0     0.445903     0.761141     0.110337    Uiso  ? N
   N31        1.0     0.236230     0.865420     0.868901    Uiso  ? N
   N32        1.0     0.108476     0.764525     0.592334    Uiso  ? N
   N33        1.0     0.887084     0.870997     0.355222    Uiso  ? N
   N34        1.0     0.777619     0.761072     0.104653    Uiso  ? N
   N35        1.0     0.554218     0.872150     0.855388    Uiso  ? N
   N36        1.0     0.435617     0.752814     0.611789    Uiso  ? N
