# generated using pymatgen
data_Sc5Al13N18
_symmetry_space_group_name_H-M   'P 1'
_cell_length_a   10.21414242
_cell_length_b   10.22063778
_cell_length_c   9.08373108
_cell_angle_alpha   89.93775699
_cell_angle_beta   89.95286939
_cell_angle_gamma   59.73582442
_symmetry_Int_Tables_number   1
_chemical_formula_structural   Sc5Al13N18
_chemical_formula_sum   'Sc10 Al26 N36'
_cell_volume   819.05349253
_cell_formula_units_Z   2
loop_
 _symmetry_equiv_pos_site_id
 _symmetry_equiv_pos_as_xyz
  1  'x, y, z'
loop_
 _atom_site_type_symbol
 _atom_site_label
 _atom_site_symmetry_multiplicity
 _atom_site_fract_x
 _atom_site_fract_y
 _atom_site_fract_z
 _atom_site_occupancy
  Sc  Sc0  1  0.11340554  0.09229694  0.36145944  1
  Sc  Sc1  1  0.22378277  0.21752450  0.10780753  1
  Sc  Sc2  1  0.77174570  0.09591203  0.85902896  1
  Sc  Sc3  1  0.11083327  0.09737100  0.85139509  1
  Sc  Sc4  1  0.55339022  0.53367407  0.10419235  1
  Sc  Sc5  1  0.78347412  0.43186046  0.35439230  1
  Sc  Sc6  1  0.55409378  0.53323562  0.60944311  1
  Sc  Sc7  1  0.21919827  0.86494722  0.10481641  1
  Sc  Sc8  1  0.89188197  0.86728916  0.60147527  1
  Sc  Sc9  1  0.56049846  0.87349273  0.10641083  1
  Al  Al10  1  0.88451548  0.21198161  0.61722844  1
  Al  Al11  1  0.44779319  0.09546816  0.37822595  1
  Al  Al12  1  0.55424768  0.20664478  0.12692215  1
  Al  Al13  1  0.22611981  0.21116453  0.61354231  1
  Al  Al14  1  0.77127459  0.09648293  0.36352405  1
  Al  Al15  1  0.88570930  0.20509714  0.11900451  1
  Al  Al16  1  0.44621590  0.10054084  0.86129005  1
  Al  Al17  1  0.54796908  0.20989672  0.61607367  1
  Al  Al18  1  0.11397059  0.43612613  0.38166427  1
  Al  Al19  1  0.21554631  0.53687106  0.12288194  1
  Al  Al20  1  0.78154441  0.43289908  0.86941047  1
  Al  Al21  1  0.88975336  0.53835625  0.62411912  1
  Al  Al22  1  0.43550867  0.42679171  0.36928000  1
  Al  Al23  1  0.11021873  0.43627549  0.86078013  1
  Al  Al24  1  0.22404413  0.53644297  0.62270770  1
  Al  Al25  1  0.89977897  0.54237085  0.11782090  1
  Al  Al26  1  0.43490751  0.42516626  0.87256914  1
  Al  Al27  1  0.11949790  0.75055996  0.36757511  1
  Al  Al28  1  0.78400654  0.75570781  0.86890904  1
  Al  Al29  1  0.44198030  0.76351355  0.37978173  1
  Al  Al30  1  0.11142894  0.74878904  0.87180959  1
  Al  Al31  1  0.22318250  0.86575799  0.61888121  1
  Al  Al32  1  0.77810755  0.75875713  0.37011383  1
  Al  Al33  1  0.89022866  0.86734801  0.12303626  1
  Al  Al34  1  0.44610347  0.75857067  0.85694939  1
  Al  Al35  1  0.55506116  0.87372010  0.61915413  1
  N  N36  1  0.23090636  0.21938661  0.35463434  1
  N  N37  1  0.09821820  0.10314450  0.09830064  1
  N  N38  1  0.87641613  0.22497085  0.83666433  1
  N  N39  1  0.76680819  0.11234332  0.58929934  1
  N  N40  1  0.55322897  0.20489141  0.34010876  1
  N  N41  1  0.45606706  0.10378554  0.07694819  1
  N  N42  1  0.22989140  0.21758951  0.83506236  1
  N  N43  1  0.11105098  0.09305768  0.60232338  1
  N  N44  1  0.87851870  0.19795793  0.33737661  1
  N  N45  1  0.77539506  0.09414350  0.10062867  1
  N  N46  1  0.53772521  0.21770267  0.82781073  1
  N  N47  1  0.44784593  0.09227852  0.59126730  1
  N  N48  1  0.22138122  0.53670834  0.33442766  1
  N  N49  1  0.10363076  0.44684259  0.07257516  1
  N  N50  1  0.88810760  0.54094358  0.83607517  1
  N  N51  1  0.79510614  0.42308120  0.59160002  1
  N  N52  1  0.53861972  0.54621606  0.35129326  1
  N  N53  1  0.43019592  0.41850746  0.08746474  1
  N  N54  1  0.22305039  0.53885642  0.83250133  1
  N  N55  1  0.10838145  0.43425173  0.59454218  1
  N  N56  1  0.90556316  0.54840027  0.33227836  1
  N  N57  1  0.79724892  0.42385978  0.09307371  1
  N  N58  1  0.55674845  0.53228978  0.84937480  1
  N  N59  1  0.43131229  0.41848443  0.58038544  1
  N  N60  1  0.23115336  0.85414432  0.34589686  1
  N  N61  1  0.10145850  0.74838091  0.08887565  1
  N  N62  1  0.89842478  0.85407816  0.83857119  1
  N  N63  1  0.76879626  0.75026233  0.58369032  1
  N  N64  1  0.55308616  0.87295002  0.34881266  1
  N  N65  1  0.44647243  0.76049396  0.07144070  1
  N  N66  1  0.22517634  0.85195522  0.83922429  1
  N  N67  1  0.13105862  0.74702947  0.58068022  1
  N  N68  1  0.88803042  0.87151371  0.34371654  1
  N  N69  1  0.79501365  0.75344577  0.08495749  1
  N  N70  1  0.55923983  0.87355352  0.83742626  1
  N  N71  1  0.43700434  0.77736335  0.59864135  1
