# generated using pymatgen
data_Sc5Al13N18
_symmetry_space_group_name_H-M   'P 1'
_cell_length_a   10.02462933
_cell_length_b   10.02814322
_cell_length_c   9.64020188
_cell_angle_alpha   89.96561339
_cell_angle_beta   89.97380013
_cell_angle_gamma   59.75025004
_symmetry_Int_Tables_number   1
_chemical_formula_structural   Sc5Al13N18
_chemical_formula_sum   'Sc10 Al26 N36'
_cell_volume   837.15726437
_cell_formula_units_Z   2
loop_
 _symmetry_equiv_pos_site_id
 _symmetry_equiv_pos_as_xyz
  1  'x, y, z'
loop_
 _atom_site_type_symbol
 _atom_site_label
 _atom_site_symmetry_multiplicity
 _atom_site_fract_x
 _atom_site_fract_y
 _atom_site_fract_z
 _atom_site_occupancy
  Sc  Sc0  1  0.11039815  0.09384135  0.34748046  1
  Sc  Sc1  1  0.22453844  0.21435334  0.09093862  1
  Sc  Sc2  1  0.77028080  0.10032481  0.85179168  1
  Sc  Sc3  1  0.11398165  0.09438065  0.83219032  1
  Sc  Sc4  1  0.55946867  0.52987122  0.08193005  1
  Sc  Sc5  1  0.78125792  0.43225788  0.34639410  1
  Sc  Sc6  1  0.54868260  0.53744341  0.59675354  1
  Sc  Sc7  1  0.21837815  0.86417159  0.09181047  1
  Sc  Sc8  1  0.88740023  0.87353994  0.59264261  1
  Sc  Sc9  1  0.56122254  0.87323449  0.09140780  1
  Al  Al10  1  0.88403893  0.20449933  0.57707483  1
  Al  Al11  1  0.45047557  0.09902424  0.33741011  1
  Al  Al12  1  0.54686255  0.21083932  0.08050132  1
  Al  Al13  1  0.22498935  0.21315089  0.57617590  1
  Al  Al14  1  0.77315429  0.09229329  0.31966756  1
  Al  Al15  1  0.88662843  0.21481325  0.07822856  1
  Al  Al16  1  0.44350456  0.09758985  0.81837143  1
  Al  Al17  1  0.55384161  0.20706280  0.57454090  1
  Al  Al18  1  0.11210818  0.44007878  0.32823158  1
  Al  Al19  1  0.21552090  0.53901858  0.07656673  1
  Al  Al20  1  0.78338034  0.43300754  0.81987142  1
  Al  Al21  1  0.89601168  0.54045337  0.57967291  1
  Al  Al22  1  0.43702812  0.42665454  0.32744878  1
  Al  Al23  1  0.11239578  0.43179757  0.82455890  1
  Al  Al24  1  0.22324673  0.53320128  0.57543694  1
  Al  Al25  1  0.89492256  0.53944759  0.07445416  1
  Al  Al26  1  0.43286356  0.42421473  0.82631908  1
  Al  Al27  1  0.10851401  0.75265622  0.33018379  1
  Al  Al28  1  0.77556522  0.75536086  0.82638233  1
  Al  Al29  1  0.44502870  0.75576551  0.33408046  1
  Al  Al30  1  0.12162476  0.74734242  0.82413314  1
  Al  Al31  1  0.22521511  0.86619239  0.57374334  1
  Al  Al32  1  0.78635850  0.76083084  0.32733848  1
  Al  Al33  1  0.89531335  0.85951094  0.07503973  1
  Al  Al34  1  0.44332308  0.76602369  0.82056617  1
  Al  Al35  1  0.55400055  0.87362339  0.57418413  1
  N  N36  1  0.23021141  0.22137829  0.37403517  1
  N  N37  1  0.09682228  0.10227873  0.11830337  1
  N  N38  1  0.87919644  0.22911206  0.87980576  1
  N  N39  1  0.76430130  0.11507021  0.63124853  1
  N  N40  1  0.55840391  0.20714387  0.37682569  1
  N  N41  1  0.45661842  0.10235568  0.14296653  1
  N  N42  1  0.23065147  0.21576362  0.86536974  1
  N  N43  1  0.11177778  0.09352160  0.60214491  1
  N  N44  1  0.87420899  0.19560216  0.37960230  1
  N  N45  1  0.77623263  0.09575155  0.11214927  1
  N  N46  1  0.53144139  0.21556736  0.88360945  1
  N  N47  1  0.44769757  0.09373889  0.61763234  1
  N  N48  1  0.22317389  0.53840198  0.37973578  1
  N  N49  1  0.10093786  0.44816564  0.13100212  1
  N  N50  1  0.89091991  0.53907277  0.87374477  1
  N  N51  1  0.79886941  0.42029106  0.61607718  1
  N  N52  1  0.53943793  0.54012953  0.36982745  1
  N  N53  1  0.42899700  0.42214530  0.12914573  1
  N  N54  1  0.22031229  0.53749400  0.87852552  1
  N  N55  1  0.11136587  0.43090439  0.62745599  1
  N  N56  1  0.90294749  0.55263044  0.38477494  1
  N  N57  1  0.79692051  0.42555570  0.12590708  1
  N  N58  1  0.55592188  0.53898130  0.84931290  1
  N  N59  1  0.43070526  0.41425689  0.63040608  1
  N  N60  1  0.22780268  0.85107826  0.37132412  1
  N  N61  1  0.10121300  0.74735194  0.13268794  1
  N  N62  1  0.90092485  0.84979471  0.86871972  1
  N  N63  1  0.76614029  0.75267702  0.62968407  1
  N  N64  1  0.55901117  0.86998413  0.37191757  1
  N  N65  1  0.44869776  0.75622323  0.13796056  1
  N  N66  1  0.23129347  0.85121937  0.86989743  1
  N  N67  1  0.13223831  0.74704623  0.62588795  1
  N  N68  1  0.88597951  0.87641106  0.36987012  1
  N  N69  1  0.79735130  0.74999710  0.12834903  1
  N  N70  1  0.55260885  0.87634396  0.86733855  1
  N  N71  1  0.43449689  0.78245074  0.62149543  1
