# generated using pymatgen
data_Sc5Al13N18
_symmetry_space_group_name_H-M   'P 1'
_cell_length_a   9.97447693
_cell_length_b   9.97668802
_cell_length_c   9.78071504
_cell_angle_alpha   89.94199516
_cell_angle_beta   89.95462634
_cell_angle_gamma   59.74072331
_symmetry_Int_Tables_number   1
_chemical_formula_structural   Sc5Al13N18
_chemical_formula_sum   'Sc10 Al26 N36'
_cell_volume   840.69200573
_cell_formula_units_Z   2
loop_
 _symmetry_equiv_pos_site_id
 _symmetry_equiv_pos_as_xyz
  1  'x, y, z'
loop_
 _atom_site_type_symbol
 _atom_site_label
 _atom_site_symmetry_multiplicity
 _atom_site_fract_x
 _atom_site_fract_y
 _atom_site_fract_z
 _atom_site_occupancy
  Sc  Sc0  1  0.11447302  0.09134161  0.37805050  1
  Sc  Sc1  1  0.22319067  0.21600258  0.11839978  1
  Sc  Sc2  1  0.77317336  0.09343677  0.86737377  1
  Sc  Sc3  1  0.11051623  0.09784432  0.85848108  1
  Sc  Sc4  1  0.55171214  0.53392380  0.11601803  1
  Sc  Sc5  1  0.78324488  0.43106559  0.36036535  1
  Sc  Sc6  1  0.55615314  0.53332575  0.61742116  1
  Sc  Sc7  1  0.21701574  0.86745316  0.11369320  1
  Sc  Sc8  1  0.89231742  0.86616899  0.60632616  1
  Sc  Sc9  1  0.56154456  0.87352305  0.11680013  1
  Al  Al10  1  0.88443888  0.21452638  0.62996860  1
  Al  Al11  1  0.44710737  0.09546397  0.38544217  1
  Al  Al12  1  0.55603288  0.20534161  0.13277045  1
  Al  Al13  1  0.22599087  0.21190832  0.62941486  1
  Al  Al14  1  0.76965898  0.09886822  0.38004017  1
  Al  Al15  1  0.88593082  0.20175675  0.12940413  1
  Al  Al16  1  0.44613659  0.10143713  0.87281042  1
  Al  Al17  1  0.54615841  0.21010649  0.62635807  1
  Al  Al18  1  0.11457727  0.43560332  0.38497787  1
  Al  Al19  1  0.21503552  0.53828603  0.12936001  1
  Al  Al20  1  0.78079730  0.43306773  0.88549794  1
  Al  Al21  1  0.89004851  0.53624117  0.63135526  1
  Al  Al22  1  0.43571653  0.42603375  0.37881538  1
  Al  Al23  1  0.10963201  0.43704658  0.87371934  1
  Al  Al24  1  0.22378142  0.53513490  0.63041481  1
  Al  Al25  1  0.89956937  0.54450065  0.12674333  1
  Al  Al26  1  0.43547736  0.42591593  0.88012027  1
  Al  Al27  1  0.12262085  0.75061425  0.37837374  1
  Al  Al28  1  0.78555690  0.75540080  0.87687242  1
  Al  Al29  1  0.44081359  0.76495758  0.38688290  1
  Al  Al30  1  0.11012372  0.74845163  0.87923457  1
  Al  Al31  1  0.22565728  0.86452213  0.63478749  1
  Al  Al32  1  0.77528534  0.75950947  0.38054830  1
  Al  Al33  1  0.88940004  0.86933226  0.13635055  1
  Al  Al34  1  0.44797672  0.75613469  0.87111318  1
  Al  Al35  1  0.55353743  0.87403255  0.63141347  1
  N  N36  1  0.23097777  0.21838663  0.33944793  1
  N  N37  1  0.09523378  0.10517869  0.08198946  1
  N  N38  1  0.87313907  0.22880346  0.82392974  1
  N  N39  1  0.76547923  0.11577969  0.58097159  1
  N  N40  1  0.55352107  0.20465369  0.32922106  1
  N  N41  1  0.45710871  0.10429823  0.06523617  1
  N  N42  1  0.23043071  0.21988033  0.82786689  1
  N  N43  1  0.11233634  0.09252048  0.60374691  1
  N  N44  1  0.88043456  0.19372594  0.32371787  1
  N  N45  1  0.77636795  0.09244742  0.08744702  1
  N  N46  1  0.53718896  0.21810597  0.81850919  1
  N  N47  1  0.44657193  0.09250044  0.58121159  1
  N  N48  1  0.22200259  0.53765984  0.32449418  1
  N  N49  1  0.10304553  0.44756555  0.06603177  1
  N  N50  1  0.88805656  0.53925166  0.82730851  1
  N  N51  1  0.79793818  0.42109392  0.57567492  1
  N  N52  1  0.53702235  0.54638999  0.34524759  1
  N  N53  1  0.42946071  0.41759909  0.07578188  1
  N  N54  1  0.22265848  0.53822385  0.82390740  1
  N  N55  1  0.10867899  0.43306744  0.58135175  1
  N  N56  1  0.90508613  0.55133861  0.32115484  1
  N  N57  1  0.79777873  0.42293309  0.08829474  1
  N  N58  1  0.55799321  0.53260956  0.84477853  1
  N  N59  1  0.43080728  0.41766045  0.57179945  1
  N  N60  1  0.23104940  0.85488160  0.33153737  1
  N  N61  1  0.09836719  0.74976136  0.07588006  1
  N  N62  1  0.89967943  0.85150835  0.82200318  1
  N  N63  1  0.76606775  0.74866021  0.57468671  1
  N  N64  1  0.55296148  0.87355613  0.33693885  1
  N  N65  1  0.44648210  0.76100755  0.06259208  1
  N  N66  1  0.22835583  0.84876919  0.83284371  1
  N  N67  1  0.13583702  0.74611949  0.57238194  1
  N  N68  1  0.88795235  0.87212876  0.34223563  1
  N  N69  1  0.79702093  0.75470805  0.07264882  1
  N  N70  1  0.55802249  0.87336743  0.83083593  1
  N  N71  1  0.43583061  0.77935095  0.58435768  1
