# generated using pymatgen
data_Sc5Al13N18
_symmetry_space_group_name_H-M   'P 1'
_cell_length_a   9.97227528
_cell_length_b   9.97616534
_cell_length_c   9.78581205
_cell_angle_alpha   89.97340191
_cell_angle_beta   89.97663611
_cell_angle_gamma   59.75103192
_symmetry_Int_Tables_number   1
_chemical_formula_structural   Sc5Al13N18
_chemical_formula_sum   'Sc10 Al26 N36'
_cell_volume   840.98901571
_cell_formula_units_Z   2
loop_
 _symmetry_equiv_pos_site_id
 _symmetry_equiv_pos_as_xyz
  1  'x, y, z'
loop_
 _atom_site_type_symbol
 _atom_site_label
 _atom_site_symmetry_multiplicity
 _atom_site_fract_x
 _atom_site_fract_y
 _atom_site_fract_z
 _atom_site_occupancy
  Sc  Sc0  1  0.11057662  0.09396657  0.34625572  1
  Sc  Sc1  1  0.22405243  0.21414167  0.08815269  1
  Sc  Sc2  1  0.77046274  0.10033059  0.85000829  1
  Sc  Sc3  1  0.11400954  0.09422845  0.82742788  1
  Sc  Sc4  1  0.55946674  0.52980383  0.07729944  1
  Sc  Sc5  1  0.78022005  0.43268591  0.34394030  1
  Sc  Sc6  1  0.54891035  0.53756604  0.59600624  1
  Sc  Sc7  1  0.21844629  0.86479859  0.08967849  1
  Sc  Sc8  1  0.88756780  0.87352178  0.59032087  1
  Sc  Sc9  1  0.56126835  0.87290193  0.08883877  1
  Al  Al10  1  0.88395257  0.20457974  0.57484290  1
  Al  Al11  1  0.45053204  0.09892423  0.33500884  1
  Al  Al12  1  0.54706099  0.21090715  0.07927240  1
  Al  Al13  1  0.22548625  0.21309589  0.57398782  1
  Al  Al14  1  0.77308301  0.09223059  0.31831428  1
  Al  Al15  1  0.88696616  0.21447479  0.07712800  1
  Al  Al16  1  0.44332824  0.09768827  0.81777619  1
  Al  Al17  1  0.55365949  0.20669913  0.57348291  1
  Al  Al18  1  0.11237956  0.43985946  0.32705055  1
  Al  Al19  1  0.21587679  0.53882679  0.07584475  1
  Al  Al20  1  0.78400615  0.43249505  0.81810646  1
  Al  Al21  1  0.89605879  0.54020053  0.57795730  1
  Al  Al22  1  0.43733108  0.42688649  0.32685969  1
  Al  Al23  1  0.11215865  0.43190593  0.82339045  1
  Al  Al24  1  0.22297532  0.53347693  0.57415934  1
  Al  Al25  1  0.89474943  0.53943997  0.07382881  1
  Al  Al26  1  0.43275180  0.42422144  0.82418785  1
  Al  Al27  1  0.10841611  0.75288943  0.32811232  1
  Al  Al28  1  0.77563929  0.75515872  0.82489219  1
  Al  Al29  1  0.44515141  0.75533859  0.33274134  1
  Al  Al30  1  0.12174747  0.74738986  0.82352134  1
  Al  Al31  1  0.22536768  0.86600663  0.57134814  1
  Al  Al32  1  0.78607944  0.76112046  0.32614539  1
  Al  Al33  1  0.89513476  0.85966231  0.07346044  1
  Al  Al34  1  0.44310616  0.76637946  0.81865447  1
  Al  Al35  1  0.55365600  0.87402459  0.57294099  1
  N  N36  1  0.23094364  0.22148734  0.37591547  1
  N  N37  1  0.09644997  0.10255664  0.12257901  1
  N  N38  1  0.88006427  0.22902286  0.88224784  1
  N  N39  1  0.76438268  0.11536896  0.63292496  1
  N  N40  1  0.55843512  0.20671440  0.37840043  1
  N  N41  1  0.45657958  0.10232319  0.14384402  1
  N  N42  1  0.23014597  0.21564891  0.86706162  1
  N  N43  1  0.11183932  0.09358993  0.60161662  1
  N  N44  1  0.87352377  0.19584007  0.38128410  1
  N  N45  1  0.77635286  0.09558418  0.11315253  1
  N  N46  1  0.53108353  0.21605593  0.88535524  1
  N  N47  1  0.44760887  0.09372875  0.62023590  1
  N  N48  1  0.22289381  0.53884133  0.38108110  1
  N  N49  1  0.10101703  0.44801216  0.13288200  1
  N  N50  1  0.89073488  0.53908641  0.87578152  1
  N  N51  1  0.79969492  0.41967758  0.61807912  1
  N  N52  1  0.53891738  0.54055912  0.37356193  1
  N  N53  1  0.42958591  0.42226277  0.13141514  1
  N  N54  1  0.22056130  0.53731214  0.88031808  1
  N  N55  1  0.11129979  0.43087102  0.62890372  1
  N  N56  1  0.90282901  0.55261282  0.38603262  1
  N  N57  1  0.79624516  0.42557259  0.12723472  1
  N  N58  1  0.55587360  0.53881448  0.84857737  1
  N  N59  1  0.43036139  0.41392414  0.63157798  1
  N  N60  1  0.22798867  0.85063577  0.37307056  1
  N  N61  1  0.10122578  0.74765157  0.13377354  1
  N  N62  1  0.90094590  0.84947828  0.87075541  1
  N  N63  1  0.76616406  0.75243656  0.63117733  1
  N  N64  1  0.55863141  0.87027342  0.37368062  1
  N  N65  1  0.44925593  0.75522305  0.14015537  1
  N  N66  1  0.23138638  0.85161475  0.87188409  1
  N  N67  1  0.13257562  0.74715785  0.62827659  1
  N  N68  1  0.88614118  0.87641682  0.37114971  1
  N  N69  1  0.79730844  0.75012866  0.13040994  1
  N  N70  1  0.55277198  0.87607416  0.86866583  1
  N  N71  1  0.43390287  0.78337499  0.62350035  1
