# generated using pymatgen
data_Sc5Al13N18
_symmetry_space_group_name_H-M   'P 1'
_cell_length_a   9.83342698
_cell_length_b   9.83648781
_cell_length_c   10.14823215
_cell_angle_alpha   89.93709225
_cell_angle_beta   89.91700016
_cell_angle_gamma   59.82925993
_symmetry_Int_Tables_number   1
_chemical_formula_structural   Sc5Al13N18
_chemical_formula_sum   'Sc10 Al26 N36'
_cell_volume   848.62478532
_cell_formula_units_Z   2
loop_
 _symmetry_equiv_pos_site_id
 _symmetry_equiv_pos_as_xyz
  1  'x, y, z'
loop_
 _atom_site_type_symbol
 _atom_site_label
 _atom_site_symmetry_multiplicity
 _atom_site_fract_x
 _atom_site_fract_y
 _atom_site_fract_z
 _atom_site_occupancy
  Sc  Sc0  1  0.11350702  0.09216827  0.39500749  1
  Sc  Sc1  1  0.22179103  0.21402659  0.12770058  1
  Sc  Sc2  1  0.77218926  0.09328771  0.88250155  1
  Sc  Sc3  1  0.11131350  0.09583970  0.86327372  1
  Sc  Sc4  1  0.55197928  0.53482935  0.12551451  1
  Sc  Sc5  1  0.78208988  0.43130444  0.37315575  1
  Sc  Sc6  1  0.55588108  0.53411371  0.63047501  1
  Sc  Sc7  1  0.21547708  0.87032404  0.12732468  1
  Sc  Sc8  1  0.89106486  0.86860767  0.61797688  1
  Sc  Sc9  1  0.56164294  0.87400460  0.12936428  1
  Al  Al10  1  0.88325744  0.21332027  0.63840248  1
  Al  Al11  1  0.44676904  0.09618394  0.39237713  1
  Al  Al12  1  0.55434687  0.20607617  0.13875348  1
  Al  Al13  1  0.22639545  0.21223475  0.63776191  1
  Al  Al14  1  0.77084772  0.09845501  0.38275436  1
  Al  Al15  1  0.88703788  0.20317012  0.13566735  1
  Al  Al16  1  0.44602694  0.10051557  0.87830402  1
  Al  Al17  1  0.54772907  0.20958428  0.63190301  1
  Al  Al18  1  0.11444635  0.43514248  0.38889446  1
  Al  Al19  1  0.21567039  0.53839721  0.13418610  1
  Al  Al20  1  0.78037987  0.43222421  0.89073300  1
  Al  Al21  1  0.89153674  0.53574740  0.63795022  1
  Al  Al22  1  0.43608375  0.42671334  0.38549292  1
  Al  Al23  1  0.11027766  0.43593900  0.88134998  1
  Al  Al24  1  0.22335137  0.53461326  0.63590659  1
  Al  Al25  1  0.89819193  0.54359756  0.13154162  1
  Al  Al26  1  0.43621578  0.42616004  0.88563746  1
  Al  Al27  1  0.12044941  0.75151514  0.38557170  1
  Al  Al28  1  0.78391591  0.75555539  0.88293377  1
  Al  Al29  1  0.44131099  0.76425552  0.39352249  1
  Al  Al30  1  0.11224800  0.74860230  0.88471537  1
  Al  Al31  1  0.22722170  0.86305482  0.64057780  1
  Al  Al32  1  0.77716560  0.75973086  0.38716280  1
  Al  Al33  1  0.89026083  0.86830132  0.14100576  1
  Al  Al34  1  0.44769709  0.75723812  0.87997780  1
  Al  Al35  1  0.55344180  0.87386283  0.63566828  1
  N  N36  1  0.23022443  0.21655820  0.34017865  1
  N  N37  1  0.09385153  0.10490911  0.07499557  1
  N  N38  1  0.87075034  0.22764604  0.82375988  1
  N  N39  1  0.76553267  0.11670672  0.57582956  1
  N  N40  1  0.55245900  0.20569671  0.32898900  1
  N  N41  1  0.45645153  0.10363426  0.06437818  1
  N  N42  1  0.23092246  0.22031003  0.82684219  1
  N  N43  1  0.11223339  0.09243772  0.61015697  1
  N  N44  1  0.88328322  0.19430514  0.32241081  1
  N  N45  1  0.77600178  0.09301685  0.09316570  1
  N  N46  1  0.53859663  0.21728975  0.81813395  1
  N  N47  1  0.44623681  0.09313540  0.58146512  1
  N  N48  1  0.22213954  0.53821793  0.32439467  1
  N  N49  1  0.10353072  0.44606911  0.06755373  1
  N  N50  1  0.88887187  0.53865770  0.82796173  1
  N  N51  1  0.79790721  0.42038748  0.57963890  1
  N  N52  1  0.53666417  0.54703142  0.34299484  1
  N  N53  1  0.43019664  0.41760882  0.07472800  1
  N  N54  1  0.22272655  0.53767597  0.82421062  1
  N  N55  1  0.10909801  0.43199757  0.57988318  1
  N  N56  1  0.90381090  0.55111638  0.32022242  1
  N  N57  1  0.79740696  0.42257575  0.08482611  1
  N  N58  1  0.55754718  0.53397357  0.84686296  1
  N  N59  1  0.43132538  0.41829496  0.57229162  1
  N  N60  1  0.22964072  0.85736390  0.33614277  1
  N  N61  1  0.09995466  0.75032192  0.07476334  1
  N  N62  1  0.89927526  0.85289718  0.82555389  1
  N  N63  1  0.76773746  0.74819125  0.57494680  1
  N  N64  1  0.55388920  0.87372105  0.34088082  1
  N  N65  1  0.44462012  0.76389610  0.06406041  1
  N  N66  1  0.23143836  0.84603258  0.82931314  1
  N  N67  1  0.13447210  0.74641789  0.57316965  1
  N  N68  1  0.88919650  0.87150254  0.34019306  1
  N  N69  1  0.79587301  0.75466053  0.07210346  1
  N  N70  1  0.55744665  0.87303767  0.82856263  1
  N  N71  1  0.43650200  0.77827700  0.58212417  1
