# generated using pymatgen
data_Sc5Al13N18
_symmetry_space_group_name_H-M   'P 1'
_cell_length_a   9.83045276
_cell_length_b   9.83339332
_cell_length_c   10.15532343
_cell_angle_alpha   89.93684471
_cell_angle_beta   89.91500831
_cell_angle_gamma   59.83562850
_symmetry_Int_Tables_number   1
_chemical_formula_structural   Sc5Al13N18
_chemical_formula_sum   'Sc10 Al26 N36'
_cell_volume   848.74864359
_cell_formula_units_Z   2
loop_
 _symmetry_equiv_pos_site_id
 _symmetry_equiv_pos_as_xyz
  1  'x, y, z'
loop_
 _atom_site_type_symbol
 _atom_site_label
 _atom_site_symmetry_multiplicity
 _atom_site_fract_x
 _atom_site_fract_y
 _atom_site_fract_z
 _atom_site_occupancy
  Sc  Sc0  1  0.11341648  0.09227064  0.41502440  1
  Sc  Sc1  1  0.22175016  0.21400586  0.14756425  1
  Sc  Sc2  1  0.77209815  0.09334282  0.90255691  1
  Sc  Sc3  1  0.11129749  0.09579554  0.88307579  1
  Sc  Sc4  1  0.55197936  0.53490770  0.14529649  1
  Sc  Sc5  1  0.78196967  0.43139033  0.39317207  1
  Sc  Sc6  1  0.55582455  0.53417808  0.65054297  1
  Sc  Sc7  1  0.21542381  0.87042066  0.14736445  1
  Sc  Sc8  1  0.89100373  0.86872625  0.63798299  1
  Sc  Sc9  1  0.56163203  0.87406845  0.14933834  1
  Al  Al10  1  0.88319303  0.21331503  0.65826934  1
  Al  Al11  1  0.44673256  0.09623851  0.41221906  1
  Al  Al12  1  0.55427018  0.20613995  0.15858926  1
  Al  Al13  1  0.22637540  0.21225496  0.65762157  1
  Al  Al14  1  0.77085134  0.09847608  0.40244909  1
  Al  Al15  1  0.88702514  0.20326661  0.15549443  1
  Al  Al16  1  0.44600522  0.10051710  0.89807901  1
  Al  Al17  1  0.54774365  0.20962087  0.65167431  1
  Al  Al18  1  0.11441601  0.43515137  0.40866368  1
  Al  Al19  1  0.21566351  0.53843097  0.15397621  1
  Al  Al20  1  0.78037817  0.43221604  0.91050580  1
  Al  Al21  1  0.89155145  0.53577720  0.65778457  1
  Al  Al22  1  0.43606254  0.42680318  0.40528813  1
  Al  Al23  1  0.11027288  0.43593379  0.90118769  1
  Al  Al24  1  0.22331508  0.53463520  0.65569207  1
  Al  Al25  1  0.89814195  0.54358720  0.15133190  1
  Al  Al26  1  0.43619136  0.42618358  0.90545234  1
  Al  Al27  1  0.12034132  0.75158191  0.40541310  1
  Al  Al28  1  0.78386124  0.75558562  0.90276385  1
  Al  Al29  1  0.44130283  0.76427046  0.41335938  1
  Al  Al30  1  0.11229540  0.74863765  0.90452199  1
  Al  Al31  1  0.22722433  0.86306136  0.66034361  1
  Al  Al32  1  0.77720791  0.75977110  0.40698274  1
  Al  Al33  1  0.89027192  0.86830025  0.16076539  1
  Al  Al34  1  0.44765244  0.75734007  0.89985152  1
  Al  Al35  1  0.55343961  0.87388587  0.65542519  1
  N  N36  1  0.23019721  0.21654437  0.35990602  1
  N  N37  1  0.09380027  0.10490720  0.09461421  1
  N  N38  1  0.87067528  0.22761596  0.84347874  1
  N  N39  1  0.76551388  0.11674394  0.59539669  1
  N  N40  1  0.55239636  0.20577203  0.34870557  1
  N  N41  1  0.45642377  0.10364671  0.08405500  1
  N  N42  1  0.23090337  0.22032645  0.84654306  1
  N  N43  1  0.11218895  0.09247260  0.62999396  1
  N  N44  1  0.88328612  0.19442912  0.34210737  1
  N  N45  1  0.77595672  0.09307412  0.11304872  1
  N  N46  1  0.53860535  0.21731290  0.83781194  1
  N  N47  1  0.44619824  0.09318479  0.60118960  1
  N  N48  1  0.22210092  0.53827639  0.34410667  1
  N  N49  1  0.10352246  0.44605648  0.08729248  1
  N  N50  1  0.88888253  0.53868113  0.84768412  1
  N  N51  1  0.79782183  0.42043528  0.59951049  1
  N  N52  1  0.53661154  0.54712106  0.36256399  1
  N  N53  1  0.43018630  0.41764069  0.09442789  1
  N  N54  1  0.22270866  0.53769444  0.84391927  1
  N  N55  1  0.10908584  0.43198197  0.59957017  1
  N  N56  1  0.90374610  0.55112051  0.33992608  1
  N  N57  1  0.79739261  0.42258978  0.10440902  1
  N  N58  1  0.55751079  0.53404459  0.86670934  1
  N  N59  1  0.43131900  0.41837356  0.59199495  1
  N  N60  1  0.22956720  0.85748430  0.35603196  1
  N  N61  1  0.09999869  0.75036326  0.09445636  1
  N  N62  1  0.89924170  0.85299702  0.84541347  1
  N  N63  1  0.76778841  0.74822215  0.59466404  1
  N  N64  1  0.55389988  0.87376220  0.36071039  1
  N  N65  1  0.44451560  0.76407248  0.08380806  1
  N  N66  1  0.23150107  0.84599596  0.84891132  1
  N  N67  1  0.13436552  0.74646698  0.59290096  1
  N  N68  1  0.88920642  0.87152580  0.35979452  1
  N  N69  1  0.79581917  0.75467367  0.09181616  1
  N  N70  1  0.55743886  0.87305852  0.84820940  1
  N  N71  1  0.43651944  0.77824932  0.60181144  1
