# generated using pymatgen
data_Sc5Al13N18
_symmetry_space_group_name_H-M   'P 1'
_cell_length_a   10.29713795
_cell_length_b   10.30483685
_cell_length_c   8.84190918
_cell_angle_alpha   89.93482933
_cell_angle_beta   89.94227643
_cell_angle_gamma   59.74222831
_symmetry_Int_Tables_number   1
_chemical_formula_structural   Sc5Al13N18
_chemical_formula_sum   'Sc10 Al26 N36'
_cell_volume   810.40116279
_cell_formula_units_Z   2
loop_
 _symmetry_equiv_pos_site_id
 _symmetry_equiv_pos_as_xyz
  1  'x, y, z'
loop_
 _atom_site_type_symbol
 _atom_site_label
 _atom_site_symmetry_multiplicity
 _atom_site_fract_x
 _atom_site_fract_y
 _atom_site_fract_z
 _atom_site_occupancy
  Sc  Sc0  1  0.11270298  0.09283471  0.35875777  1
  Sc  Sc1  1  0.22346804  0.21751883  0.10483120  1
  Sc  Sc2  1  0.77082865  0.09731052  0.85751010  1
  Sc  Sc3  1  0.11115088  0.09672512  0.84904291  1
  Sc  Sc4  1  0.55434882  0.53298984  0.10168178  1
  Sc  Sc5  1  0.78371613  0.43181316  0.35349010  1
  Sc  Sc6  1  0.55277312  0.53437711  0.60771237  1
  Sc  Sc7  1  0.21918236  0.86462353  0.10319218  1
  Sc  Sc8  1  0.89127215  0.86856878  0.60070393  1
  Sc  Sc9  1  0.56064725  0.87315288  0.10421036  1
  Al  Al10  1  0.88451915  0.21023301  0.60924351  1
  Al  Al11  1  0.44788729  0.09624967  0.37080720  1
  Al  Al12  1  0.55328925  0.20791137  0.12234859  1
  Al  Al13  1  0.22658757  0.21128190  0.60763843  1
  Al  Al14  1  0.77238088  0.09570267  0.35481935  1
  Al  Al15  1  0.88588014  0.20726076  0.11036880  1
  Al  Al16  1  0.44596270  0.09935882  0.85407290  1
  Al  Al17  1  0.54913146  0.20911743  0.60961058  1
  Al  Al18  1  0.11369926  0.43604124  0.37769869  1
  Al  Al19  1  0.21620981  0.53658828  0.11856123  1
  Al  Al20  1  0.78192542  0.43262134  0.85944106  1
  Al  Al21  1  0.89083153  0.53881323  0.61895047  1
  Al  Al22  1  0.43580308  0.42695858  0.36501219  1
  Al  Al23  1  0.11061665  0.43569244  0.85592017  1
  Al  Al24  1  0.22373058  0.53648760  0.61763375  1
  Al  Al25  1  0.89875172  0.54155893  0.11143532  1
  Al  Al26  1  0.43472799  0.42520177  0.86670388  1
  Al  Al27  1  0.11708520  0.75096076  0.36211729  1
  Al  Al28  1  0.78229389  0.75591528  0.86186169  1
  Al  Al29  1  0.44263169  0.76230083  0.37328230  1
  Al  Al30  1  0.11301862  0.74895602  0.86532215  1
  Al  Al31  1  0.22354877  0.86534544  0.61049487  1
  Al  Al32  1  0.78012152  0.75876802  0.36396719  1
  Al  Al33  1  0.89117222  0.86568541  0.11348347  1
  Al  Al34  1  0.44525799  0.75997180  0.85281701  1
  Al  Al35  1  0.55478239  0.87372266  0.61034775  1
  N  N36  1  0.23016909  0.21948740  0.36024308  1
  N  N37  1  0.09888049  0.10235652  0.10109586  1
  N  N38  1  0.87729371  0.22333057  0.84522749  1
  N  N39  1  0.76727859  0.11099104  0.59278460  1
  N  N40  1  0.55351621  0.20591077  0.34586824  1
  N  N41  1  0.45519847  0.10309091  0.08808344  1
  N  N42  1  0.23004914  0.21666350  0.83744280  1
  N  N43  1  0.11035975  0.09346973  0.60220490  1
  N  N44  1  0.87857710  0.19935006  0.34547632  1
  N  N45  1  0.77490256  0.09560122  0.10721207  1
  N  N46  1  0.53792279  0.21656635  0.83435461  1
  N  N47  1  0.44800204  0.09269614  0.59488704  1
  N  N48  1  0.22149609  0.53655754  0.34033149  1
  N  N49  1  0.10386918  0.44610641  0.07829536  1
  N  N50  1  0.88890902  0.54124601  0.84093161  1
  N  N51  1  0.79438776  0.42328039  0.60112261  1
  N  N52  1  0.53960217  0.54539938  0.35253309  1
  N  N53  1  0.43045762  0.41926851  0.09256603  1
  N  N54  1  0.22275981  0.53874557  0.83710784  1
  N  N55  1  0.10875790  0.43405689  0.59940080  1
  N  N56  1  0.90482908  0.54745287  0.33948251  1
  N  N57  1  0.79655722  0.42465229  0.09445031  1
  N  N58  1  0.55570044  0.53336757  0.85033654  1
  N  N59  1  0.43199786  0.41887996  0.58656895  1
  N  N60  1  0.23038147  0.85424792  0.35370204  1
  N  N61  1  0.10333555  0.74779147  0.09529903  1
  N  N62  1  0.89781367  0.85534379  0.84882419  1
  N  N63  1  0.77022864  0.75132446  0.59036401  1
  N  N64  1  0.55417536  0.87217030  0.35600606  1
  N  N65  1  0.44618218  0.76048640  0.07982243  1
  N  N66  1  0.22532336  0.85273611  0.84081880  1
  N  N67  1  0.12857777  0.74770308  0.58678520  1
  N  N68  1  0.88826958  0.87148607  0.34355819  1
  N  N69  1  0.79378491  0.75279096  0.09161235  1
  N  N70  1  0.55835807  0.87404914  0.83926173  1
  N  N71  1  0.43751063  0.77649101  0.60203956  1
