# generated using pymatgen
data_Sc5Al13N18
_symmetry_space_group_name_H-M   'P 1'
_cell_length_a   10.21348974
_cell_length_b   10.21620949
_cell_length_c   9.08953106
_cell_angle_alpha   89.93843120
_cell_angle_beta   89.97176713
_cell_angle_gamma   59.76402437
_symmetry_Int_Tables_number   1
_chemical_formula_structural   Sc5Al13N18
_chemical_formula_sum   'Sc10 Al26 N36'
_cell_volume   819.40422839
_cell_formula_units_Z   2
loop_
 _symmetry_equiv_pos_site_id
 _symmetry_equiv_pos_as_xyz
  1  'x, y, z'
loop_
 _atom_site_type_symbol
 _atom_site_label
 _atom_site_symmetry_multiplicity
 _atom_site_fract_x
 _atom_site_fract_y
 _atom_site_fract_z
 _atom_site_occupancy
  Sc  Sc0  1  0.11112644  0.09311020  0.35390389  1
  Sc  Sc1  1  0.22545210  0.21459047  0.09892303  1
  Sc  Sc2  1  0.77035100  0.09855244  0.85544409  1
  Sc  Sc3  1  0.11277817  0.09542359  0.84354168  1
  Sc  Sc4  1  0.55762576  0.53091365  0.09386352  1
  Sc  Sc5  1  0.78361719  0.43173629  0.35058148  1
  Sc  Sc6  1  0.54984163  0.53656214  0.60080896  1
  Sc  Sc7  1  0.21763740  0.86354699  0.09789205  1
  Sc  Sc8  1  0.88743710  0.87279876  0.59605608  1
  Sc  Sc9  1  0.56090285  0.87414696  0.09813648  1
  Al  Al10  1  0.88397518  0.20678634  0.58819055  1
  Al  Al11  1  0.44922600  0.09845773  0.34851975  1
  Al  Al12  1  0.54807686  0.20959280  0.08952020  1
  Al  Al13  1  0.22376709  0.21385783  0.58901082  1
  Al  Al14  1  0.77256683  0.09464256  0.33088042  1
  Al  Al15  1  0.88617722  0.21251804  0.08633475  1
  Al  Al16  1  0.44477824  0.09776711  0.82198261  1
  Al  Al17  1  0.55331374  0.20885860  0.57931760  1
  Al  Al18  1  0.11186231  0.43899810  0.33636299  1
  Al  Al19  1  0.21503375  0.53942318  0.08197095  1
  Al  Al20  1  0.78204826  0.43345968  0.83430894  1
  Al  Al21  1  0.89512456  0.54004076  0.58914216  1
  Al  Al22  1  0.43633229  0.42684926  0.33214696  1
  Al  Al23  1  0.11266685  0.43254529  0.83015172  1
  Al  Al24  1  0.22416902  0.53248232  0.58237604  1
  Al  Al25  1  0.89583724  0.54013125  0.07850816  1
  Al  Al26  1  0.43353108  0.42397809  0.83637874  1
  Al  Al27  1  0.11206800  0.75130702  0.34063895  1
  Al  Al28  1  0.77805493  0.75638832  0.83379587  1
  Al  Al29  1  0.44427204  0.75813979  0.34229738  1
  Al  Al30  1  0.11825074  0.74813037  0.82890602  1
  Al  Al31  1  0.22525544  0.86611449  0.58934906  1
  Al  Al32  1  0.78430462  0.75937959  0.33541071  1
  Al  Al33  1  0.89456858  0.86153391  0.09180084  1
  Al  Al34  1  0.44440027  0.76365583  0.83096641  1
  Al  Al35  1  0.55499699  0.87226684  0.58567547  1
  N  N36  1  0.22814324  0.22065790  0.36918429  1
  N  N37  1  0.09820663  0.10167450  0.10683640  1
  N  N38  1  0.87793051  0.22582094  0.86818076  1
  N  N39  1  0.76503504  0.11271271  0.61755686  1
  N  N40  1  0.55662659  0.20922171  0.36814186  1
  N  N41  1  0.45531998  0.10182788  0.13668809  1
  N  N42  1  0.23169820  0.21563979  0.85262579  1
  N  N43  1  0.11093888  0.09368362  0.60296638  1
  N  N44  1  0.87665787  0.19762932  0.37011261  1
  N  N45  1  0.77554531  0.09677000  0.11151915  1
  N  N46  1  0.53417709  0.21345634  0.87614127  1
  N  N47  1  0.44849029  0.09418440  0.60653958  1
  N  N48  1  0.22423712  0.53658476  0.37295434  1
  N  N49  1  0.10166941  0.44708375  0.12221472  1
  N  N50  1  0.89215739  0.53948033  0.86400395  1
  N  N51  1  0.79610260  0.42229781  0.61268455  1
  N  N52  1  0.54095628  0.53994164  0.35868985  1
  N  N53  1  0.42840442  0.42196944  0.11872375  1
  N  N54  1  0.21973014  0.53826371  0.87008434  1
  N  N55  1  0.11112628  0.43189761  0.61989447  1
  N  N56  1  0.90240488  0.55095929  0.37797731  1
  N  N57  1  0.79695165  0.42576724  0.11187017  1
  N  N58  1  0.55546280  0.53896708  0.85111172  1
  N  N59  1  0.43231724  0.41578650  0.62442778  1
  N  N60  1  0.22803120  0.85275677  0.36631118  1
  N  N61  1  0.10304356  0.74665665  0.12658018  1
  N  N62  1  0.90035749  0.85207856  0.86371577  1
  N  N63  1  0.76817231  0.75353194  0.62124160  1
  N  N64  1  0.55934942  0.86886057  0.36735523  1
  N  N65  1  0.44661426  0.75935390  0.12431853  1
  N  N66  1  0.22942269  0.85177859  0.85588509  1
  N  N67  1  0.12910641  0.74717275  0.61435119  1
  N  N68  1  0.88580204  0.87541331  0.35721599  1
  N  N69  1  0.79573660  0.74991696  0.11892736  1
  N  N70  1  0.55301616  0.87697650  0.85591946  1
  N  N71  1  0.43698512  0.77830359  0.61347905  1
