# generated using pymatgen
data_Sc5Al13N18
_symmetry_space_group_name_H-M   'P 1'
_cell_length_a   10.07501062
_cell_length_b   10.07821337
_cell_length_c   9.49639861
_cell_angle_alpha   89.95800495
_cell_angle_beta   89.97219611
_cell_angle_gamma   59.75255432
_symmetry_Int_Tables_number   1
_chemical_formula_structural   Sc5Al13N18
_chemical_formula_sum   'Sc10 Al26 N36'
_cell_volume   832.97164484
_cell_formula_units_Z   2
loop_
 _symmetry_equiv_pos_site_id
 _symmetry_equiv_pos_as_xyz
  1  'x, y, z'
loop_
 _atom_site_type_symbol
 _atom_site_label
 _atom_site_symmetry_multiplicity
 _atom_site_fract_x
 _atom_site_fract_y
 _atom_site_fract_z
 _atom_site_occupancy
  Sc  Sc0  1  0.11039890  0.09369108  0.34904191  1
  Sc  Sc1  1  0.22490819  0.21448029  0.09335685  1
  Sc  Sc2  1  0.77018144  0.10008706  0.85313090  1
  Sc  Sc3  1  0.11380590  0.09457703  0.83616349  1
  Sc  Sc4  1  0.55919541  0.53010092  0.08597404  1
  Sc  Sc5  1  0.78210838  0.43196443  0.34808405  1
  Sc  Sc6  1  0.54874820  0.53720865  0.59764408  1
  Sc  Sc7  1  0.21825575  0.86379238  0.09364509  1
  Sc  Sc8  1  0.88728162  0.87348980  0.59416111  1
  Sc  Sc9  1  0.56111329  0.87354620  0.09359823  1
  Al  Al10  1  0.88404821  0.20475120  0.57949635  1
  Al  Al11  1  0.45027022  0.09901991  0.34014703  1
  Al  Al12  1  0.54687826  0.21061224  0.08218295  1
  Al  Al13  1  0.22452918  0.21328620  0.57892911  1
  Al  Al14  1  0.77313179  0.09262092  0.32154138  1
  Al  Al15  1  0.88639422  0.21473288  0.07959691  1
  Al  Al16  1  0.44378405  0.09752262  0.81897338  1
  Al  Al17  1  0.55391663  0.20751167  0.57559898  1
  Al  Al18  1  0.11192356  0.44005577  0.32976909  1
  Al  Al19  1  0.21525515  0.53918539  0.07755463  1
  Al  Al20  1  0.78285885  0.43334960  0.82241382  1
  Al  Al21  1  0.89587310  0.54054798  0.58169083  1
  Al  Al22  1  0.43678964  0.42654519  0.32821232  1
  Al  Al23  1  0.11257021  0.43183029  0.82578397  1
  Al  Al24  1  0.22353098  0.53294916  0.57689415  1
  Al  Al25  1  0.89512936  0.53952197  0.07516858  1
  Al  Al26  1  0.43299992  0.42416995  0.82868585  1
  Al  Al27  1  0.10900313  0.75237055  0.33249772  1
  Al  Al28  1  0.77583484  0.75562131  0.82804140  1
  Al  Al29  1  0.44486270  0.75627869  0.33571080  1
  Al  Al30  1  0.12111700  0.74743179  0.82493959  1
  Al  Al31  1  0.22512229  0.86629344  0.57678564  1
  Al  Al32  1  0.78626802  0.76048222  0.32878786  1
  Al  Al33  1  0.89533229  0.85969688  0.07775616  1
  Al  Al34  1  0.44357550  0.76557431  0.82259770  1
  Al  Al35  1  0.55437541  0.87319918  0.57605094  1
  N  N36  1  0.22953173  0.22126031  0.37250388  1
  N  N37  1  0.09719034  0.10206810  0.11450467  1
  N  N38  1  0.87858270  0.22871566  0.87718979  1
  N  N39  1  0.76435333  0.11458545  0.62885150  1
  N  N40  1  0.55820194  0.20765784  0.37499362  1
  N  N41  1  0.45642981  0.10230185  0.14195114  1
  N  N42  1  0.23106118  0.21576761  0.86284033  1
  N  N43  1  0.11165248  0.09349623  0.60245235  1
  N  N44  1  0.87484514  0.19575782  0.37772814  1
  N  N45  1  0.77609500  0.09596189  0.11158798  1
  N  N46  1  0.53195806  0.21499854  0.88188518  1
  N  N47  1  0.44787293  0.09379072  0.61480413  1
  N  N48  1  0.22348274  0.53792233  0.37826217  1
  N  N49  1  0.10098196  0.44809714  0.12902920  1
  N  N50  1  0.89119569  0.53910304  0.87153371  1
  N  N51  1  0.79813040  0.42083589  0.61472061  1
  N  N52  1  0.53995354  0.53982130  0.36636680  1
  N  N53  1  0.42862576  0.42205876  0.12668129  1
  N  N54  1  0.22008825  0.53770069  0.87663309  1
  N  N55  1  0.11137373  0.43107151  0.62583208  1
  N  N56  1  0.90292048  0.55243602  0.38340654  1
  N  N57  1  0.79723749  0.42560209  0.12355370  1
  N  N58  1  0.55589902  0.53911434  0.84990985  1
  N  N59  1  0.43109500  0.41461177  0.62918781  1
  N  N60  1  0.22771484  0.85151781  0.36988552  1
  N  N61  1  0.10148343  0.74709682  0.13151189  1
  N  N62  1  0.90086070  0.85023458  0.86724276  1
  N  N63  1  0.76639935  0.75293164  0.62801566  1
  N  N64  1  0.55931411  0.86965503  0.37045617  1
  N  N65  1  0.44810730  0.75718305  0.13545388  1
  N  N66  1  0.23102644  0.85109961  0.86718164  1
  N  N67  1  0.13161426  0.74701285  0.62329188  1
  N  N68  1  0.88585894  0.87630415  0.36769969  1
  N  N69  1  0.79715252  0.74989240  0.12618714  1
  N  N70  1  0.55254350  0.87657942  0.86534644  1
  N  N71  1  0.43515026  0.78142004  0.61943833  1
