# generated using pymatgen
data_Sc5Al13N18
_symmetry_space_group_name_H-M   'P 1'
_cell_length_a   10.25566960
_cell_length_b   10.25846905
_cell_length_c   8.96536528
_cell_angle_alpha   89.93395981
_cell_angle_beta   89.97097896
_cell_angle_gamma   59.76707186
_symmetry_Int_Tables_number   1
_chemical_formula_structural   Sc5Al13N18
_chemical_formula_sum   'Sc10 Al26 N36'
_cell_volume   814.93085649
_cell_formula_units_Z   2
loop_
 _symmetry_equiv_pos_site_id
 _symmetry_equiv_pos_as_xyz
  1  'x, y, z'
loop_
 _atom_site_type_symbol
 _atom_site_label
 _atom_site_symmetry_multiplicity
 _atom_site_fract_x
 _atom_site_fract_y
 _atom_site_fract_z
 _atom_site_occupancy
  Sc  Sc0  1  0.11144434  0.09294271  0.35522255  1
  Sc  Sc1  1  0.22545844  0.21464311  0.10027080  1
  Sc  Sc2  1  0.77048841  0.09805564  0.85591960  1
  Sc  Sc3  1  0.11237456  0.09576102  0.84504994  1
  Sc  Sc4  1  0.55700783  0.53104770  0.09551546  1
  Sc  Sc5  1  0.78382820  0.43181547  0.35108653  1
  Sc  Sc6  1  0.55031640  0.53652315  0.60203808  1
  Sc  Sc7  1  0.21737169  0.86364391  0.09910150  1
  Sc  Sc8  1  0.88776196  0.87235496  0.59646316  1
  Sc  Sc9  1  0.56100683  0.87418742  0.09927598  1
  Al  Al10  1  0.88401308  0.20767233  0.59185862  1
  Al  Al11  1  0.44887199  0.09819078  0.35075777  1
  Al  Al12  1  0.54875217  0.20929337  0.09258939  1
  Al  Al13  1  0.22383171  0.21400584  0.59218212  1
  Al  Al14  1  0.77232876  0.09536645  0.33524580  1
  Al  Al15  1  0.88616582  0.21136170  0.09001989  1
  Al  Al16  1  0.44502720  0.09797717  0.82381324  1
  Al  Al17  1  0.55286405  0.20912387  0.58103987  1
  Al  Al18  1  0.11196814  0.43848536  0.33922984  1
  Al  Al19  1  0.21519376  0.53935008  0.08399328  1
  Al  Al20  1  0.78207613  0.43319094  0.83928707  1
  Al  Al21  1  0.89482817  0.53969888  0.59197133  1
  Al  Al22  1  0.43620571  0.42705844  0.33438955  1
  Al  Al23  1  0.11256994  0.43285191  0.83207606  1
  Al  Al24  1  0.22418757  0.53256374  0.58470795  1
  Al  Al25  1  0.89603441  0.54044115  0.08036291  1
  Al  Al26  1  0.43378896  0.42397230  0.83885987  1
  Al  Al27  1  0.11318041  0.75098205  0.34349312  1
  Al  Al28  1  0.77894583  0.75654382  0.83604173  1
  Al  Al29  1  0.44405336  0.75887603  0.34591267  1
  Al  Al30  1  0.11721990  0.74843849  0.83110145  1
  Al  Al31  1  0.22540888  0.86586916  0.59408664  1
  Al  Al32  1  0.78342701  0.75910688  0.33867826  1
  Al  Al33  1  0.89416976  0.86218520  0.09695532  1
  Al  Al34  1  0.44462905  0.76285334  0.83570542  1
  Al  Al35  1  0.55494365  0.87218117  0.59004003  1
  N  N36  1  0.22797137  0.22034885  0.36828083  1
  N  N37  1  0.09849819  0.10160898  0.10528863  1
  N  N38  1  0.87793899  0.22466498  0.86450683  1
  N  N39  1  0.76540632  0.11214398  0.61254706  1
  N  N40  1  0.55590729  0.20955708  0.36552659  1
  N  N41  1  0.45493696  0.10166695  0.13376029  1
  N  N42  1  0.23173895  0.21565390  0.84933701  1
  N  N43  1  0.11063801  0.09378899  0.60305599  1
  N  N44  1  0.87722001  0.19845868  0.36636461  1
  N  N45  1  0.77533873  0.09689598  0.11169715  1
  N  N46  1  0.53505341  0.21318018  0.87360543  1
  N  N47  1  0.44863209  0.09433214  0.60435620  1
  N  N48  1  0.22425323  0.53635658  0.37079550  1
  N  N49  1  0.10202255  0.44661529  0.11940387  1
  N  N50  1  0.89236732  0.53969001  0.86126729  1
  N  N51  1  0.79547694  0.42275863  0.61208682  1
  N  N52  1  0.54101720  0.54049238  0.35690299  1
  N  N53  1  0.42851101  0.42191881  0.11614488  1
  N  N54  1  0.21979750  0.53835708  0.86745384  1
  N  N55  1  0.11098463  0.43213928  0.61755526  1
  N  N56  1  0.90218920  0.55028823  0.37536637  1
  N  N57  1  0.79673701  0.42569842  0.10711316  1
  N  N58  1  0.55529723  0.53847422  0.85134780  1
  N  N59  1  0.43269099  0.41624397  0.62198745  1
  N  N60  1  0.22829251  0.85309195  0.36493634  1
  N  N61  1  0.10344614  0.74668988  0.12403748  1
  N  N62  1  0.90004205  0.85281039  0.86227091  1
  N  N63  1  0.76886295  0.75362614  0.61812623  1
  N  N64  1  0.55898380  0.86877877  0.36637398  1
  N  N65  1  0.44626068  0.75984481  0.11783493  1
  N  N66  1  0.22870615  0.85219316  0.85184597  1
  N  N67  1  0.12835695  0.74731257  0.61121386  1
  N  N68  1  0.88593736  0.87493586  0.35350852  1
  N  N69  1  0.79521167  0.75011816  0.11610006  1
  N  N70  1  0.55345486  0.87698645  0.85205454  1
  N  N71  1  0.43743028  0.77742803  0.61134308  1
