# generated using pymatgen
data_Sc5Al13N18
_symmetry_space_group_name_H-M   'P 1'
_cell_length_a   10.35937307
_cell_length_b   10.36561793
_cell_length_c   8.67338668
_cell_angle_alpha   89.92018186
_cell_angle_beta   89.93549978
_cell_angle_gamma   59.75268252
_symmetry_Int_Tables_number   1
_chemical_formula_structural   Sc5Al13N18
_chemical_formula_sum   'Sc10 Al26 N36'
_cell_volume   804.56254962
_cell_formula_units_Z   2
loop_
 _symmetry_equiv_pos_site_id
 _symmetry_equiv_pos_as_xyz
  1  'x, y, z'
loop_
 _atom_site_type_symbol
 _atom_site_label
 _atom_site_symmetry_multiplicity
 _atom_site_fract_x
 _atom_site_fract_y
 _atom_site_fract_z
 _atom_site_occupancy
  Sc  Sc0  1  0.11211897  0.09299079  0.35746409  1
  Sc  Sc1  1  0.22409718  0.21645315  0.10318927  1
  Sc  Sc2  1  0.77060021  0.09782321  0.85668669  1
  Sc  Sc3  1  0.11132742  0.09641468  0.84786445  1
  Sc  Sc4  1  0.55480935  0.53207430  0.10006437  1
  Sc  Sc5  1  0.78390375  0.43170437  0.35264311  1
  Sc  Sc6  1  0.55203285  0.53598254  0.60618197  1
  Sc  Sc7  1  0.21847907  0.86434869  0.10208920  1
  Sc  Sc8  1  0.89046950  0.86985433  0.59945950  1
  Sc  Sc9  1  0.56097033  0.87337407  0.10217940  1
  Al  Al10  1  0.88432607  0.20948791  0.60344203  1
  Al  Al11  1  0.44833184  0.09739990  0.35658376  1
  Al  Al12  1  0.55207303  0.20883048  0.11038659  1
  Al  Al13  1  0.22587410  0.21239634  0.60196565  1
  Al  Al14  1  0.77262771  0.09618446  0.34906159  1
  Al  Al15  1  0.88597101  0.20847909  0.10350591  1
  Al  Al16  1  0.44540288  0.09790970  0.83604823  1
  Al  Al17  1  0.55112518  0.20821703  0.59683482  1
  Al  Al18  1  0.11324693  0.43585949  0.36965985  1
  Al  Al19  1  0.21673669  0.53713014  0.11091787  1
  Al  Al20  1  0.78264919  0.43214411  0.85320012  1
  Al  Al21  1  0.89228618  0.53878423  0.61036665  1
  Al  Al22  1  0.43652754  0.42698143  0.35781044  1
  Al  Al23  1  0.11103294  0.43501607  0.85154799  1
  Al  Al24  1  0.22316726  0.53576184  0.60989503  1
  Al  Al25  1  0.89708387  0.54138419  0.10138116  1
  Al  Al26  1  0.43447873  0.42507327  0.85630160  1
  Al  Al27  1  0.11544087  0.75130708  0.35662382  1
  Al  Al28  1  0.78092160  0.75632157  0.85093126  1
  Al  Al29  1  0.44324242  0.76117685  0.36411087  1
  Al  Al30  1  0.11416505  0.74934566  0.85480575  1
  Al  Al31  1  0.22467031  0.86480291  0.60511918  1
  Al  Al32  1  0.78123352  0.75896421  0.35567321  1
  Al  Al33  1  0.89224683  0.86401469  0.10670652  1
  Al  Al34  1  0.44465510  0.76111141  0.85013727  1
  Al  Al35  1  0.55456372  0.87298496  0.60165893  1
  N  N36  1  0.22861994  0.21953646  0.36464195  1
  N  N37  1  0.09910190  0.10185274  0.10237716  1
  N  N38  1  0.87778243  0.22255417  0.85183004  1
  N  N39  1  0.76753671  0.11032084  0.59677034  1
  N  N40  1  0.55461801  0.20812414  0.35433708  1
  N  N41  1  0.45430193  0.10200269  0.11467238  1
  N  N42  1  0.23107555  0.21567875  0.83976188  1
  N  N43  1  0.10977767  0.09372342  0.60247387  1
  N  N44  1  0.87860096  0.20006455  0.35215501  1
  N  N45  1  0.77471259  0.09662935  0.11078791  1
  N  N46  1  0.53766800  0.21396267  0.85038892  1
  N  N47  1  0.44847739  0.09339557  0.59864077  1
  N  N48  1  0.22206572  0.53669993  0.34922448  1
  N  N49  1  0.10380335  0.44520418  0.08833447  1
  N  N50  1  0.89008329  0.54103172  0.84714986  1
  N  N51  1  0.79414474  0.42334456  0.60743284  1
  N  N52  1  0.54044713  0.54399779  0.35355722  1
  N  N53  1  0.43016159  0.42060393  0.09990644  1
  N  N54  1  0.22179162  0.53851890  0.84415590  1
  N  N55  1  0.10935837  0.43343651  0.60365676  1
  N  N56  1  0.90318608  0.54755041  0.35102994  1
  N  N57  1  0.79599630  0.42511683  0.09564826  1
  N  N58  1  0.55506257  0.53520345  0.85112545  1
  N  N59  1  0.43315630  0.41854926  0.59822940  1
  N  N60  1  0.22957084  0.85399407  0.35916453  1
  N  N61  1  0.10419071  0.74761409  0.10285944  1
  N  N62  1  0.89760666  0.85578500  0.85616801  1
  N  N63  1  0.77082950  0.75263203  0.60044553  1
  N  N64  1  0.55640338  0.86993607  0.36174695  1
  N  N65  1  0.44592900  0.76060303  0.09097473  1
  N  N66  1  0.22621044  0.85333292  0.84259498  1
  N  N67  1  0.12693560  0.74838594  0.59551472  1
  N  N68  1  0.88805422  0.87213645  0.34444627  1
  N  N69  1  0.79317598  0.75223913  0.10007551  1
  N  N70  1  0.55620794  0.87580101  0.84165083  1
  N  N71  1  0.43781960  0.77611542  0.60423659  1
