# generated using pymatgen
data_Sc5Al13N18
_symmetry_space_group_name_H-M   'P 1'
_cell_length_a   10.16936231
_cell_length_b   10.17215183
_cell_length_c   9.22007365
_cell_angle_alpha   89.94418941
_cell_angle_beta   89.97161821
_cell_angle_gamma   59.76024682
_symmetry_Int_Tables_number   1
_chemical_formula_structural   Sc5Al13N18
_chemical_formula_sum   'Sc10 Al26 N36'
_cell_volume   823.98076798
_cell_formula_units_Z   2
loop_
 _symmetry_equiv_pos_site_id
 _symmetry_equiv_pos_as_xyz
  1  'x, y, z'
loop_
 _atom_site_type_symbol
 _atom_site_label
 _atom_site_symmetry_multiplicity
 _atom_site_fract_x
 _atom_site_fract_y
 _atom_site_fract_z
 _atom_site_occupancy
  Sc  Sc0  1  0.11081028  0.09331206  0.35239072  1
  Sc  Sc1  1  0.22535818  0.21456384  0.09731547  1
  Sc  Sc2  1  0.77023497  0.09912510  0.85486963  1
  Sc  Sc3  1  0.11317251  0.09510098  0.84167729  1
  Sc  Sc4  1  0.55821924  0.53068735  0.09183738  1
  Sc  Sc5  1  0.78326957  0.43172211  0.35000314  1
  Sc  Sc6  1  0.54939257  0.53670820  0.59968967  1
  Sc  Sc7  1  0.21788841  0.86352298  0.09661617  1
  Sc  Sc8  1  0.88726842  0.87313431  0.59564857  1
  Sc  Sc9  1  0.56090222  0.87401604  0.09688541  1
  Al  Al10  1  0.88397813  0.20596149  0.58498993  1
  Al  Al11  1  0.44960038  0.09871222  0.34590506  1
  Al  Al12  1  0.54751322  0.20993650  0.08673772  1
  Al  Al13  1  0.22387894  0.21366933  0.58558302  1
  Al  Al14  1  0.77281460  0.09387340  0.32710636  1
  Al  Al15  1  0.88620124  0.21351615  0.08351113  1
  Al  Al16  1  0.44447130  0.09760384  0.82065097  1
  Al  Al17  1  0.55365733  0.20846244  0.57791154  1
  Al  Al18  1  0.11181367  0.43945894  0.33384517  1
  Al  Al19  1  0.21500514  0.53940308  0.08025507  1
  Al  Al20  1  0.78218338  0.43357006  0.82969127  1
  Al  Al21  1  0.89540680  0.54031799  0.58646057  1
  Al  Al22  1  0.43646428  0.42667139  0.33047161  1
  Al  Al23  1  0.11270028  0.43224739  0.82852526  1
  Al  Al24  1  0.22402390  0.53255592  0.58033694  1
  Al  Al25  1  0.89560028  0.53986361  0.07711682  1
  Al  Al26  1  0.43332621  0.42402917  0.83380089  1
  Al  Al27  1  0.11089510  0.75167766  0.33778403  1
  Al  Al28  1  0.77716728  0.75616848  0.83174849  1
  Al  Al29  1  0.44447911  0.75746776  0.33972974  1
  Al  Al30  1  0.11931771  0.74785603  0.82724324  1
  Al  Al31  1  0.22513925  0.86626307  0.58471680  1
  Al  Al32  1  0.78515027  0.75972695  0.33273693  1
  Al  Al33  1  0.89492542  0.86081941  0.08641834  1
  Al  Al34  1  0.44413207  0.76439095  0.82753499  1
  Al  Al35  1  0.55491767  0.87248106  0.58181895  1
  N  N36  1  0.22847022  0.22091113  0.37016086  1
  N  N37  1  0.09788813  0.10177212  0.10882394  1
  N  N38  1  0.87800237  0.22695630  0.87143705  1
  N  N39  1  0.76473485  0.11334479  0.62199508  1
  N  N40  1  0.55728808  0.20875130  0.37062127  1
  N  N41  1  0.45572094  0.10200814  0.13894995  1
  N  N42  1  0.23157808  0.21566472  0.85616227  1
  N  N43  1  0.11121598  0.09358679  0.60282826  1
  N  N44  1  0.87606372  0.19685206  0.37312320  1
  N  N45  1  0.77574971  0.09651570  0.11137074  1
  N  N46  1  0.53335154  0.21388489  0.87825695  1
  N  N47  1  0.44830449  0.09402521  0.60908891  1
  N  N48  1  0.22406322  0.53696424  0.37488802  1
  N  N49  1  0.10136933  0.44750679  0.12468643  1
  N  N50  1  0.89185599  0.53930823  0.86664654  1
  N  N51  1  0.79675925  0.42182503  0.61320908  1
  N  N52  1  0.54073861  0.53969615  0.36082177  1
  N  N53  1  0.42837647  0.42199033  0.12139375  1
  N  N54  1  0.21977577  0.53810908  0.87245067  1
  N  N55  1  0.11123853  0.43161962  0.62205127  1
  N  N56  1  0.90261412  0.55156411  0.38009440  1
  N  N57  1  0.79715627  0.42574513  0.11637563  1
  N  N58  1  0.55565192  0.53916606  0.85078752  1
  N  N59  1  0.43191586  0.41536921  0.62631926  1
  N  N60  1  0.22784141  0.85236968  0.36751797  1
  N  N61  1  0.10251169  0.74673348  0.12857350  1
  N  N62  1  0.90058742  0.85139588  0.86497388  1
  N  N63  1  0.76748852  0.75337581  0.62387539  1
  N  N64  1  0.55951423  0.86904956  0.36827603  1
  N  N65  1  0.44704575  0.75875102  0.12893495  1
  N  N66  1  0.23005959  0.85143933  0.85997383  1
  N  N67  1  0.12994684  0.74708165  0.61747681  1
  N  N68  1  0.88575737  0.87580181  0.36112064  1
  N  N69  1  0.79627288  0.74983065  0.12150829  1
  N  N70  1  0.55273327  0.87690633  0.85953328  1
  N  N71  1  0.43643341  0.77929491  0.61543210  1
