# generated using pymatgen
data_Sc5Al13N18
_symmetry_space_group_name_H-M   'P 1'
_cell_length_a   9.83017453
_cell_length_b   9.83313262
_cell_length_c   10.15606189
_cell_angle_alpha   89.93704846
_cell_angle_beta   89.91493471
_cell_angle_gamma   59.83510929
_symmetry_Int_Tables_number   1
_chemical_formula_structural   Sc5Al13N18
_chemical_formula_sum   'Sc10 Al26 N36'
_cell_volume   848.75936461
_cell_formula_units_Z   2
loop_
 _symmetry_equiv_pos_site_id
 _symmetry_equiv_pos_as_xyz
  1  'x, y, z'
loop_
 _atom_site_type_symbol
 _atom_site_label
 _atom_site_symmetry_multiplicity
 _atom_site_fract_x
 _atom_site_fract_y
 _atom_site_fract_z
 _atom_site_occupancy
  Sc  Sc0  1  0.11342934  0.09225577  0.40344319  1
  Sc  Sc1  1  0.22176906  0.21397943  0.13597312  1
  Sc  Sc2  1  0.77211238  0.09332462  0.89098801  1
  Sc  Sc3  1  0.11131588  0.09577005  0.87148206  1
  Sc  Sc4  1  0.55199554  0.53488874  0.13370157  1
  Sc  Sc5  1  0.78197477  0.43137576  0.38159582  1
  Sc  Sc6  1  0.55583533  0.53415711  0.63897338  1
  Sc  Sc7  1  0.21543613  0.87040397  0.13579564  1
  Sc  Sc8  1  0.89101368  0.86870876  0.62641491  1
  Sc  Sc9  1  0.56164584  0.87404686  0.13775691  1
  Al  Al10  1  0.88320755  0.21328863  0.64667451  1
  Al  Al11  1  0.44675070  0.09621561  0.40062893  1
  Al  Al12  1  0.55428514  0.20611782  0.14699584  1
  Al  Al13  1  0.22639203  0.21223069  0.64602552  1
  Al  Al14  1  0.77087193  0.09845000  0.39084934  1
  Al  Al15  1  0.88704316  0.20325044  0.14390682  1
  Al  Al16  1  0.44602457  0.10049104  0.88647932  1
  Al  Al17  1  0.54776538  0.20959650  0.64007515  1
  Al  Al18  1  0.11443187  0.43512684  0.39706256  1
  Al  Al19  1  0.21568117  0.53840760  0.14238359  1
  Al  Al20  1  0.78039586  0.43219012  0.89890892  1
  Al  Al21  1  0.89156833  0.53575501  0.64618724  1
  Al  Al22  1  0.43607948  0.42678347  0.39369534  1
  Al  Al23  1  0.11029134  0.43590817  0.88958931  1
  Al  Al24  1  0.22332884  0.53461205  0.64409657  1
  Al  Al25  1  0.89815689  0.54355867  0.13973212  1
  Al  Al26  1  0.43620795  0.42615915  0.89385999  1
  Al  Al27  1  0.12034740  0.75156359  0.39382617  1
  Al  Al28  1  0.78387276  0.75556268  0.89117548  1
  Al  Al29  1  0.44131898  0.76424566  0.40177063  1
  Al  Al30  1  0.11231723  0.74861593  0.89293308  1
  Al  Al31  1  0.22723795  0.86304048  0.64874577  1
  Al  Al32  1  0.77723037  0.75974908  0.39538510  1
  Al  Al33  1  0.89029082  0.86827455  0.14917034  1
  Al  Al34  1  0.44766370  0.75732440  0.88825888  1
  Al  Al35  1  0.55345789  0.87386023  0.64382555  1
  N  N36  1  0.23021599  0.21651741  0.34830076  1
  N  N37  1  0.09381656  0.10488410  0.08300547  1
  N  N38  1  0.87068893  0.22758838  0.83187036  1
  N  N39  1  0.76553415  0.11671877  0.58378156  1
  N  N40  1  0.55241078  0.20575008  0.33710203  1
  N  N41  1  0.45644522  0.10362049  0.07244466  1
  N  N42  1  0.23092185  0.22030216  0.83493196  1
  N  N43  1  0.11220488  0.09245222  0.61839492  1
  N  N44  1  0.88330220  0.19441550  0.33050541  1
  N  N45  1  0.77597563  0.09305393  0.10146183  1
  N  N46  1  0.53862755  0.21728751  0.82620339  1
  N  N47  1  0.44621622  0.09316171  0.58958598  1
  N  N48  1  0.22211495  0.53825606  0.33250491  1
  N  N49  1  0.10354206  0.44603052  0.07568564  1
  N  N50  1  0.88889922  0.53865817  0.83607789  1
  N  N51  1  0.79782967  0.42041585  0.58791823  1
  N  N52  1  0.53662171  0.54710300  0.35094813  1
  N  N53  1  0.43020502  0.41761694  0.08282347  1
  N  N54  1  0.22272492  0.53767168  0.83231460  1
  N  N55  1  0.10910243  0.43195640  0.58796113  1
  N  N56  1  0.90375912  0.55109336  0.32831729  1
  N  N57  1  0.79740904  0.42256609  0.09279409  1
  N  N58  1  0.55752408  0.53402409  0.85511706  1
  N  N59  1  0.43133657  0.41835367  0.58039078  1
  N  N60  1  0.22957647  0.85746852  0.34444617  1
  N  N61  1  0.10002202  0.75034130  0.08285432  1
  N  N62  1  0.89925376  0.85298002  0.83382967  1
  N  N63  1  0.76781054  0.74819963  0.58305580  1
  N  N64  1  0.55391645  0.87373807  0.34911471  1
  N  N65  1  0.44452209  0.76406228  0.07220303  1
  N  N66  1  0.23151830  0.84597126  0.83729706  1
  N  N67  1  0.13437179  0.74644802  0.58130144  1
  N  N68  1  0.88922456  0.87150154  0.34818151  1
  N  N69  1  0.79583222  0.75465011  0.08021490  1
  N  N70  1  0.55745529  0.87303312  0.83659838  1
  N  N71  1  0.43653770  0.77822164  0.59020732  1
