# generated using pymatgen
data_Sc5Al13N18
_symmetry_space_group_name_H-M   'P 1'
_cell_length_a   10.33359797
_cell_length_b   10.34101809
_cell_length_c   8.74076419
_cell_angle_alpha   89.92794324
_cell_angle_beta   89.93568231
_cell_angle_gamma   59.74532780
_symmetry_Int_Tables_number   1
_chemical_formula_structural   Sc5Al13N18
_chemical_formula_sum   'Sc10 Al26 N36'
_cell_volume   806.81552324
_cell_formula_units_Z   2
loop_
 _symmetry_equiv_pos_site_id
 _symmetry_equiv_pos_as_xyz
  1  'x, y, z'
loop_
 _atom_site_type_symbol
 _atom_site_label
 _atom_site_symmetry_multiplicity
 _atom_site_fract_x
 _atom_site_fract_y
 _atom_site_fract_z
 _atom_site_occupancy
  Sc  Sc0  1  0.11239259  0.09297081  0.35790330  1
  Sc  Sc1  1  0.22344407  0.21725547  0.10379761  1
  Sc  Sc2  1  0.77056982  0.09775546  0.85696576  1
  Sc  Sc3  1  0.11122246  0.09652256  0.84824254  1
  Sc  Sc4  1  0.55464426  0.53251495  0.10083299  1
  Sc  Sc5  1  0.78383824  0.43173879  0.35302060  1
  Sc  Sc6  1  0.55232059  0.53518320  0.60695343  1
  Sc  Sc7  1  0.21887638  0.86449893  0.10255710  1
  Sc  Sc8  1  0.89094031  0.86919361  0.60018305  1
  Sc  Sc9  1  0.56090993  0.87299506  0.10311894  1
  Al  Al10  1  0.88445680  0.20967208  0.60546334  1
  Al  Al11  1  0.44804034  0.09677811  0.36355865  1
  Al  Al12  1  0.55296248  0.20856809  0.11826150  1
  Al  Al13  1  0.22660170  0.21158830  0.60471520  1
  Al  Al14  1  0.77270428  0.09578675  0.35182232  1
  Al  Al15  1  0.88592114  0.20806322  0.10605020  1
  Al  Al16  1  0.44565226  0.09853604  0.84668333  1
  Al  Al17  1  0.54988805  0.20858800  0.60471817  1
  Al  Al18  1  0.11351605  0.43593601  0.37451955  1
  Al  Al19  1  0.21654700  0.53670470  0.11560487  1
  Al  Al20  1  0.78230308  0.43237317  0.85570856  1
  Al  Al21  1  0.89153522  0.53880023  0.61522879  1
  Al  Al22  1  0.43612300  0.42700298  0.36254445  1
  Al  Al23  1  0.11079195  0.43543119  0.85383491  1
  Al  Al24  1  0.22344676  0.53627559  0.61440104  1
  Al  Al25  1  0.89800271  0.54142173  0.10712954  1
  Al  Al26  1  0.43456974  0.42519475  0.86243775  1
  Al  Al27  1  0.11612826  0.75117196  0.35939419  1
  Al  Al28  1  0.78153902  0.75607274  0.85666670  1
  Al  Al29  1  0.44293496  0.76168763  0.36876443  1
  Al  Al30  1  0.11366783  0.74910345  0.86071565  1
  Al  Al31  1  0.22406411  0.86501970  0.60730869  1
  Al  Al32  1  0.78082813  0.75887100  0.36014459  1
  Al  Al33  1  0.89170926  0.86480578  0.10944643  1
  Al  Al34  1  0.44490683  0.76056787  0.85131528  1
  Al  Al35  1  0.55451440  0.87360072  0.60567043  1
  N  N36  1  0.22946276  0.21954890  0.36256018  1
  N  N37  1  0.09901188  0.10205411  0.10188945  1
  N  N38  1  0.87756129  0.22284459  0.84930265  1
  N  N39  1  0.76747936  0.11049112  0.59465944  1
  N  N40  1  0.55401544  0.20692872  0.34961928  1
  N  N41  1  0.45469777  0.10259988  0.09981777  1
  N  N42  1  0.23039760  0.21618514  0.83864031  1
  N  N43  1  0.11004516  0.09361457  0.60226831  1
  N  N44  1  0.87862675  0.19980311  0.34947652  1
  N  N45  1  0.77477741  0.09626892  0.10938912  1
  N  N46  1  0.53789439  0.21543593  0.84010663  1
  N  N47  1  0.44810709  0.09295941  0.59676815  1
  N  N48  1  0.22171855  0.53658638  0.34413177  1
  N  N49  1  0.10388903  0.44572494  0.08248225  1
  N  N50  1  0.88944780  0.54118271  0.84379687  1
  N  N51  1  0.79424405  0.42325850  0.60486215  1
  N  N52  1  0.54007334  0.54472548  0.35304609  1
  N  N53  1  0.43040587  0.41983409  0.09541578  1
  N  N54  1  0.22235903  0.53864294  0.84001589  1
  N  N55  1  0.10904746  0.43379471  0.60151751  1
  N  N56  1  0.90413007  0.54733986  0.34449352  1
  N  N57  1  0.79622499  0.42499196  0.09511500  1
  N  N58  1  0.55530483  0.53421674  0.85076171  1
  N  N59  1  0.43248492  0.41894193  0.59130095  1
  N  N60  1  0.22995107  0.85417196  0.35679798  1
  N  N61  1  0.10394636  0.74762008  0.09876897  1
  N  N62  1  0.89761729  0.85573287  0.85311219  1
  N  N63  1  0.77066668  0.75196882  0.59510268  1
  N  N64  1  0.55518515  0.87122753  0.35918994  1
  N  N65  1  0.44601360  0.76049441  0.08535090  1
  N  N66  1  0.22569681  0.85306103  0.84166877  1
  N  N67  1  0.12760599  0.74807215  0.59082690  1
  N  N68  1  0.88825282  0.87171996  0.34381763  1
  N  N69  1  0.79339398  0.75251809  0.09556846  1
  N  N70  1  0.55739893  0.87474093  0.84042462  1
  N  N71  1  0.43770323  0.77621456  0.60320070  1
