# generated using pymatgen
data_LiGaS2
_symmetry_space_group_name_H-M   'P 1'
_cell_length_a   6.29889751
_cell_length_b   6.62717361
_cell_length_c   8.00205383
_cell_angle_alpha   89.96155801
_cell_angle_beta   89.28158118
_cell_angle_gamma   90.00748333
_symmetry_Int_Tables_number   1
_chemical_formula_structural   LiGaS2
_chemical_formula_sum   'Li4 Ga4 S8'
_cell_volume   334.01049709
_cell_formula_units_Z   4
loop_
 _symmetry_equiv_pos_site_id
 _symmetry_equiv_pos_as_xyz
  1  'x, y, z'
loop_
 _atom_site_type_symbol
 _atom_site_label
 _atom_site_symmetry_multiplicity
 _atom_site_fract_x
 _atom_site_fract_y
 _atom_site_fract_z
 _atom_site_occupancy
  S  S0  1  0.01320673  0.06624979  0.13152157  1
  S  S1  1  0.03815263  0.59722515  0.88028477  1
  S  S2  1  0.03636467  0.09911199  0.65605735  1
  S  S3  1  0.51527407  0.93854931  0.89648130  1
  S  S4  1  0.07134821  0.57097079  0.39839406  1
  S  S5  1  0.53550065  0.40793872  0.13260436  1
  S  S6  1  0.53077375  0.92229336  0.37892014  1
  S  S7  1  0.52608781  0.43230809  0.63026504  1
  Ga  Ga8  1  0.14743930  0.92854517  0.88909442  1
  Ga  Ga9  1  0.64836033  0.07394933  0.13624654  1
  Ga  Ga10  1  0.15496674  0.42942826  0.64374722  1
  Ga  Ga11  1  0.50605255  0.57925201  0.37609194  1
  Li  Li12  1  0.13844667  0.41187126  0.13436514  1
  Li  Li13  1  0.13518430  0.92428564  0.39722007  1
  Li  Li14  1  0.65358309  0.59840762  0.88229948  1
  Li  Li15  1  0.65265140  0.08693204  0.63706312  1
