# generated using pymatgen
data_LiGaS2
_symmetry_space_group_name_H-M   'P 1'
_cell_length_a   6.29889841
_cell_length_b   6.65991032
_cell_length_c   8.06885868
_cell_angle_alpha   90.12952336
_cell_angle_beta   90.62866368
_cell_angle_gamma   90.03150393
_symmetry_Int_Tables_number   1
_chemical_formula_structural   LiGaS2
_chemical_formula_sum   'Li4 Ga4 S8'
_cell_volume   338.46812086
_cell_formula_units_Z   4
loop_
 _symmetry_equiv_pos_site_id
 _symmetry_equiv_pos_as_xyz
  1  'x, y, z'
loop_
 _atom_site_type_symbol
 _atom_site_label
 _atom_site_symmetry_multiplicity
 _atom_site_fract_x
 _atom_site_fract_y
 _atom_site_fract_z
 _atom_site_occupancy
  S  S0  1  0.04569321  0.07105485  0.12315739  1
  S  S1  1  0.12337478  0.59197007  0.87605036  1
  S  S2  1  0.12038854  0.09989162  0.63836521  1
  S  S3  1  0.54788818  0.93627900  0.90017806  1
  S  S4  1  0.14630157  0.56777739  0.39701497  1
  S  S5  1  0.62289169  0.41836260  0.15214548  1
  S  S6  1  0.62223252  0.90700563  0.38769572  1
  S  S7  1  0.65001409  0.44167398  0.62847471  1
  Ga  Ga8  1  0.17577484  0.93849655  0.88720118  1
  Ga  Ga9  1  0.65458803  0.07377237  0.14246355  1
  Ga  Ga10  1  0.01813854  0.43319914  0.63753486  1
  Ga  Ga11  1  0.51186243  0.57454947  0.38966358  1
  Li  Li12  1  0.01708149  0.42941802  0.13226235  1
  Li  Li13  1  0.02008664  0.90828575  0.39008462  1
  Li  Li14  1  0.51297558  0.57079220  0.89072956  1
  Li  Li15  1  0.51410075  0.10478990  0.62763492  1
