# generated using pymatgen
data_LiGaS2
_symmetry_space_group_name_H-M   'P 1'
_cell_length_a   6.64479965
_cell_length_b   8.12730935
_cell_length_c   6.29890482
_cell_angle_alpha   90.26522007
_cell_angle_beta   89.91244200
_cell_angle_gamma   90.01179016
_symmetry_Int_Tables_number   1
_chemical_formula_structural   LiGaS2
_chemical_formula_sum   'Li4 Ga4 S8'
_cell_volume   340.16416376
_cell_formula_units_Z   4
loop_
 _symmetry_equiv_pos_site_id
 _symmetry_equiv_pos_as_xyz
  1  'x, y, z'
loop_
 _atom_site_type_symbol
 _atom_site_label
 _atom_site_symmetry_multiplicity
 _atom_site_fract_x
 _atom_site_fract_y
 _atom_site_fract_z
 _atom_site_occupancy
  S  S0  1  -0.07187083  0.12367722  -0.04326204  1
  S  S1  1  -0.59402689  0.87581459  -0.11708094  1
  S  S2  1  -0.10160704  0.64084611  -0.11756710  1
  S  S3  1  -0.93608772  0.90226285  -0.54217273  1
  S  S4  1  -0.56760900  0.39851326  -0.14636325  1
  S  S5  1  -0.41569721  0.14845863  -0.61774683  1
  S  S6  1  -0.90635466  0.38124219  -0.61593630  1
  S  S7  1  -0.44396912  0.62663745  -0.64716721  1
  Ga  Ga8  1  -0.94030110  0.88587740  -0.17123916  1
  Ga  Ga9  1  -0.07004934  0.13662414  -0.67364992  1
  Ga  Ga10  1  -0.43612285  0.63863610  -0.01487806  1
  Ga  Ga11  1  -0.57187404  0.38642935  -0.51321594  1
  Li  Li12  1  -0.43876857  0.13589980  -0.00947907  1
  Li  Li13  1  -0.90743135  0.39809953  -0.01389067  1
  Li  Li14  1  -0.57068796  0.88993616  -0.50812077  1
  Li  Li15  1  -0.09486088  0.63170176  -0.55162290  1
