# generated using pymatgen
data_LiGaS2
_symmetry_space_group_name_H-M   'P 1'
_cell_length_a   6.64007859
_cell_length_b   8.05884440
_cell_length_c   6.29890361
_cell_angle_alpha   89.07147278
_cell_angle_beta   90.08008806
_cell_angle_gamma   89.86462839
_symmetry_Int_Tables_number   1
_chemical_formula_structural   LiGaS2
_chemical_formula_sum   'Li4 Ga4 S8'
_cell_volume   337.01735120
_cell_formula_units_Z   4
loop_
 _symmetry_equiv_pos_site_id
 _symmetry_equiv_pos_as_xyz
  1  'x, y, z'
loop_
 _atom_site_type_symbol
 _atom_site_label
 _atom_site_symmetry_multiplicity
 _atom_site_fract_x
 _atom_site_fract_y
 _atom_site_fract_z
 _atom_site_occupancy
  S  S0  1  -0.07548567  0.13096153  -0.13307778  1
  S  S1  1  -0.59172969  0.87794195  -0.12269711  1
  S  S2  1  -0.09952423  0.63632568  -0.12070542  1
  S  S3  1  -0.93618026  0.89988525  -0.57047795  1
  S  S4  1  -0.56881899  0.39648365  -0.14681882  1
  S  S5  1  -0.41069731  0.15555826  -0.62737667  1
  S  S6  1  -0.90868167  0.38118159  -0.62884496  1
  S  S7  1  -0.44261726  0.62817661  -0.65061168  1
  Ga  Ga8  1  -0.93335186  0.87858284  -0.19829807  1
  Ga  Ga9  1  -0.08241149  0.15260085  -0.50752534  1
  Ga  Ga10  1  -0.43437110  0.63719956  -0.01836581  1
  Ga  Ga11  1  -0.57827584  0.38848736  -0.51308333  1
  Li  Li12  1  -0.42246332  0.13371021  -0.01587988  1
  Li  Li13  1  -0.91113011  0.38450780  -0.01772198  1
  Li  Li14  1  -0.56928882  0.89311839  -0.51453679  1
  Li  Li15  1  -0.10229093  0.62593499  -0.51737131  1
