# generated using pymatgen
data_LiGaS2
_symmetry_space_group_name_H-M   'P 1'
_cell_length_a   6.29890057
_cell_length_b   6.64704832
_cell_length_c   8.12540105
_cell_angle_alpha   90.00944183
_cell_angle_beta   90.21399725
_cell_angle_gamma   89.94305855
_symmetry_Int_Tables_number   1
_chemical_formula_structural   LiGaS2
_chemical_formula_sum   'Li4 Ga4 S8'
_cell_volume   340.20065505
_cell_formula_units_Z   4
loop_
 _symmetry_equiv_pos_site_id
 _symmetry_equiv_pos_as_xyz
  1  'x, y, z'
loop_
 _atom_site_type_symbol
 _atom_site_label
 _atom_site_symmetry_multiplicity
 _atom_site_fract_x
 _atom_site_fract_y
 _atom_site_fract_z
 _atom_site_occupancy
  S  S0  1  0.01600481  0.06441714  0.12685266  1
  S  S1  1  0.04629416  0.60254214  0.88130653  1
  S  S2  1  0.04562836  0.09302556  0.64855115  1
  S  S3  1  0.51671285  0.94080947  0.89847285  1
  S  S4  1  0.12096271  0.57249445  0.40231051  1
  S  S5  1  0.54629160  0.40665599  0.14085855  1
  S  S6  1  0.54630313  0.91405475  0.37592267  1
  S  S7  1  0.61971125  0.43608538  0.62350562  1
  Ga  Ga8  1  0.14987445  0.93677795  0.88650730  1
  Ga  Ga9  1  0.64825242  0.07212176  0.13865666  1
  Ga  Ga10  1  0.98943998  0.43847227  0.63678023  1
  Ga  Ga11  1  0.49185333  0.56785251  0.38579010  1
  Li  Li12  1  0.10885248  0.41403385  0.13183371  1
  Li  Li13  1  0.15563220  0.93779779  0.39005882  1
  Li  Li14  1  0.64748855  0.60072528  0.89746543  1
  Li  Li15  1  0.65409058  0.06945225  0.63578372  1
