# generated using pymatgen
data_LiGaS2
_symmetry_space_group_name_H-M   'P 1'
_cell_length_a   6.64072464
_cell_length_b   8.05990466
_cell_length_c   6.29890323
_cell_angle_alpha   90.93316678
_cell_angle_beta   90.07754904
_cell_angle_gamma   90.13226998
_symmetry_Int_Tables_number   1
_chemical_formula_structural   LiGaS2
_chemical_formula_sum   'Li4 Ga4 S8'
_cell_volume   337.09408515
_cell_formula_units_Z   4
loop_
 _symmetry_equiv_pos_site_id
 _symmetry_equiv_pos_as_xyz
  1  'x, y, z'
loop_
 _atom_site_type_symbol
 _atom_site_label
 _atom_site_symmetry_multiplicity
 _atom_site_fract_x
 _atom_site_fract_y
 _atom_site_fract_z
 _atom_site_occupancy
  S  S0  1  -0.06579114  0.12812085  -0.01228230  1
  S  S1  1  -0.59979024  0.88133903  -0.03425913  1
  S  S2  1  -0.09757603  0.65551293  -0.03552527  1
  S  S3  1  -0.93973977  0.89642415  -0.51621772  1
  S  S4  1  -0.57210957  0.39986019  -0.09261677  1
  S  S5  1  -0.40898962  0.13642318  -0.54234302  1
  S  S6  1  -0.91671514  0.37782087  -0.53999463  1
  S  S7  1  -0.43300275  0.63107763  -0.52996039  1
  Ga  Ga8  1  -0.93022834  0.88848178  -0.14998874  1
  Ga  Ga9  1  -0.07415356  0.13718448  -0.64450355  1
  Ga  Ga10  1  -0.42598913  0.65261567  -0.15486841  1
  Ga  Ga11  1  -0.57498444  0.37878729  -0.46480215  1
  Li  Li12  1  -0.40594391  0.12596772  -0.14573876  1
  Li  Li13  1  -0.93888308  0.39295506  -0.14797613  1
  Li  Li14  1  -0.59741297  0.88459291  -0.64546567  1
  Li  Li15  1  -0.08600885  0.63349278  -0.64685024  1
