# generated using pymatgen
data_LiGaS2
_symmetry_space_group_name_H-M   'P 1'
_cell_length_a   6.29890256
_cell_length_b   6.65239127
_cell_length_c   8.06234421
_cell_angle_alpha   90.12555037
_cell_angle_beta   90.81750782
_cell_angle_gamma   90.07292214
_symmetry_Int_Tables_number   1
_chemical_formula_structural   LiGaS2
_chemical_formula_sum   'Li4 Ga4 S8'
_cell_volume   337.79902391
_cell_formula_units_Z   4
loop_
 _symmetry_equiv_pos_site_id
 _symmetry_equiv_pos_as_xyz
  1  'x, y, z'
loop_
 _atom_site_type_symbol
 _atom_site_label
 _atom_site_symmetry_multiplicity
 _atom_site_fract_x
 _atom_site_fract_y
 _atom_site_fract_z
 _atom_site_occupancy
  S  S0  1  0.10805634  0.07501321  0.12906716  1
  S  S1  1  0.12383762  0.59196640  0.87645663  1
  S  S2  1  0.12107794  0.09913491  0.63695009  1
  S  S3  1  0.56395382  0.93423355  0.89737419  1
  S  S4  1  0.14554411  0.56813799  0.39640300  1
  S  S5  1  0.62702757  0.41589397  0.15355408  1
  S  S6  1  0.62746208  0.90664226  0.38578188  1
  S  S7  1  0.65062048  0.44232825  0.62829670  1
  Ga  Ga8  1  0.18414677  0.93741419  0.88483274  1
  Ga  Ga9  1  0.55647823  0.07925380  0.14899966  1
  Ga  Ga10  1  0.01949189  0.43274549  0.63768409  1
  Ga  Ga11  1  0.50996097  0.57522990  0.38998997  1
  Li  Li12  1  0.01837744  0.42352045  0.13157470  1
  Li  Li13  1  0.02011070  0.91053021  0.38477052  1
  Li  Li14  1  0.51300714  0.57050708  0.89119361  1
  Li  Li15  1  0.51423980  0.10476686  0.62772751  1
