# generated using pymatgen
data_LiGaS2
_symmetry_space_group_name_H-M   'P 1'
_cell_length_a   6.59202532
_cell_length_b   7.93417734
_cell_length_c   6.29889746
_cell_angle_alpha   89.99992271
_cell_angle_beta   90.00001989
_cell_angle_gamma   89.99999428
_symmetry_Int_Tables_number   1
_chemical_formula_structural   LiGaS2
_chemical_formula_sum   'Li4 Ga4 S8'
_cell_volume   329.44681144
_cell_formula_units_Z   4
loop_
 _symmetry_equiv_pos_site_id
 _symmetry_equiv_pos_as_xyz
  1  'x, y, z'
loop_
 _atom_site_type_symbol
 _atom_site_label
 _atom_site_symmetry_multiplicity
 _atom_site_fract_x
 _atom_site_fract_y
 _atom_site_fract_z
 _atom_site_occupancy
  S  S0  1  -0.07050197  0.12925612  -0.00427781  1
  S  S1  1  -0.59812319  0.87682074  -0.02343208  1
  S  S2  1  -0.09812507  0.64817819  -0.02343179  1
  S  S3  1  -0.93783189  0.89574449  -0.50428000  1
  S  S4  1  -0.57050147  0.39574461  -0.00428015  1
  S  S5  1  -0.41020792  0.14817815  -0.52343161  1
  S  S6  1  -0.91020974  0.37682088  -0.52343185  1
  S  S7  1  -0.43783143  0.62925625  -0.50427784  1
  Ga  Ga8  1  -0.93069680  0.88653792  -0.13768896  1
  Ga  Ga9  1  -0.07763564  0.13846216  -0.63768852  1
  Ga  Ga10  1  -0.43069724  0.63846206  -0.13768863  1
  Ga  Ga11  1  -0.57763613  0.38653792  -0.63768889  1
  Li  Li12  1  -0.41788126  0.13504170  -0.13460025  1
  Li  Li13  1  -0.91788169  0.38995849  -0.13460150  1
  Li  Li14  1  -0.59045241  0.88995854  -0.63459887  1
  Li  Li15  1  -0.09045281  0.63504178  -0.63460034  1
