# generated using pymatgen
data_LiGaS2
_symmetry_space_group_name_H-M   'P 1'
_cell_length_a   6.65694310
_cell_length_b   8.06494744
_cell_length_c   6.29890005
_cell_angle_alpha   90.78259112
_cell_angle_beta   90.05196495
_cell_angle_gamma   90.13837875
_symmetry_Int_Tables_number   1
_chemical_formula_structural   LiGaS2
_chemical_formula_sum   'Li4 Ga4 S8'
_cell_volume   338.14201177
_cell_formula_units_Z   4
loop_
 _symmetry_equiv_pos_site_id
 _symmetry_equiv_pos_as_xyz
  1  'x, y, z'
loop_
 _atom_site_type_symbol
 _atom_site_label
 _atom_site_symmetry_multiplicity
 _atom_site_fract_x
 _atom_site_fract_y
 _atom_site_fract_z
 _atom_site_occupancy
  S  S0  1  -0.06608806  0.12836775  -0.01219729  1
  S  S1  1  -0.60225391  0.88783924  -0.03808054  1
  S  S2  1  -0.09013526  0.65317959  -0.03816439  1
  S  S3  1  -0.94030744  0.89650332  -0.51794099  1
  S  S4  1  -0.57366500  0.39835675  -0.10514509  1
  S  S5  1  -0.40937279  0.13714058  -0.54143908  1
  S  S6  1  -0.91640895  0.37606779  -0.53854493  1
  S  S7  1  -0.43551870  0.62529937  -0.58885777  1
  Ga  Ga8  1  -0.93415538  0.89060686  -0.15408852  1
  Ga  Ga9  1  -0.07606236  0.13788719  -0.64288654  1
  Ga  Ga10  1  -0.43108009  0.64699328  -0.05736293  1
  Ga  Ga11  1  -0.56939474  0.38722502  -0.48316396  1
  Li  Li12  1  -0.40295941  0.12791341  -0.14877594  1
  Li  Li13  1  -0.93787723  0.39072974  -0.14984925  1
  Li  Li14  1  -0.59825371  0.88548205  -0.64247139  1
  Li  Li15  1  -0.08378549  0.63106460  -0.64442428  1
