# generated using pymatgen
data_LiGaS2
_symmetry_space_group_name_H-M   'P 1'
_cell_length_a   6.61996805
_cell_length_b   8.13591100
_cell_length_c   6.29889867
_cell_angle_alpha   89.96155227
_cell_angle_beta   90.03547315
_cell_angle_gamma   90.00666753
_symmetry_Int_Tables_number   1
_chemical_formula_structural   LiGaS2
_chemical_formula_sum   'Li4 Ga4 S8'
_cell_volume   339.25520548
_cell_formula_units_Z   4
loop_
 _symmetry_equiv_pos_site_id
 _symmetry_equiv_pos_as_xyz
  1  'x, y, z'
loop_
 _atom_site_type_symbol
 _atom_site_label
 _atom_site_symmetry_multiplicity
 _atom_site_fract_x
 _atom_site_fract_y
 _atom_site_fract_z
 _atom_site_occupancy
  S  S0  1  -0.06049149  0.12618498  -0.02496221  1
  S  S1  1  -0.58822147  0.87775052  -0.10933974  1
  S  S2  1  -0.08862506  0.64807906  -0.04790434  1
  S  S3  1  -0.95082179  0.89763478  -0.52428947  1
  S  S4  1  -0.56263754  0.39886835  -0.13221334  1
  S  S5  1  -0.41753804  0.14960379  -0.60942517  1
  S  S6  1  -0.91832517  0.37637912  -0.54710750  1
  S  S7  1  -0.44347744  0.62505259  -0.63323912  1
  Ga  Ga8  1  -0.93595898  0.88537919  -0.15607635  1
  Ga  Ga9  1  -0.06885884  0.13928247  -0.65774588  1
  Ga  Ga10  1  -0.43820336  0.63943261  -0.00170737  1
  Ga  Ga11  1  -0.56936156  0.38608797  -0.49959262  1
  Li  Li12  1  -0.43039812  0.13740150  -0.00180408  1
  Li  Li13  1  -0.93323820  0.38911342  -0.15673002  1
  Li  Li14  1  -0.58681520  0.88987007  -0.54338273  1
  Li  Li15  1  -0.07434628  0.63453609  -0.65787294  1
