# generated using pymatgen
data_LiGaS2
_symmetry_space_group_name_H-M   'P 1'
_cell_length_a   6.64123470
_cell_length_b   8.13329570
_cell_length_c   6.29889854
_cell_angle_alpha   90.01688298
_cell_angle_beta   90.03363624
_cell_angle_gamma   89.97380914
_symmetry_Int_Tables_number   1
_chemical_formula_structural   LiGaS2
_chemical_formula_sum   'Li4 Ga4 S8'
_cell_volume   340.23568734
_cell_formula_units_Z   4
loop_
 _symmetry_equiv_pos_site_id
 _symmetry_equiv_pos_as_xyz
  1  'x, y, z'
loop_
 _atom_site_type_symbol
 _atom_site_label
 _atom_site_symmetry_multiplicity
 _atom_site_fract_x
 _atom_site_fract_y
 _atom_site_fract_z
 _atom_site_occupancy
  S  S0  1  -0.05944019  0.12685794  -0.02113323  1
  S  S1  1  -0.59765227  0.87971199  -0.05984398  1
  S  S2  1  -0.08991963  0.64862407  -0.04614711  1
  S  S3  1  -0.94421050  0.89789152  -0.52004893  1
  S  S4  1  -0.56537229  0.39921543  -0.12782186  1
  S  S5  1  -0.41402290  0.14647775  -0.59773516  1
  S  S6  1  -0.91552857  0.37613520  -0.54541253  1
  S  S7  1  -0.43857441  0.62308696  -0.62442347  1
  Ga  Ga8  1  -0.93495224  0.88591494  -0.15304645  1
  Ga  Ga9  1  -0.06847734  0.13894771  -0.65304309  1
  Ga  Ga10  1  -0.43644669  0.63622175  -0.99466731  1
  Ga  Ga11  1  -0.56753031  0.38448117  -0.49639109  1
  Li  Li12  1  -0.42454064  0.14054459  -0.00470049  1
  Li  Li13  1  -0.93387868  0.38987906  -0.15504850  1
  Li  Li14  1  -0.60430373  0.89173306  -0.64947100  1
  Li  Li15  1  -0.07246814  0.63493339  -0.65445869  1
