# generated using pymatgen
data_LiGaS2
_symmetry_space_group_name_H-M   'P 1'
_cell_length_a   6.62044520
_cell_length_b   7.99209464
_cell_length_c   6.29889753
_cell_angle_alpha   90.66741054
_cell_angle_beta   89.99158743
_cell_angle_gamma   90.03798430
_symmetry_Int_Tables_number   1
_chemical_formula_structural   LiGaS2
_chemical_formula_sum   'Li4 Ga4 S8'
_cell_volume   333.25969413
_cell_formula_units_Z   4
loop_
 _symmetry_equiv_pos_site_id
 _symmetry_equiv_pos_as_xyz
  1  'x, y, z'
loop_
 _atom_site_type_symbol
 _atom_site_label
 _atom_site_symmetry_multiplicity
 _atom_site_fract_x
 _atom_site_fract_y
 _atom_site_fract_z
 _atom_site_occupancy
  S  S0  1  -0.06675367  0.13187702  -0.01315257  1
  S  S1  1  -0.59677822  0.88051805  -0.03841281  1
  S  S2  1  -0.09897874  0.65572292  -0.03630769  1
  S  S3  1  -0.93881460  0.89652159  -0.51499096  1
  S  S4  1  -0.57032000  0.39920489  -0.04037750  1
  S  S5  1  -0.40808603  0.13408189  -0.53225044  1
  S  S6  1  -0.92104833  0.37849154  -0.52772107  1
  S  S7  1  -0.43277470  0.62948185  -0.52082246  1
  Ga  Ga8  1  -0.92836223  0.88896052  -0.14668138  1
  Ga  Ga9  1  -0.07415780  0.13603513  -0.64908069  1
  Ga  Ga10  1  -0.43195181  0.63954819  -0.14970559  1
  Ga  Ga11  1  -0.57931971  0.37701534  -0.55578372  1
  Li  Li12  1  -0.41389274  0.13690815  -0.13760009  1
  Li  Li13  1  -0.92083176  0.39706313  -0.13399615  1
  Li  Li14  1  -0.59820122  0.88223350  -0.65370070  1
  Li  Li15  1  -0.08704699  0.63699282  -0.65280907  1
