# generated using pymatgen
data_LiGaS2
_symmetry_space_group_name_H-M   'P 1'
_cell_length_a   6.29889753
_cell_length_b   6.62044520
_cell_length_c   7.99209464
_cell_angle_alpha   89.96201570
_cell_angle_beta   89.33258946
_cell_angle_gamma   89.99158743
_symmetry_Int_Tables_number   1
_chemical_formula_structural   LiGaS2
_chemical_formula_sum   'Li4 Ga4 S8'
_cell_volume   333.25969413
_cell_formula_units_Z   4
loop_
 _symmetry_equiv_pos_site_id
 _symmetry_equiv_pos_as_xyz
  1  'x, y, z'
loop_
 _atom_site_type_symbol
 _atom_site_label
 _atom_site_symmetry_multiplicity
 _atom_site_fract_x
 _atom_site_fract_y
 _atom_site_fract_z
 _atom_site_occupancy
  S  S0  1  0.01315257  0.06675367  0.13187702  1
  S  S1  1  0.03841281  0.59677822  0.88051805  1
  S  S2  1  0.03630769  0.09897874  0.65572292  1
  S  S3  1  0.51499096  0.93881460  0.89652159  1
  S  S4  1  0.04037750  0.57032000  0.39920489  1
  S  S5  1  0.53225044  0.40808603  0.13408189  1
  S  S6  1  0.52772107  0.92104833  0.37849154  1
  S  S7  1  0.52082246  0.43277470  0.62948185  1
  Ga  Ga8  1  0.14668138  0.92836223  0.88896052  1
  Ga  Ga9  1  0.64908069  0.07415780  0.13603513  1
  Ga  Ga10  1  0.14970559  0.43195181  0.63954819  1
  Ga  Ga11  1  0.55578372  0.57931971  0.37701534  1
  Li  Li12  1  0.13760009  0.41389274  0.13690815  1
  Li  Li13  1  0.13399615  0.92083176  0.39706313  1
  Li  Li14  1  0.65370070  0.59820122  0.88223350  1
  Li  Li15  1  0.65280907  0.08704699  0.63699282  1
