# generated using pymatgen
data_LiGaS2
_symmetry_space_group_name_H-M   'P 1'
_cell_length_a   6.65264882
_cell_length_b   8.06255474
_cell_length_c   6.29890145
_cell_angle_alpha   90.82309953
_cell_angle_beta   90.06450661
_cell_angle_gamma   90.12077125
_symmetry_Int_Tables_number   1
_chemical_formula_structural   LiGaS2
_chemical_formula_sum   'Li4 Ga4 S8'
_cell_volume   337.82051388
_cell_formula_units_Z   4
loop_
 _symmetry_equiv_pos_site_id
 _symmetry_equiv_pos_as_xyz
  1  'x, y, z'
loop_
 _atom_site_type_symbol
 _atom_site_label
 _atom_site_symmetry_multiplicity
 _atom_site_fract_x
 _atom_site_fract_y
 _atom_site_fract_z
 _atom_site_occupancy
  S  S0  1  -0.06607300  0.12832039  -0.01223130  1
  S  S1  1  -0.60182666  0.88582086  -0.03571806  1
  S  S2  1  -0.09247329  0.65360612  -0.03605423  1
  S  S3  1  -0.94029000  0.89637279  -0.51750786  1
  S  S4  1  -0.57405109  0.39743455  -0.09906571  1
  S  S5  1  -0.40931163  0.13685574  -0.54163179  1
  S  S6  1  -0.91654979  0.37641454  -0.53875421  1
  S  S7  1  -0.43349433  0.62895851  -0.55551956  1
  Ga  Ga8  1  -0.93325036  0.89004500  -0.15313642  1
  Ga  Ga9  1  -0.07573517  0.13769049  -0.64333347  1
  Ga  Ga10  1  -0.42913999  0.64900779  -0.10592172  1
  Ga  Ga11  1  -0.57100348  0.38484259  -0.47895259  1
  Li  Li12  1  -0.40370671  0.12782214  -0.14818476  1
  Li  Li13  1  -0.93758423  0.39118363  -0.14928712  1
  Li  Li14  1  -0.59792896  0.88477488  -0.64329121  1
  Li  Li15  1  -0.08489984  0.63150651  -0.64480288  1
