# generated using pymatgen
data_LiGaS2
_symmetry_space_group_name_H-M   'P 1'
_cell_length_a   6.66013974
_cell_length_b   8.06918758
_cell_length_c   6.29889793
_cell_angle_alpha   90.62880619
_cell_angle_beta   90.02211670
_cell_angle_gamma   90.12305558
_symmetry_Int_Tables_number   1
_chemical_formula_structural   LiGaS2
_chemical_formula_sum   'Li4 Ga4 S8'
_cell_volume   338.49365375
_cell_formula_units_Z   4
loop_
 _symmetry_equiv_pos_site_id
 _symmetry_equiv_pos_as_xyz
  1  'x, y, z'
loop_
 _atom_site_type_symbol
 _atom_site_label
 _atom_site_symmetry_multiplicity
 _atom_site_fract_x
 _atom_site_fract_y
 _atom_site_fract_z
 _atom_site_occupancy
  S  S0  1  -0.06674870  0.12849786  -0.01288269  1
  S  S1  1  -0.60140171  0.88763653  -0.04101414  1
  S  S2  1  -0.09008236  0.65216606  -0.04016016  1
  S  S3  1  -0.94064194  0.89700823  -0.51668816  1
  S  S4  1  -0.57195606  0.40027786  -0.11533793  1
  S  S5  1  -0.40852951  0.13830439  -0.54238453  1
  S  S6  1  -0.91655972  0.37600984  -0.53927328  1
  S  S7  1  -0.43745907  0.62308540  -0.61770776  1
  Ga  Ga8  1  -0.93390341  0.88965688  -0.15109076  1
  Ga  Ga9  1  -0.07524857  0.13752307  -0.64478487  1
  Ga  Ga10  1  -0.43469895  0.64238690  -0.00765629  1
  Ga  Ga11  1  -0.57000590  0.38713054  -0.48737703  1
  Li  Li12  1  -0.40374573  0.12772609  -0.14829375  1
  Li  Li13  1  -0.93725548  0.39073567  -0.14929477  1
  Li  Li14  1  -0.60020325  0.89025150  -0.64341679  1
  Li  Li15  1  -0.07887819  0.63225969  -0.64602999  1
