# generated using pymatgen
data_LiGaS2
_symmetry_space_group_name_H-M   'P 1'
_cell_length_a   6.65251995
_cell_length_b   8.13199303
_cell_length_c   6.29889753
_cell_angle_alpha   89.99624090
_cell_angle_beta   89.99151035
_cell_angle_gamma   90.04921328
_symmetry_Int_Tables_number   1
_chemical_formula_structural   LiGaS2
_chemical_formula_sum   'Li4 Ga4 S8'
_cell_volume   340.75917665
_cell_formula_units_Z   4
loop_
 _symmetry_equiv_pos_site_id
 _symmetry_equiv_pos_as_xyz
  1  'x, y, z'
loop_
 _atom_site_type_symbol
 _atom_site_label
 _atom_site_symmetry_multiplicity
 _atom_site_fract_x
 _atom_site_fract_y
 _atom_site_fract_z
 _atom_site_occupancy
  S  S0  1  -0.07076101  0.12330987  -0.04119944  1
  S  S1  1  -0.59357570  0.87609248  -0.11809119  1
  S  S2  1  -0.09757502  0.64321739  -0.08960166  1
  S  S3  1  -0.93923296  0.90144173  -0.53820227  1
  S  S4  1  -0.56569613  0.39833125  -0.14437194  1
  S  S5  1  -0.41704542  0.14916747  -0.61813646  1
  S  S6  1  -0.90740932  0.37953775  -0.61052742  1
  S  S7  1  -0.44869365  0.62735595  -0.64477929  1
  Ga  Ga8  1  -0.94076505  0.88491504  -0.16813969  1
  Ga  Ga9  1  -0.07160789  0.13644985  -0.67123815  1
  Ga  Ga10  1  -0.43729804  0.63924127  -0.01312009  1
  Ga  Ga11  1  -0.57231883  0.38620468  -0.51086098  1
  Li  Li12  1  -0.43654517  0.13515731  -0.01035876  1
  Li  Li13  1  -0.90529602  0.39436375  -0.01400768  1
  Li  Li14  1  -0.57298061  0.89062331  -0.50861688  1
  Li  Li15  1  -0.09051772  0.63524744  -0.60214096  1
