# generated using pymatgen
data_LiGaS2
_symmetry_space_group_name_H-M   'P 1'
_cell_length_a   6.29889746
_cell_length_b   6.65345779
_cell_length_c   8.13130995
_cell_angle_alpha   90.04600904
_cell_angle_beta   90.01232437
_cell_angle_gamma   90.00147752
_symmetry_Int_Tables_number   1
_chemical_formula_structural   LiGaS2
_chemical_formula_sum   'Li4 Ga4 S8'
_cell_volume   340.77859684
_cell_formula_units_Z   4
loop_
 _symmetry_equiv_pos_site_id
 _symmetry_equiv_pos_as_xyz
  1  'x, y, z'
loop_
 _atom_site_type_symbol
 _atom_site_label
 _atom_site_symmetry_multiplicity
 _atom_site_fract_x
 _atom_site_fract_y
 _atom_site_fract_z
 _atom_site_occupancy
  S  S0  1  0.01843141  0.05985380  0.12736052  1
  S  S1  1  0.05200045  0.60135989  0.87950867  1
  S  S2  1  0.04525745  0.09170813  0.64905086  1
  S  S3  1  0.51860867  0.94263590  0.89833124  1
  S  S4  1  0.12475373  0.56940980  0.40136264  1
  S  S5  1  0.57458263  0.41071010  0.14344479  1
  S  S6  1  0.54539167  0.91448709  0.37615500  1
  S  S7  1  0.62166274  0.43724252  0.62327389  1
  Ga  Ga8  1  0.15208033  0.93631519  0.88617389  1
  Ga  Ga9  1  0.65006130  0.07079917  0.13927566  1
  Ga  Ga10  1  0.99163568  0.43705634  0.63641360  1
  Ga  Ga11  1  0.49474786  0.56738255  0.38489958  1
  Li  Li12  1  0.05800026  0.41838020  0.13541860  1
  Li  Li13  1  0.15514870  0.93571495  0.39060622  1
  Li  Li14  1  0.64781317  0.60280789  0.89419020  1
  Li  Li15  1  0.65321683  0.07145502  0.63519116  1
