# generated using pymatgen
data_LiGaS2
_symmetry_space_group_name_H-M   'P 1'
_cell_length_a   6.61037337
_cell_length_b   7.97668044
_cell_length_c   6.29889873
_cell_angle_alpha   89.42664158
_cell_angle_beta   89.96367978
_cell_angle_gamma   89.96725929
_symmetry_Int_Tables_number   1
_chemical_formula_structural   LiGaS2
_chemical_formula_sum   'Li4 Ga4 S8'
_cell_volume   332.11684812
_cell_formula_units_Z   4
loop_
 _symmetry_equiv_pos_site_id
 _symmetry_equiv_pos_as_xyz
  1  'x, y, z'
loop_
 _atom_site_type_symbol
 _atom_site_label
 _atom_site_symmetry_multiplicity
 _atom_site_fract_x
 _atom_site_fract_y
 _atom_site_fract_z
 _atom_site_occupancy
  S  S0  1  -0.07390972  0.12782582  -0.14894367  1
  S  S1  1  -0.59091443  0.87762455  -0.13675435  1
  S  S2  1  -0.09909432  0.63770784  -0.13250923  1
  S  S3  1  -0.93841301  0.89848997  -0.65082272  1
  S  S4  1  -0.56974899  0.39623134  -0.14831948  1
  S  S5  1  -0.40959803  0.15451153  -0.62799616  1
  S  S6  1  -0.91139115  0.37982284  -0.62580865  1
  S  S7  1  -0.44113499  0.63199082  -0.65025939  1
  Ga  Ga8  1  -0.92967736  0.87947378  -0.05623077  1
  Ga  Ga9  1  -0.07586579  0.13799296  -0.51727015  1
  Ga  Ga10  1  -0.43261365  0.63682012  -0.01543757  1
  Ga  Ga11  1  -0.57943166  0.38912549  -0.51582594  1
  Li  Li12  1  -0.42059233  0.13633776  -0.01210975  1
  Li  Li13  1  -0.91181816  0.38276779  -0.01125321  1
  Li  Li14  1  -0.58981926  0.89603267  -0.52891457  1
  Li  Li15  1  -0.09329568  0.63790124  -0.52493729  1
