# generated using pymatgen
data_LiGaS2
_symmetry_space_group_name_H-M   'P 1'
_cell_length_a   6.62972714
_cell_length_b   8.14574736
_cell_length_c   6.29889926
_cell_angle_alpha   89.99437698
_cell_angle_beta   90.04337037
_cell_angle_gamma   89.97317322
_symmetry_Int_Tables_number   1
_chemical_formula_structural   LiGaS2
_chemical_formula_sum   'Li4 Ga4 S8'
_cell_volume   340.16613802
_cell_formula_units_Z   4
loop_
 _symmetry_equiv_pos_site_id
 _symmetry_equiv_pos_as_xyz
  1  'x, y, z'
loop_
 _atom_site_type_symbol
 _atom_site_label
 _atom_site_symmetry_multiplicity
 _atom_site_fract_x
 _atom_site_fract_y
 _atom_site_fract_z
 _atom_site_occupancy
  S  S0  1  -0.06024993  0.12618126  -0.02359175  1
  S  S1  1  -0.59250936  0.87915849  -0.08378621  1
  S  S2  1  -0.08946407  0.64820900  -0.04748479  1
  S  S3  1  -0.94914959  0.89755651  -0.52202751  1
  S  S4  1  -0.56392792  0.39905180  -0.12988021  1
  S  S5  1  -0.41524568  0.14939714  -0.60449428  1
  S  S6  1  -0.91703495  0.37607495  -0.54637757  1
  S  S7  1  -0.44040367  0.62310181  -0.62914810  1
  Ga  Ga8  1  -0.93498990  0.88522859  -0.15397397  1
  Ga  Ga9  1  -0.06794240  0.13913419  -0.65627751  1
  Ga  Ga10  1  -0.43777703  0.63808149  -0.99879360  1
  Ga  Ga11  1  -0.56881345  0.38549136  -0.49746761  1
  Li  Li12  1  -0.42815301  0.13943036  -0.00080592  1
  Li  Li13  1  -0.93366649  0.38925749  -0.15564678  1
  Li  Li14  1  -0.59484325  0.89091530  -0.59668421  1
  Li  Li15  1  -0.07314785  0.63438679  -0.65695285  1
