# generated using pymatgen
data_LiGaS2
_symmetry_space_group_name_H-M   'P 1'
_cell_length_a   6.62717361
_cell_length_b   8.00205383
_cell_length_c   6.29889751
_cell_angle_alpha   90.71841882
_cell_angle_beta   90.00748333
_cell_angle_gamma   90.03844199
_symmetry_Int_Tables_number   1
_chemical_formula_structural   LiGaS2
_chemical_formula_sum   'Li4 Ga4 S8'
_cell_volume   334.01049709
_cell_formula_units_Z   4
loop_
 _symmetry_equiv_pos_site_id
 _symmetry_equiv_pos_as_xyz
  1  'x, y, z'
loop_
 _atom_site_type_symbol
 _atom_site_label
 _atom_site_symmetry_multiplicity
 _atom_site_fract_x
 _atom_site_fract_y
 _atom_site_fract_z
 _atom_site_occupancy
  S  S0  1  -0.06624979  0.13152157  -0.01320673  1
  S  S1  1  -0.59722515  0.88028477  -0.03815263  1
  S  S2  1  -0.09911199  0.65605735  -0.03636467  1
  S  S3  1  -0.93854931  0.89648130  -0.51527407  1
  S  S4  1  -0.57097079  0.39839406  -0.07134821  1
  S  S5  1  -0.40793872  0.13260436  -0.53550065  1
  S  S6  1  -0.92229336  0.37892014  -0.53077375  1
  S  S7  1  -0.43230809  0.63026504  -0.52608781  1
  Ga  Ga8  1  -0.92854517  0.88909442  -0.14743930  1
  Ga  Ga9  1  -0.07394933  0.13624654  -0.64836033  1
  Ga  Ga10  1  -0.42942826  0.64374722  -0.15496674  1
  Ga  Ga11  1  -0.57925201  0.37609194  -0.50605255  1
  Li  Li12  1  -0.41187126  0.13436514  -0.13844667  1
  Li  Li13  1  -0.92428564  0.39722007  -0.13518430  1
  Li  Li14  1  -0.59840762  0.88229948  -0.65358309  1
  Li  Li15  1  -0.08693204  0.63706312  -0.65265140  1
