# generated using pymatgen
data_Sc11Al25N36
_symmetry_space_group_name_H-M   'P 1'
_cell_length_a   9.86245159
_cell_length_b   9.87065738
_cell_length_c   10.17945662
_cell_angle_alpha   89.98868934
_cell_angle_beta   89.94700506
_cell_angle_gamma   59.95966993
_symmetry_Int_Tables_number   1
_chemical_formula_structural   Sc11Al25N36
_chemical_formula_sum   'Sc11 Al25 N36'
_cell_volume   857.84603013
_cell_formula_units_Z   1
loop_
 _symmetry_equiv_pos_site_id
 _symmetry_equiv_pos_as_xyz
  1  'x, y, z'
loop_
 _atom_site_type_symbol
 _atom_site_label
 _atom_site_symmetry_multiplicity
 _atom_site_fract_x
 _atom_site_fract_y
 _atom_site_fract_z
 _atom_site_occupancy
  Sc  Sc0  1  0.11337972  0.09081797  0.40472883  1
  Sc  Sc1  1  0.21708566  0.21615725  0.14050085  1
  Sc  Sc2  1  0.77763842  0.09028267  0.88547813  1
  Sc  Sc3  1  0.55536810  0.20738731  0.14405465  1
  Sc  Sc4  1  0.11280558  0.09615872  0.87420054  1
  Sc  Sc5  1  0.55069842  0.53907664  0.13741537  1
  Sc  Sc6  1  0.78280735  0.42983886  0.38281142  1
  Sc  Sc7  1  0.55721924  0.53536918  0.63887904  1
  Sc  Sc8  1  0.21527218  0.87012918  0.13577545  1
  Sc  Sc9  1  0.89257272  0.86529697  0.62751300  1
  Sc  Sc10  1  0.56010397  0.87217644  0.13995616  1
  Al  Al11  1  0.88544203  0.21346055  0.64911008  1
  Al  Al12  1  0.44649180  0.09531232  0.40720739  1
  Al  Al13  1  0.22477361  0.21320859  0.64671462  1
  Al  Al14  1  0.77280149  0.09683198  0.39888499  1
  Al  Al15  1  0.89062301  0.20075976  0.14446206  1
  Al  Al16  1  0.44303836  0.09954041  0.88457372  1
  Al  Al17  1  0.54769288  0.20991054  0.64408081  1
  Al  Al18  1  0.11382315  0.43552071  0.39926245  1
  Al  Al19  1  0.21168592  0.54267217  0.14370479  1
  Al  Al20  1  0.78017112  0.43241808  0.90021631  1
  Al  Al21  1  0.89150184  0.53543635  0.64795279  1
  Al  Al22  1  0.43533214  0.42763006  0.40053513  1
  Al  Al23  1  0.10977881  0.43633765  0.89101548  1
  Al  Al24  1  0.22219410  0.53556088  0.64609026  1
  Al  Al25  1  0.89720956  0.54379329  0.14090452  1
  Al  Al26  1  0.43381345  0.43197450  0.89199044  1
  Al  Al27  1  0.12095111  0.75115836  0.39537188  1
  Al  Al28  1  0.78357999  0.75506277  0.89270260  1
  Al  Al29  1  0.44042224  0.76472618  0.40421429  1
  Al  Al30  1  0.11203849  0.74811394  0.89461171  1
  Al  Al31  1  0.22699919  0.86319346  0.65087208  1
  Al  Al32  1  0.77699816  0.75913157  0.39694937  1
  Al  Al33  1  0.89298841  0.86576163  0.14933287  1
  Al  Al34  1  0.44794253  0.75701685  0.88892667  1
  Al  Al35  1  0.55362179  0.87297460  0.64583375  1
  N  N36  1  0.23041646  0.21610587  0.35300171  1
  N  N37  1  0.09593121  0.10455001  0.08533339  1
  N  N38  1  0.87362783  0.22849559  0.83348160  1
  N  N39  1  0.76796057  0.11452711  0.59188266  1
  N  N40  1  0.55377959  0.20466521  0.35386605  1
  N  N41  1  0.44417885  0.09682579  0.06934753  1
  N  N42  1  0.22880281  0.22246066  0.83399472  1
  N  N43  1  0.11262337  0.09168933  0.61891233  1
  N  N44  1  0.88267897  0.19295151  0.33203381  1
  N  N45  1  0.79562489  0.08077689  0.09435206  1
  N  N46  1  0.53865603  0.21784210  0.83320886  1
  N  N47  1  0.44591162  0.09280276  0.59540603  1
  N  N48  1  0.22269168  0.53747012  0.33483360  1
  N  N49  1  0.10225470  0.44705972  0.07725769  1
  N  N50  1  0.88843179  0.53883551  0.83779017  1
  N  N51  1  0.79942030  0.41905035  0.58862398  1
  N  N52  1  0.53682256  0.54682130  0.35578326  1
  N  N53  1  0.41908301  0.43828997  0.07865099  1
  N  N54  1  0.22064423  0.53885313  0.83275177  1
  N  N55  1  0.10834482  0.43297513  0.58921717  1
  N  N56  1  0.90349019  0.55068582  0.32949788  1
  N  N57  1  0.79671478  0.42141757  0.09466985  1
  N  N58  1  0.55869674  0.53518268  0.85328258  1
  N  N59  1  0.43119330  0.41934888  0.58680369  1
  N  N60  1  0.23001660  0.85668318  0.34470666  1
  N  N61  1  0.09925669  0.75068165  0.08414523  1
  N  N62  1  0.90054942  0.84949680  0.83380413  1
  N  N63  1  0.76721795  0.74702951  0.58425641  1
  N  N64  1  0.55326890  0.87412917  0.35176276  1
  N  N65  1  0.44431854  0.76353984  0.07264726  1
  N  N66  1  0.23102170  0.84640950  0.83941387  1
  N  N67  1  0.13518499  0.74618479  0.58238610  1
  N  N68  1  0.88927295  0.87104460  0.35106705  1
  N  N69  1  0.79452827  0.75471299  0.08205913  1
  N  N70  1  0.55790410  0.87194564  0.83711534  1
  N  N71  1  0.43537990  0.77924196  0.59185174  1
