# generated using pymatgen
data_Sc11Al25N36
_symmetry_space_group_name_H-M   'P 1'
_cell_length_a   10.05039233
_cell_length_b   10.05297110
_cell_length_c   9.69667302
_cell_angle_alpha   89.91807680
_cell_angle_beta   89.96735898
_cell_angle_gamma   59.97504540
_symmetry_Int_Tables_number   1
_chemical_formula_structural   Sc11Al25N36
_chemical_formula_sum   'Sc11 Al25 N36'
_cell_volume   848.24463150
_cell_formula_units_Z   1
loop_
 _symmetry_equiv_pos_site_id
 _symmetry_equiv_pos_as_xyz
  1  'x, y, z'
loop_
 _atom_site_type_symbol
 _atom_site_label
 _atom_site_symmetry_multiplicity
 _atom_site_fract_x
 _atom_site_fract_y
 _atom_site_fract_z
 _atom_site_occupancy
  Sc  Sc0  1  0.11357254  0.08760298  0.37683851  1
  Sc  Sc1  1  0.21343625  0.22138580  0.12272937  1
  Sc  Sc2  1  0.78046632  0.08919129  0.85781929  1
  Sc  Sc3  1  0.55930244  0.20851507  0.11896589  1
  Sc  Sc4  1  0.11192504  0.09843901  0.85732205  1
  Sc  Sc5  1  0.54984877  0.53853861  0.11536587  1
  Sc  Sc6  1  0.78433431  0.42905563  0.35676266  1
  Sc  Sc7  1  0.55924460  0.53346344  0.61593663  1
  Sc  Sc8  1  0.21746624  0.86688935  0.10980893  1
  Sc  Sc9  1  0.89480857  0.86220439  0.60378059  1
  Sc  Sc10  1  0.56209224  0.86883653  0.11660168  1
  Al  Al11  1  0.88671987  0.21533766  0.62966726  1
  Al  Al12  1  0.44698675  0.09505109  0.36476192  1
  Al  Al13  1  0.22124663  0.21459877  0.61661604  1
  Al  Al14  1  0.77187114  0.09774213  0.38486968  1
  Al  Al15  1  0.89055680  0.19766689  0.12700860  1
  Al  Al16  1  0.44250824  0.09856678  0.83136205  1
  Al  Al17  1  0.54844805  0.21112401  0.62153523  1
  Al  Al18  1  0.11124855  0.43911002  0.38615831  1
  Al  Al19  1  0.21045499  0.54312785  0.12903904  1
  Al  Al20  1  0.78133569  0.43260856  0.88590193  1
  Al  Al21  1  0.88963874  0.53584742  0.63182652  1
  Al  Al22  1  0.43487921  0.42814941  0.38308268  1
  Al  Al23  1  0.10908705  0.43767842  0.87222093  1
  Al  Al24  1  0.22195278  0.53721331  0.62992301  1
  Al  Al25  1  0.89857855  0.54607786  0.12474797  1
  Al  Al26  1  0.43140756  0.43304609  0.87511803  1
  Al  Al27  1  0.12398568  0.74993394  0.37697425  1
  Al  Al28  1  0.78612763  0.75508686  0.87551781  1
  Al  Al29  1  0.44009951  0.76343931  0.38741032  1
  Al  Al30  1  0.10928627  0.74790102  0.87948303  1
  Al  Al31  1  0.22535450  0.86354761  0.63531635  1
  Al  Al32  1  0.77593705  0.75759258  0.38029076  1
  Al  Al33  1  0.89251316  0.86704366  0.13503954  1
  Al  Al34  1  0.44790581  0.75613481  0.86828612  1
  Al  Al35  1  0.55538700  0.87041466  0.62413612  1
  N  N36  1  0.22544560  0.22024912  0.35334411  1
  N  N37  1  0.09722768  0.10366318  0.08311157  1
  N  N38  1  0.87608757  0.22997101  0.82454973  1
  N  N39  1  0.76911842  0.11323380  0.58829875  1
  N  N40  1  0.55610434  0.20702245  0.34579169  1
  N  N41  1  0.44272881  0.09782249  0.10872852  1
  N  N42  1  0.22745465  0.22263554  0.82470518  1
  N  N43  1  0.11193617  0.09050829  0.60319181  1
  N  N44  1  0.88050265  0.19196676  0.32414949  1
  N  N45  1  0.79961512  0.07750184  0.07825309  1
  N  N46  1  0.53861107  0.21761647  0.82939010  1
  N  N47  1  0.44689970  0.09228824  0.59512779  1
  N  N48  1  0.22228158  0.53693158  0.32679868  1
  N  N49  1  0.10082722  0.45061071  0.06616599  1
  N  N50  1  0.88706871  0.53952001  0.82888230  1
  N  N51  1  0.80000922  0.41975891  0.57429475  1
  N  N52  1  0.53779665  0.54580866  0.34834441  1
  N  N53  1  0.41571582  0.44126910  0.07046000  1
  N  N54  1  0.21984222  0.54009758  0.82308735  1
  N  N55  1  0.10573809  0.43729875  0.58266371  1
  N  N56  1  0.90433228  0.55155598  0.32081733  1
  N  N57  1  0.79763042  0.42123610  0.09021451  1
  N  N58  1  0.55996356  0.53347166  0.84304469  1
  N  N59  1  0.43047614  0.42020371  0.57889818  1
  N  N60  1  0.23272177  0.85271876  0.33043278  1
  N  N61  1  0.09757288  0.75029698  0.07738112  1
  N  N62  1  0.90171504  0.84776891  0.81981889  1
  N  N63  1  0.76735883  0.74619846  0.57577983  1
  N  N64  1  0.55479399  0.86883084  0.34302013  1
  N  N65  1  0.44571005  0.76086411  0.06103542  1
  N  N66  1  0.22757401  0.84914854  0.83457898  1
  N  N67  1  0.13647492  0.74606186  0.57207747  1
  N  N68  1  0.88768604  0.87183995  0.34456251  1
  N  N69  1  0.79705370  0.75519256  0.07279085  1
  N  N70  1  0.55843032  0.87300107  0.82986380  1
  N  N71  1  0.43467800  0.77833137  0.58651554  1
