# generated using pymatgen
data_Sc11Al25N36
_symmetry_space_group_name_H-M   'P 1'
_cell_length_a   9.86245913
_cell_length_b   9.87067624
_cell_length_c   10.17942223
_cell_angle_alpha   89.98870567
_cell_angle_beta   89.94702567
_cell_angle_gamma   59.95963334
_symmetry_Int_Tables_number   1
_chemical_formula_structural   Sc11Al25N36
_chemical_formula_sum   'Sc11 Al25 N36'
_cell_volume   857.84511059
_cell_formula_units_Z   1
loop_
 _symmetry_equiv_pos_site_id
 _symmetry_equiv_pos_as_xyz
  1  'x, y, z'
loop_
 _atom_site_type_symbol
 _atom_site_label
 _atom_site_symmetry_multiplicity
 _atom_site_fract_x
 _atom_site_fract_y
 _atom_site_fract_z
 _atom_site_occupancy
  Sc  Sc0  1  0.11335815  0.09081893  0.41353441  1
  Sc  Sc1  1  0.21706372  0.21616131  0.14930937  1
  Sc  Sc2  1  0.77761823  0.09028441  0.89428019  1
  Sc  Sc3  1  0.55534770  0.20738975  0.15285775  1
  Sc  Sc4  1  0.11278407  0.09616350  0.88300749  1
  Sc  Sc5  1  0.55067589  0.53908020  0.14622651  1
  Sc  Sc6  1  0.78278794  0.42983974  0.39161924  1
  Sc  Sc7  1  0.55719648  0.53537278  0.64768259  1
  Sc  Sc8  1  0.21525029  0.87013213  0.14457724  1
  Sc  Sc9  1  0.89255170  0.86529905  0.63631534  1
  Sc  Sc10  1  0.56008189  0.87217950  0.14876209  1
  Al  Al11  1  0.88542065  0.21346397  0.65791809  1
  Al  Al12  1  0.44646989  0.09531529  0.41601411  1
  Al  Al13  1  0.22475160  0.21321252  0.65552119  1
  Al  Al14  1  0.77277953  0.09683518  0.40769088  1
  Al  Al15  1  0.89060094  0.20076309  0.15326584  1
  Al  Al16  1  0.44301623  0.09954426  0.89338087  1
  Al  Al17  1  0.54767095  0.20991361  0.65288667  1
  Al  Al18  1  0.11380086  0.43552434  0.40806993  1
  Al  Al19  1  0.21166421  0.54267539  0.15250975  1
  Al  Al20  1  0.78014764  0.43242250  0.90902233  1
  Al  Al21  1  0.89147981  0.53543968  0.65676141  1
  Al  Al22  1  0.43531027  0.42763189  0.40934112  1
  Al  Al23  1  0.10975689  0.43634131  0.89982373  1
  Al  Al24  1  0.22217240  0.53556400  0.65489645  1
  Al  Al25  1  0.89718680  0.54379714  0.14971216  1
  Al  Al26  1  0.43379223  0.43197837  0.90079667  1
  Al  Al27  1  0.12093049  0.75116076  0.40417588  1
  Al  Al28  1  0.78355804  0.75506625  0.90150785  1
  Al  Al29  1  0.44040000  0.76472981  0.41302123  1
  Al  Al30  1  0.11201590  0.74811721  0.90341589  1
  Al  Al31  1  0.22697685  0.86319729  0.65967874  1
  Al  Al32  1  0.77697526  0.75913438  0.40575666  1
  Al  Al33  1  0.89296643  0.86576464  0.15813733  1
  Al  Al34  1  0.44792110  0.75701910  0.89773270  1
  Al  Al35  1  0.55359937  0.87297832  0.65464126  1
  N  N36  1  0.23039354  0.21610914  0.36181037  1
  N  N37  1  0.09590996  0.10455444  0.09414027  1
  N  N38  1  0.87360642  0.22849943  0.84228976  1
  N  N39  1  0.76793901  0.11453051  0.60068983  1
  N  N40  1  0.55375799  0.20466762  0.36267078  1
  N  N41  1  0.44415618  0.09682936  0.07815509  1
  N  N42  1  0.22878106  0.22246504  0.84280183  1
  N  N43  1  0.11260151  0.09169267  0.62771913  1
  N  N44  1  0.88265731  0.19295346  0.34083887  1
  N  N45  1  0.79560474  0.08077875  0.10315525  1
  N  N46  1  0.53863412  0.21784555  0.84201601  1
  N  N47  1  0.44589006  0.09280599  0.60421309  1
  N  N48  1  0.22266999  0.53747254  0.34363924  1
  N  N49  1  0.10223229  0.44706313  0.08606583  1
  N  N50  1  0.88840973  0.53883877  0.84659821  1
  N  N51  1  0.79939927  0.41905315  0.59743208  1
  N  N52  1  0.53680210  0.54682338  0.36459438  1
  N  N53  1  0.41906191  0.43829369  0.08745777  1
  N  N54  1  0.22062269  0.53885613  0.84155855  1
  N  N55  1  0.10832236  0.43297932  0.59802468  1
  N  N56  1  0.90346781  0.55068913  0.33830548  1
  N  N57  1  0.79669146  0.42142166  0.10347688  1
  N  N58  1  0.55867441  0.53518615  0.86208662  1
  N  N59  1  0.43117116  0.41935099  0.59560993  1
  N  N60  1  0.22999577  0.85668501  0.35350963  1
  N  N61  1  0.09923441  0.75068430  0.09295023  1
  N  N62  1  0.90052771  0.84949876  0.84260736  1
  N  N63  1  0.76719526  0.74703229  0.59306409  1
  N  N64  1  0.55324655  0.87413230  0.36056932  1
  N  N65  1  0.44429845  0.76354075  0.08145392  1
  N  N66  1  0.23099893  0.84641390  0.84822179  1
  N  N67  1  0.13516484  0.74618747  0.59119138  1
  N  N68  1  0.88925081  0.87104740  0.35987422  1
  N  N69  1  0.79450623  0.75471631  0.09086526  1
  N  N70  1  0.55788155  0.87194943  0.84592299  1
  N  N71  1  0.43535708  0.77924657  0.60065907  1
