# generated using pymatgen
data_Sc11Al25N36
_symmetry_space_group_name_H-M   'P 1'
_cell_length_a   10.36726463
_cell_length_b   10.36019393
_cell_length_c   8.78444740
_cell_angle_alpha   89.94676875
_cell_angle_beta   89.99022720
_cell_angle_gamma   59.96544203
_symmetry_Int_Tables_number   1
_chemical_formula_structural   Sc11Al25N36
_chemical_formula_sum   'Sc11 Al25 N36'
_cell_volume   816.81855674
_cell_formula_units_Z   1
loop_
 _symmetry_equiv_pos_site_id
 _symmetry_equiv_pos_as_xyz
  1  'x, y, z'
loop_
 _atom_site_type_symbol
 _atom_site_label
 _atom_site_symmetry_multiplicity
 _atom_site_fract_x
 _atom_site_fract_y
 _atom_site_fract_z
 _atom_site_occupancy
  Sc  Sc0  1  0.11353378  0.09158307  0.35803239  1
  Sc  Sc1  1  0.21878807  0.21961845  0.10360967  1
  Sc  Sc2  1  0.77686102  0.09371296  0.85224089  1
  Sc  Sc3  1  0.55302551  0.20913488  0.10768940  1
  Sc  Sc4  1  0.11271648  0.09576565  0.84768524  1
  Sc  Sc5  1  0.55330197  0.53607675  0.10002190  1
  Sc  Sc6  1  0.78423233  0.43078172  0.35194344  1
  Sc  Sc7  1  0.55518353  0.53431444  0.60800272  1
  Sc  Sc8  1  0.22005965  0.86380025  0.10224736  1
  Sc  Sc9  1  0.89237269  0.86612527  0.59969628  1
  Sc  Sc10  1  0.56045073  0.87090483  0.10306235  1
  Al  Al11  1  0.88648589  0.20947125  0.60511567  1
  Al  Al12  1  0.44498445  0.09665820  0.35843037  1
  Al  Al13  1  0.22274384  0.21385639  0.60117591  1
  Al  Al14  1  0.77699476  0.09308039  0.35458947  1
  Al  Al15  1  0.89037000  0.20465898  0.10659696  1
  Al  Al16  1  0.44438854  0.09751660  0.82445104  1
  Al  Al17  1  0.55188383  0.20879935  0.59599401  1
  Al  Al18  1  0.11082731  0.43734847  0.37687308  1
  Al  Al19  1  0.21115730  0.54180181  0.11856607  1
  Al  Al20  1  0.78287328  0.43096434  0.85813218  1
  Al  Al21  1  0.89036393  0.53846842  0.61857638  1
  Al  Al22  1  0.43429286  0.43084903  0.36613602  1
  Al  Al23  1  0.11034681  0.43680837  0.85344543  1
  Al  Al24  1  0.22149802  0.53805850  0.61359660  1
  Al  Al25  1  0.89752952  0.54219265  0.10685833  1
  Al  Al26  1  0.43128863  0.42939318  0.85712954  1
  Al  Al27  1  0.11645741  0.75196459  0.36095811  1
  Al  Al28  1  0.78179268  0.75649413  0.85796800  1
  Al  Al29  1  0.44282032  0.76094288  0.37386155  1
  Al  Al30  1  0.11303879  0.74900851  0.86218591  1
  Al  Al31  1  0.22379509  0.86483768  0.60917018  1
  Al  Al32  1  0.78055737  0.75733162  0.36155506  1
  Al  Al33  1  0.89368122  0.86412271  0.11193453  1
  Al  Al34  1  0.44444055  0.76096229  0.84994942  1
  Al  Al35  1  0.55626027  0.87097796  0.60236560  1
  N  N36  1  0.22486594  0.22259899  0.36661827  1
  N  N37  1  0.10070764  0.10102647  0.10156653  1
  N  N38  1  0.88016229  0.22215059  0.84633626  1
  N  N39  1  0.77010898  0.10839886  0.59548229  1
  N  N40  1  0.55572895  0.20852019  0.36158885  1
  N  N41  1  0.44337598  0.09553481  0.12783220  1
  N  N42  1  0.23156152  0.21663607  0.83782637  1
  N  N43  1  0.11127103  0.09246973  0.60222657  1
  N  N44  1  0.88076184  0.19874720  0.35075931  1
  N  N45  1  0.79428400  0.08385421  0.10687962  1
  N  N46  1  0.53891772  0.21345977  0.84467868  1
  N  N47  1  0.44722387  0.09289923  0.59613928  1
  N  N48  1  0.22047044  0.53713040  0.34669407  1
  N  N49  1  0.10233636  0.44808826  0.08022259  1
  N  N50  1  0.88826711  0.54127665  0.84429543  1
  N  N51  1  0.79516382  0.42228927  0.60273984  1
  N  N52  1  0.53997154  0.54542076  0.35402489  1
  N  N53  1  0.41754498  0.43992130  0.09148212  1
  N  N54  1  0.22000588  0.54050145  0.83565193  1
  N  N55  1  0.10625080  0.43558226  0.60201405  1
  N  N56  1  0.90349112  0.54747500  0.34099103  1
  N  N57  1  0.79677510  0.42245364  0.09468282  1
  N  N58  1  0.55756311  0.53355128  0.84975510  1
  N  N59  1  0.43188778  0.42024805  0.59570973  1
  N  N60  1  0.23177954  0.85331839  0.35557272  1
  N  N61  1  0.10236504  0.74930301  0.09855838  1
  N  N62  1  0.89922169  0.85354250  0.84915245  1
  N  N63  1  0.77095911  0.74995543  0.59486725  1
  N  N64  1  0.55666561  0.86665605  0.36240411  1
  N  N65  1  0.44561526  0.76089223  0.07898453  1
  N  N66  1  0.22492818  0.85305698  0.84109469  1
  N  N67  1  0.12762802  0.74900944  0.58824166  1
  N  N68  1  0.88846072  0.86991446  0.34541023  1
  N  N69  1  0.79314864  0.75347841  0.09349891  1
  N  N70  1  0.55707112  0.87740365  0.83932548  1
  N  N71  1  0.43725861  0.77550663  0.60524092  1
