# generated using pymatgen
data_Sc11Al25N36
_symmetry_space_group_name_H-M   'P 1'
_cell_length_a   10.13253686
_cell_length_b   10.13037343
_cell_length_c   9.46583675
_cell_angle_alpha   89.88967079
_cell_angle_beta   89.96371543
_cell_angle_gamma   59.97279860
_symmetry_Int_Tables_number   1
_chemical_formula_structural   Sc11Al25N36
_chemical_formula_sum   'Sc11 Al25 N36'
_cell_volume   841.22727832
_cell_formula_units_Z   1
loop_
 _symmetry_equiv_pos_site_id
 _symmetry_equiv_pos_as_xyz
  1  'x, y, z'
loop_
 _atom_site_type_symbol
 _atom_site_label
 _atom_site_symmetry_multiplicity
 _atom_site_fract_x
 _atom_site_fract_y
 _atom_site_fract_z
 _atom_site_occupancy
  Sc  Sc0  1  0.11378144  0.08779055  0.36861538  1
  Sc  Sc1  1  0.21536548  0.22135783  0.11422817  1
  Sc  Sc2  1  0.77956851  0.09003743  0.85404397  1
  Sc  Sc3  1  0.55852670  0.20838165  0.11410314  1
  Sc  Sc4  1  0.11197468  0.09860415  0.85435965  1
  Sc  Sc5  1  0.54999699  0.53853580  0.10997209  1
  Sc  Sc6  1  0.78407780  0.42971906  0.35385941  1
  Sc  Sc7  1  0.55940279  0.53257221  0.61402494  1
  Sc  Sc8  1  0.21851391  0.86537641  0.10593552  1
  Sc  Sc9  1  0.89538422  0.86172245  0.60184011  1
  Sc  Sc10  1  0.56168919  0.86950924  0.11195358  1
  Al  Al11  1  0.88725150  0.21478003  0.62592077  1
  Al  Al12  1  0.44637708  0.09531911  0.35148603  1
  Al  Al13  1  0.22084120  0.21410875  0.60468040  1
  Al  Al14  1  0.77306489  0.09685049  0.38139877  1
  Al  Al15  1  0.89021905  0.19813717  0.12507464  1
  Al  Al16  1  0.44273051  0.09900162  0.81717586  1
  Al  Al17  1  0.54961010  0.21028596  0.60898129  1
  Al  Al18  1  0.11037762  0.43983391  0.38554531  1
  Al  Al19  1  0.21013792  0.54294931  0.12810021  1
  Al  Al20  1  0.78203158  0.43210185  0.88339784  1
  Al  Al21  1  0.88915719  0.53619952  0.63069429  1
  Al  Al22  1  0.43438217  0.42965379  0.38069115  1
  Al  Al23  1  0.10923452  0.43766957  0.86803296  1
  Al  Al24  1  0.22166512  0.53796665  0.62799290  1
  Al  Al25  1  0.89879979  0.54586901  0.12239548  1
  Al  Al26  1  0.43102519  0.43176566  0.87221584  1
  Al  Al27  1  0.12373751  0.75009978  0.37398117  1
  Al  Al28  1  0.78542840  0.75588223  0.87304245  1
  Al  Al29  1  0.44031850  0.76259383  0.38645285  1
  Al  Al30  1  0.10874154  0.74815220  0.87822056  1
  Al  Al31  1  0.22402764  0.86420687  0.63225616  1
  Al  Al32  1  0.77638974  0.75686329  0.37808579  1
  Al  Al33  1  0.89217679  0.86711982  0.13348247  1
  Al  Al34  1  0.44763209  0.75736621  0.86280921  1
  Al  Al35  1  0.55615993  0.86994944  0.61727547  1
  N  N36  1  0.22442834  0.22151263  0.36170739  1
  N  N37  1  0.09847407  0.10298727  0.09065086  1
  N  N38  1  0.87724250  0.22890459  0.82748007  1
  N  N39  1  0.77045208  0.11172571  0.59086708  1
  N  N40  1  0.55661089  0.20790227  0.35360966  1
  N  N41  1  0.44346728  0.09733406  0.13336384  1
  N  N42  1  0.22894592  0.22083490  0.83202601  1
  N  N43  1  0.11192647  0.09033580  0.60249861  1
  N  N44  1  0.87994423  0.19336905  0.32815379  1
  N  N45  1  0.79861321  0.07818693  0.08215827  1
  N  N46  1  0.53853688  0.21610264  0.83584281  1
  N  N47  1  0.44675609  0.09235015  0.59971197  1
  N  N48  1  0.22179202  0.53687859  0.33023660  1
  N  N49  1  0.10084692  0.45086837  0.06816329  1
  N  N50  1  0.88668170  0.54000080  0.83211990  1
  N  N51  1  0.79917370  0.42049686  0.57746760  1
  N  N52  1  0.53796496  0.54590212  0.35031419  1
  N  N53  1  0.41540625  0.44106926  0.07435724  1
  N  N54  1  0.21957986  0.54073848  0.82562348  1
  N  N55  1  0.10510999  0.43799374  0.58754860  1
  N  N56  1  0.90449265  0.55100913  0.32353987  1
  N  N57  1  0.79766697  0.42121927  0.09235595  1
  N  N58  1  0.56015606  0.53280332  0.84590588  1
  N  N59  1  0.43017907  0.42097904  0.58267343  1
  N  N60  1  0.23346392  0.85193146  0.33321677  1
  N  N61  1  0.09756074  0.75019972  0.08158617  1
  N  N62  1  0.90136802  0.84858441  0.82336323  1
  N  N63  1  0.76870106  0.74615554  0.57903851  1
  N  N64  1  0.55548144  0.86654913  0.34903567  1
  N  N65  1  0.44596341  0.76133980  0.06238971  1
  N  N66  1  0.22589898  0.85038517  0.83756044  1
  N  N67  1  0.13547713  0.74645424  0.57403886  1
  N  N68  1  0.88742602  0.87170115  0.34573144  1
  N  N69  1  0.79626470  0.75552649  0.07622782  1
  N  N70  1  0.55848562  0.87474916  0.83277970  1
  N  N71  1  0.43485938  0.77724408  0.59272558  1
