# generated using pymatgen
data_Sc11Al25N36
_symmetry_space_group_name_H-M   'P 1'
_cell_length_a   10.23180016
_cell_length_b   10.22498924
_cell_length_c   9.17615555
_cell_angle_alpha   89.89519480
_cell_angle_beta   89.97529706
_cell_angle_gamma   59.96386216
_symmetry_Int_Tables_number   1
_chemical_formula_structural   Sc11Al25N36
_chemical_formula_sum   'Sc11 Al25 N36'
_cell_volume   831.08845651
_cell_formula_units_Z   1
loop_
 _symmetry_equiv_pos_site_id
 _symmetry_equiv_pos_as_xyz
  1  'x, y, z'
loop_
 _atom_site_type_symbol
 _atom_site_label
 _atom_site_symmetry_multiplicity
 _atom_site_fract_x
 _atom_site_fract_y
 _atom_site_fract_z
 _atom_site_occupancy
  Sc  Sc0  1  0.11418576  0.08918852  0.36231272  1
  Sc  Sc1  1  0.21754152  0.22059238  0.10726941  1
  Sc  Sc2  1  0.77841454  0.09136274  0.85248685  1
  Sc  Sc3  1  0.55592513  0.20838543  0.10986278  1
  Sc  Sc4  1  0.11195987  0.09779618  0.85110027  1
  Sc  Sc5  1  0.55080252  0.53807450  0.10454458  1
  Sc  Sc6  1  0.78400789  0.43063052  0.35225584  1
  Sc  Sc7  1  0.55863748  0.53204818  0.61173305  1
  Sc  Sc8  1  0.21987680  0.86441522  0.10337550  1
  Sc  Sc9  1  0.89494103  0.86283540  0.60057927  1
  Sc  Sc10  1  0.56073561  0.87053418  0.10731683  1
  Al  Al11  1  0.88705324  0.21310819  0.61945176  1
  Al  Al12  1  0.44521898  0.09600293  0.35529276  1
  Al  Al13  1  0.22126741  0.21387376  0.60094121  1
  Al  Al14  1  0.77464645  0.09518043  0.37181590  1
  Al  Al15  1  0.89029576  0.20004825  0.12163706  1
  Al  Al16  1  0.44402853  0.09845070  0.81792709  1
  Al  Al17  1  0.55093093  0.20933532  0.59808911  1
  Al  Al18  1  0.11013739  0.43919376  0.38401596  1
  Al  Al19  1  0.21033438  0.54205596  0.12578916  1
  Al  Al20  1  0.78242440  0.43138368  0.87680853  1
  Al  Al21  1  0.88880105  0.53715999  0.62830345  1
  Al  Al22  1  0.43393185  0.43092263  0.37614480  1
  Al  Al23  1  0.10978268  0.43742121  0.86145122  1
  Al  Al24  1  0.22152559  0.53867566  0.62370374  1
  Al  Al25  1  0.89904199  0.54444292  0.11748269  1
  Al  Al26  1  0.43097077  0.43051627  0.86735777  1
  Al  Al27  1  0.12169070  0.75070451  0.36901450  1
  Al  Al28  1  0.78411779  0.75670048  0.86910650  1
  Al  Al29  1  0.44084409  0.76175739  0.38420843  1
  Al  Al30  1  0.10955191  0.74849824  0.87527865  1
  Al  Al31  1  0.22281072  0.86494130  0.62503082  1
  Al  Al32  1  0.77812631  0.75629533  0.37355119  1
  Al  Al33  1  0.89223892  0.86638725  0.12831749  1
  Al  Al34  1  0.44660328  0.75905611  0.85536501  1
  Al  Al35  1  0.55669519  0.87037102  0.60882575  1
  N  N36  1  0.22426142  0.22256217  0.36558272  1
  N  N37  1  0.09965863  0.10221519  0.09695722  1
  N  N38  1  0.87849398  0.22634526  0.83205929  1
  N  N39  1  0.77076068  0.11026829  0.59221588  1
  N  N40  1  0.55618397  0.20825700  0.35912420  1
  N  N41  1  0.44340541  0.09646809  0.13445194  1
  N  N42  1  0.23072257  0.21851236  0.83568701  1
  N  N43  1  0.11187942  0.09083540  0.60227739  1
  N  N44  1  0.88031705  0.19567483  0.33522315  1
  N  N45  1  0.79657903  0.08023998  0.09170385  1
  N  N46  1  0.53870248  0.21454775  0.84224564  1
  N  N47  1  0.44696578  0.09273393  0.59688153  1
  N  N48  1  0.22112686  0.53663961  0.33564355  1
  N  N49  1  0.10164083  0.44985347  0.07065060  1
  N  N50  1  0.88654453  0.54069334  0.83675907  1
  N  N51  1  0.79753942  0.42158846  0.58478904  1
  N  N52  1  0.53834783  0.54613708  0.35255679  1
  N  N53  1  0.41583021  0.44095072  0.08005247  1
  N  N54  1  0.21965084  0.54125451  0.82877640  1
  N  N55  1  0.10500684  0.43749685  0.59427352  1
  N  N56  1  0.90474997  0.54952190  0.32770438  1
  N  N57  1  0.79751631  0.42121406  0.09355870  1
  N  N58  1  0.55991034  0.53218662  0.84812976  1
  N  N59  1  0.43062691  0.42068142  0.58754252  1
  N  N60  1  0.23342469  0.85236172  0.34055553  1
  N  N61  1  0.09902213  0.74991164  0.08801242  1
  N  N62  1  0.90064218  0.85055354  0.83120651  1
  N  N63  1  0.77029297  0.74693034  0.58356177  1
  N  N64  1  0.55542444  0.86631812  0.35671899  1
  N  N65  1  0.44607738  0.76137218  0.06558996  1
  N  N66  1  0.22424161  0.85175817  0.83951049  1
  N  N67  1  0.13283192  0.74731213  0.57716993  1
  N  N68  1  0.88758333  0.87094119  0.34588546  1
  N  N69  1  0.79493887  0.75519889  0.08167569  1
  N  N70  1  0.55854233  0.87655168  0.83546897  1
  N  N71  1  0.43565616  0.77622377  0.60044613  1
