# generated using pymatgen
data_Sc11Al25N36
_symmetry_space_group_name_H-M   'P 1'
_cell_length_a   9.86085376
_cell_length_b   9.86360576
_cell_length_c   10.18410366
_cell_angle_alpha   89.95907195
_cell_angle_beta   89.98059231
_cell_angle_gamma   59.95328355
_symmetry_Int_Tables_number   1
_chemical_formula_structural   Sc11Al25N36
_chemical_formula_sum   'Sc11 Al25 N36'
_cell_volume   857.43048566
_cell_formula_units_Z   1
loop_
 _symmetry_equiv_pos_site_id
 _symmetry_equiv_pos_as_xyz
  1  'x, y, z'
loop_
 _atom_site_type_symbol
 _atom_site_label
 _atom_site_symmetry_multiplicity
 _atom_site_fract_x
 _atom_site_fract_y
 _atom_site_fract_z
 _atom_site_occupancy
  Sc  Sc0  1  0.11286332  0.09494686  0.32155324  1
  Sc  Sc1  1  0.21646943  0.21576425  0.05297232  1
  Sc  Sc2  1  0.77227002  0.09755012  0.81398511  1
  Sc  Sc3  1  0.55038313  0.20995672  0.06772383  1
  Sc  Sc4  1  0.11362845  0.09221732  0.79074984  1
  Sc  Sc5  1  0.55501229  0.53622262  0.04098617  1
  Sc  Sc6  1  0.77639466  0.43407465  0.30882969  1
  Sc  Sc7  1  0.55322532  0.53722057  0.57260852  1
  Sc  Sc8  1  0.21830813  0.86822073  0.06212934  1
  Sc  Sc9  1  0.88996344  0.87034007  0.55825288  1
  Sc  Sc10  1  0.56032748  0.87004849  0.05649329  1
  Al  Al11  1  0.88506991  0.20633548  0.54676262  1
  Al  Al12  1  0.44607463  0.09602394  0.31178424  1
  Al  Al13  1  0.22553523  0.21409778  0.54966391  1
  Al  Al14  1  0.78039330  0.08873503  0.29692464  1
  Al  Al15  1  0.89064507  0.20934579  0.05144313  1
  Al  Al16  1  0.44366853  0.09728239  0.78946793  1
  Al  Al17  1  0.55306027  0.20659145  0.54404057  1
  Al  Al18  1  0.11254782  0.43870317  0.30350927  1
  Al  Al19  1  0.21246084  0.54323367  0.05251741  1
  Al  Al20  1  0.78650406  0.42917899  0.79523191  1
  Al  Al21  1  0.89568489  0.53797606  0.55216419  1
  Al  Al22  1  0.43400110  0.43591896  0.30597077  1
  Al  Al23  1  0.11119342  0.43288806  0.79691093  1
  Al  Al24  1  0.22183637  0.53520569  0.54965748  1
  Al  Al25  1  0.89357685  0.54029844  0.04983165  1
  Al  Al26  1  0.43279471  0.42385267  0.79441489  1
  Al  Al27  1  0.10979984  0.75335286  0.30091531  1
  Al  Al28  1  0.77798370  0.75401358  0.79903326  1
  Al  Al29  1  0.44567195  0.75565785  0.30871354  1
  Al  Al30  1  0.12122931  0.74790187  0.80040877  1
  Al  Al31  1  0.22634866  0.86500104  0.54444056  1
  Al  Al32  1  0.78382810  0.76099508  0.30140559  1
  Al  Al33  1  0.89655305  0.86022294  0.05127840  1
  Al  Al34  1  0.44244527  0.76678784  0.79034523  1
  Al  Al35  1  0.55426311  0.87354466  0.54973798  1
  N  N36  1  0.23082724  0.22399624  0.36273944  1
  N  N37  1  0.09615685  0.10429834  0.11043574  1
  N  N38  1  0.88334107  0.22401209  0.86385202  1
  N  N39  1  0.76584847  0.11353561  0.60561592  1
  N  N40  1  0.55797744  0.20650993  0.35049286  1
  N  N41  1  0.44009297  0.09342240  0.12830116  1
  N  N42  1  0.22881200  0.21416118  0.84088213  1
  N  N43  1  0.11233948  0.09274642  0.57684365  1
  N  N44  1  0.87358180  0.19959641  0.36257429  1
  N  N45  1  0.79783961  0.08201698  0.10139267  1
  N  N46  1  0.53304435  0.21500427  0.85832610  1
  N  N47  1  0.44841088  0.09358383  0.59923583  1
  N  N48  1  0.21979474  0.54168328  0.36313080  1
  N  N49  1  0.10035084  0.44770797  0.11515762  1
  N  N50  1  0.89124316  0.53865415  0.85798543  1
  N  N51  1  0.80393169  0.41606219  0.60527486  1
  N  N52  1  0.53942674  0.54345640  0.36160830  1
  N  N53  1  0.41964927  0.44512926  0.11859473  1
  N  N54  1  0.22174721  0.53637204  0.86111762  1
  N  N55  1  0.11032313  0.43242395  0.60924760  1
  N  N56  1  0.90056823  0.55088990  0.36602015  1
  N  N57  1  0.79178423  0.42477205  0.10068540  1
  N  N58  1  0.55559848  0.53819642  0.82213722  1
  N  N59  1  0.43052407  0.41359156  0.60821041  1
  N  N60  1  0.22891422  0.85007525  0.35559857  1
  N  N61  1  0.10174602  0.74985290  0.11413569  1
  N  N62  1  0.90128996  0.84899938  0.85536932  1
  N  N63  1  0.76816364  0.75057874  0.61200179  1
  N  N64  1  0.55872246  0.86964898  0.35864133  1
  N  N65  1  0.45013755  0.75426522  0.12336158  1
  N  N66  1  0.23228414  0.85284155  0.85264819  1
  N  N67  1  0.13257898  0.74805152  0.61171047  1
  N  N68  1  0.88847978  0.87325499  0.34992911  1
  N  N69  1  0.79519904  0.75109199  0.11260869  1
  N  N70  1  0.55380804  0.87507019  0.84469342  1
  N  N71  1  0.43264679  0.78484686  0.60503904  1
