# generated using pymatgen
data_Sc11Al25N36
_symmetry_space_group_name_H-M   'P 1'
_cell_length_a   9.86245410
_cell_length_b   9.87065748
_cell_length_c   10.17945497
_cell_angle_alpha   89.98867826
_cell_angle_beta   89.94698030
_cell_angle_gamma   59.95967420
_symmetry_Int_Tables_number   1
_chemical_formula_structural   Sc11Al25N36
_chemical_formula_sum   'Sc11 Al25 N36'
_cell_volume   857.84615482
_cell_formula_units_Z   1
loop_
 _symmetry_equiv_pos_site_id
 _symmetry_equiv_pos_as_xyz
  1  'x, y, z'
loop_
 _atom_site_type_symbol
 _atom_site_label
 _atom_site_symmetry_multiplicity
 _atom_site_fract_x
 _atom_site_fract_y
 _atom_site_fract_z
 _atom_site_occupancy
  Sc  Sc0  1  0.11336935  0.09082165  0.40913873  1
  Sc  Sc1  1  0.21707516  0.21615757  0.14490377  1
  Sc  Sc2  1  0.77762662  0.09028465  0.88988857  1
  Sc  Sc3  1  0.55535581  0.20738917  0.14846461  1
  Sc  Sc4  1  0.11279344  0.09615898  0.87860673  1
  Sc  Sc5  1  0.55068711  0.53907761  0.14182728  1
  Sc  Sc6  1  0.78279695  0.42984054  0.38721960  1
  Sc  Sc7  1  0.55720869  0.53537020  0.64328847  1
  Sc  Sc8  1  0.21525994  0.87013187  0.14018964  1
  Sc  Sc9  1  0.89256150  0.86529986  0.63192150  1
  Sc  Sc10  1  0.56009414  0.87217792  0.14436390  1
  Al  Al11  1  0.88543011  0.21346216  0.65351772  1
  Al  Al12  1  0.44648033  0.09531344  0.41161458  1
  Al  Al13  1  0.22476278  0.21321091  0.65112781  1
  Al  Al14  1  0.77279126  0.09683287  0.40329092  1
  Al  Al15  1  0.89061233  0.20076133  0.14887158  1
  Al  Al16  1  0.44302834  0.09954193  0.88897976  1
  Al  Al17  1  0.54768236  0.20991215  0.64848755  1
  Al  Al18  1  0.11381292  0.43552169  0.40366843  1
  Al  Al19  1  0.21167539  0.54267377  0.14811419  1
  Al  Al20  1  0.78015963  0.43241935  0.90462450  1
  Al  Al21  1  0.89149199  0.53543675  0.65236194  1
  Al  Al22  1  0.43532063  0.42763222  0.40494293  1
  Al  Al23  1  0.10976691  0.43634016  0.89542546  1
  Al  Al24  1  0.22218323  0.53556172  0.65050309  1
  Al  Al25  1  0.89719798  0.54379560  0.14531240  1
  Al  Al26  1  0.43380323  0.43197573  0.89639772  1
  Al  Al27  1  0.12094042  0.75115953  0.39978518  1
  Al  Al28  1  0.78356958  0.75506425  0.89710879  1
  Al  Al29  1  0.44041209  0.76472843  0.40862825  1
  Al  Al30  1  0.11202753  0.74811648  0.89902383  1
  Al  Al31  1  0.22698893  0.86319419  0.65528081  1
  Al  Al32  1  0.77698644  0.75913316  0.40136260  1
  Al  Al33  1  0.89297712  0.86576236  0.15374204  1
  Al  Al34  1  0.44793020  0.75701784  0.89334189  1
  Al  Al35  1  0.55361029  0.87297622  0.65024826  1
  N  N36  1  0.23040645  0.21610753  0.35740571  1
  N  N37  1  0.09591927  0.10455041  0.08974005  1
  N  N38  1  0.87361530  0.22849721  0.83788966  1
  N  N39  1  0.76794951  0.11452918  0.59628930  1
  N  N40  1  0.55376839  0.20466699  0.35827594  1
  N  N41  1  0.44416979  0.09682669  0.07375406  1
  N  N42  1  0.22879122  0.22246252  0.83840708  1
  N  N43  1  0.11261285  0.09169111  0.62332289  1
  N  N44  1  0.88266936  0.19295283  0.33644327  1
  N  N45  1  0.79561321  0.08077857  0.09876330  1
  N  N46  1  0.53864536  0.21784376  0.83761608  1
  N  N47  1  0.44589982  0.09280404  0.59981542  1
  N  N48  1  0.22268077  0.53747268  0.33924316  1
  N  N49  1  0.10224333  0.44706224  0.08166734  1
  N  N50  1  0.88842121  0.53883630  0.84219911  1
  N  N51  1  0.79940979  0.41905192  0.59303239  1
  N  N52  1  0.53681155  0.54682354  0.36019465  1
  N  N53  1  0.41907246  0.43829129  0.08305948  1
  N  N54  1  0.22063276  0.53885507  0.83716404  1
  N  N55  1  0.10833485  0.43297569  0.59362579  1
  N  N56  1  0.90347857  0.55068869  0.33390686  1
  N  N57  1  0.79670345  0.42141924  0.09907931  1
  N  N58  1  0.55868541  0.53518497  0.85769242  1
  N  N59  1  0.43118146  0.41935116  0.59121267  1
  N  N60  1  0.23000554  0.85668555  0.34912146  1
  N  N61  1  0.09924591  0.75068389  0.08855693  1
  N  N62  1  0.90053897  0.84949918  0.83821326  1
  N  N63  1  0.76720641  0.74703138  0.58866956  1
  N  N64  1  0.55325859  0.87413035  0.35617206  1
  N  N65  1  0.44430610  0.76354135  0.07706183  1
  N  N66  1  0.23101152  0.84641001  0.84382384  1
  N  N67  1  0.13517424  0.74618533  0.58679875  1
  N  N68  1  0.88926218  0.87104529  0.35547822  1
  N  N69  1  0.79451788  0.75471429  0.08646614  1
  N  N70  1  0.55789256  0.87194667  0.84152799  1
  N  N71  1  0.43537014  0.77924310  0.59626450  1
