# generated using pymatgen
data_Sc11Al25N36
_symmetry_space_group_name_H-M   'P 1'
_cell_length_a   10.39835755
_cell_length_b   10.39094018
_cell_length_c   8.69824078
_cell_angle_alpha   89.96256308
_cell_angle_beta   89.98591683
_cell_angle_gamma   59.97522929
_symmetry_Int_Tables_number   1
_chemical_formula_structural   Sc11Al25N36
_chemical_formula_sum   'Sc11 Al25 N36'
_cell_volume   813.71645269
_cell_formula_units_Z   1
loop_
 _symmetry_equiv_pos_site_id
 _symmetry_equiv_pos_as_xyz
  1  'x, y, z'
loop_
 _atom_site_type_symbol
 _atom_site_label
 _atom_site_symmetry_multiplicity
 _atom_site_fract_x
 _atom_site_fract_y
 _atom_site_fract_z
 _atom_site_occupancy
  Sc  Sc0  1  0.11312938  0.09188148  0.35749814  1
  Sc  Sc1  1  0.21926730  0.21879083  0.10340862  1
  Sc  Sc2  1  0.77660512  0.09406411  0.85239953  1
  Sc  Sc3  1  0.55294594  0.20902878  0.10757179  1
  Sc  Sc4  1  0.11294460  0.09552860  0.84723105  1
  Sc  Sc5  1  0.55403166  0.53540072  0.09933864  1
  Sc  Sc6  1  0.78432390  0.43056855  0.35163539  1
  Sc  Sc7  1  0.55428485  0.53543343  0.60667354  1
  Sc  Sc8  1  0.21931102  0.86359294  0.10165534  1
  Sc  Sc9  1  0.89108903  0.86718168  0.59878460  1
  Sc  Sc10  1  0.56073045  0.87081142  0.10206019  1
  Al  Al11  1  0.88624339  0.20904521  0.60226155  1
  Al  Al12  1  0.44525779  0.09648570  0.35892394  1
  Al  Al13  1  0.22303002  0.21429949  0.60069283  1
  Al  Al14  1  0.77741314  0.09303894  0.35281905  1
  Al  Al15  1  0.89031836  0.20540279  0.10224105  1
  Al  Al16  1  0.44415086  0.09746762  0.82687734  1
  Al  Al17  1  0.55170400  0.20890041  0.59606369  1
  Al  Al18  1  0.11129031  0.43706904  0.36963584  1
  Al  Al19  1  0.21130026  0.54268901  0.11042334  1
  Al  Al20  1  0.78333575  0.43072225  0.85303665  1
  Al  Al21  1  0.89156939  0.53857530  0.60966777  1
  Al  Al22  1  0.43401640  0.43126739  0.36076723  1
  Al  Al23  1  0.11036425  0.43603068  0.85003009  1
  Al  Al24  1  0.22165271  0.53683488  0.60783361  1
  Al  Al25  1  0.89615692  0.54188639  0.09853165  1
  Al  Al26  1  0.43203214  0.42871268  0.85198488  1
  Al  Al27  1  0.11511233  0.75206216  0.35667395  1
  Al  Al28  1  0.78083431  0.75629173  0.84952478  1
  Al  Al29  1  0.44321588  0.76082383  0.36884070  1
  Al  Al30  1  0.11407204  0.74962333  0.85113895  1
  Al  Al31  1  0.22473320  0.86477796  0.60553121  1
  Al  Al32  1  0.78117187  0.75800405  0.35402897  1
  Al  Al33  1  0.89442537  0.86335414  0.10679088  1
  Al  Al34  1  0.44414347  0.76132958  0.84938502  1
  Al  Al35  1  0.55568492  0.87125257  0.60107551  1
  N  N36  1  0.22530198  0.22197851  0.36674485  1
  N  N37  1  0.10068642  0.10072909  0.10217823  1
  N  N38  1  0.88036984  0.22153514  0.85023085  1
  N  N39  1  0.76983832  0.10821849  0.59649890  1
  N  N40  1  0.55552445  0.20860041  0.36256464  1
  N  N41  1  0.44371279  0.09517127  0.12584688  1
  N  N42  1  0.23146775  0.21653054  0.83923133  1
  N  N43  1  0.11100124  0.09300705  0.60239218  1
  N  N44  1  0.88068492  0.19920651  0.35446834  1
  N  N45  1  0.79405934  0.08446434  0.10881086  1
  N  N46  1  0.53909325  0.21311999  0.84551751  1
  N  N47  1  0.44705083  0.09305740  0.59693349  1
  N  N48  1  0.22047866  0.53782959  0.35288038  1
  N  N49  1  0.10191461  0.44755567  0.08869074  1
  N  N50  1  0.88937594  0.54099681  0.84833743  1
  N  N51  1  0.79478176  0.42232322  0.60707799  1
  N  N52  1  0.54076943  0.54493058  0.35421767  1
  N  N53  1  0.41835876  0.43936546  0.09803292  1
  N  N54  1  0.22007716  0.53978720  0.84174473  1
  N  N55  1  0.10746705  0.43444367  0.60456030  1
  N  N56  1  0.90218579  0.54756309  0.35217720  1
  N  N57  1  0.79667332  0.42279230  0.09540878  1
  N  N58  1  0.55670114  0.53448035  0.85018302  1
  N  N59  1  0.43234229  0.42034003  0.59987672  1
  N  N60  1  0.23099569  0.85328156  0.35930964  1
  N  N61  1  0.10270372  0.74959372  0.10482589  1
  N  N62  1  0.89904432  0.85356637  0.85410201  1
  N  N63  1  0.77039943  0.75139763  0.60221033  1
  N  N64  1  0.55742335  0.86691347  0.36355657  1
  N  N65  1  0.44533775  0.76079304  0.08536679  1
  N  N66  1  0.22591170  0.85350383  0.84195053  1
  N  N67  1  0.12648648  0.74937769  0.59572560  1
  N  N68  1  0.88837039  0.87043258  0.34643336  1
  N  N69  1  0.79313351  0.75264307  0.10089902  1
  N  N70  1  0.55595590  0.87743258  0.84082001  1
  N  N71  1  0.43762611  0.77546624  0.60555318  1
