# generated using pymatgen
data_Sc11Al25N36
_symmetry_space_group_name_H-M   'P 1'
_cell_length_a   10.26029052
_cell_length_b   10.25294241
_cell_length_c   9.08015036
_cell_angle_alpha   89.93175364
_cell_angle_beta   89.96261676
_cell_angle_gamma   60.00260228
_symmetry_Int_Tables_number   1
_chemical_formula_structural   Sc11Al25N36
_chemical_formula_sum   'Sc11 Al25 N36'
_cell_volume   827.26171621
_cell_formula_units_Z   1
loop_
 _symmetry_equiv_pos_site_id
 _symmetry_equiv_pos_as_xyz
  1  'x, y, z'
loop_
 _atom_site_type_symbol
 _atom_site_label
 _atom_site_symmetry_multiplicity
 _atom_site_fract_x
 _atom_site_fract_y
 _atom_site_fract_z
 _atom_site_occupancy
  Sc  Sc0  1  0.11263106  0.09162856  0.35477849  1
  Sc  Sc1  1  0.22012500  0.21718052  0.09842933  1
  Sc  Sc2  1  0.77303013  0.09646858  0.85216716  1
  Sc  Sc3  1  0.55053083  0.20972174  0.10643705  1
  Sc  Sc4  1  0.11378592  0.09554025  0.84380749  1
  Sc  Sc5  1  0.55693804  0.53354493  0.09564104  1
  Sc  Sc6  1  0.78430208  0.43049094  0.35023288  1
  Sc  Sc7  1  0.55323909  0.53482917  0.60514422  1
  Sc  Sc8  1  0.21896506  0.86264038  0.09983112  1
  Sc  Sc9  1  0.88827466  0.87025518  0.59649816  1
  Sc  Sc10  1  0.56070770  0.87109491  0.09844066  1
  Al  Al11  1  0.88586663  0.20629610  0.58876766  1
  Al  Al12  1  0.44494599  0.09599865  0.35528497  1
  Al  Al13  1  0.22046257  0.21674952  0.58880061  1
  Al  Al14  1  0.78052892  0.08940387  0.33658720  1
  Al  Al15  1  0.89050050  0.20904845  0.08467861  1
  Al  Al16  1  0.44376142  0.09936939  0.81809827  1
  Al  Al17  1  0.55378509  0.20904175  0.57930436  1
  Al  Al18  1  0.11026094  0.44086869  0.33495123  1
  Al  Al19  1  0.21049417  0.54486655  0.07994208  1
  Al  Al20  1  0.78317484  0.43138748  0.83482814  1
  Al  Al21  1  0.89526483  0.53932228  0.58783613  1
  Al  Al22  1  0.43074058  0.43631872  0.33857045  1
  Al  Al23  1  0.11148424  0.43330268  0.83062413  1
  Al  Al24  1  0.22144930  0.53391133  0.58342279  1
  Al  Al25  1  0.89463942  0.54068164  0.07888049  1
  Al  Al26  1  0.43365839  0.42449469  0.83212089  1
  Al  Al27  1  0.11159361  0.75190537  0.34092557  1
  Al  Al28  1  0.77897575  0.75529143  0.83315594  1
  Al  Al29  1  0.44330693  0.76074070  0.37795083  1
  Al  Al30  1  0.11730414  0.74816480  0.82732163  1
  Al  Al31  1  0.22381232  0.86697905  0.60324061  1
  Al  Al32  1  0.78433712  0.75867024  0.33544507  1
  Al  Al33  1  0.89674448  0.86071440  0.08892939  1
  Al  Al34  1  0.44474799  0.76100981  0.85255019  1
  Al  Al35  1  0.55675767  0.87134742  0.59621031  1
  N  N36  1  0.22386234  0.22416471  0.37042539  1
  N  N37  1  0.10013556  0.10022599  0.10535492  1
  N  N38  1  0.87991362  0.22410441  0.86577344  1
  N  N39  1  0.76619449  0.11114647  0.61304926  1
  N  N40  1  0.55784377  0.20911981  0.36371821  1
  N  N41  1  0.44311250  0.09388682  0.14210277  1
  N  N42  1  0.23213782  0.21664257  0.85084514  1
  N  N43  1  0.11172582  0.09354433  0.60312418  1
  N  N44  1  0.87948323  0.19701549  0.37177548  1
  N  N45  1  0.79649487  0.08330013  0.11135104  1
  N  N46  1  0.53586517  0.21341502  0.86497023  1
  N  N47  1  0.44674999  0.09509428  0.60020712  1
  N  N48  1  0.22008786  0.53933312  0.37494240  1
  N  N49  1  0.09983515  0.44983444  0.12057257  1
  N  N50  1  0.89123340  0.53930275  0.86467717  1
  N  N51  1  0.79755793  0.42100794  0.61238118  1
  N  N52  1  0.54083842  0.54564922  0.35843910  1
  N  N53  1  0.41578133  0.44239500  0.12389605  1
  N  N54  1  0.22018100  0.53846329  0.86683922  1
  N  N55  1  0.10910001  0.43313079  0.62084742  1
  N  N56  1  0.90173504  0.55054552  0.37635727  1
  N  N57  1  0.79790570  0.42292643  0.11125406  1
  N  N58  1  0.55778268  0.53240760  0.84840965  1
  N  N59  1  0.43136570  0.41733429  0.61721268  1
  N  N60  1  0.23038605  0.85186749  0.36115789  1
  N  N61  1  0.10151376  0.74858387  0.12525471  1
  N  N62  1  0.90103147  0.85047100  0.86112334  1
  N  N63  1  0.76967984  0.75091836  0.62033975  1
  N  N64  1  0.55980740  0.86551007  0.36754905  1
  N  N65  1  0.44635323  0.75913772  0.07668181  1
  N  N66  1  0.22642002  0.85379769  0.84591578  1
  N  N67  1  0.12788687  0.74757358  0.61257153  1
  N  N68  1  0.88715506  0.87265036  0.35976339  1
  N  N69  1  0.79544455  0.75062047  0.11807703  1
  N  N70  1  0.55439120  0.87965195  0.84649722  1
  N  N71  1  0.43707753  0.77660500  0.60510356  1
