# generated using pymatgen
data_Sc11Al25N36
_symmetry_space_group_name_H-M   'P 1'
_cell_length_a   9.89631301
_cell_length_b   9.89017730
_cell_length_c   10.11287857
_cell_angle_alpha   89.99506558
_cell_angle_beta   89.92417948
_cell_angle_gamma   59.91695113
_symmetry_Int_Tables_number   1
_chemical_formula_structural   Sc11Al25N36
_chemical_formula_sum   'Sc11 Al25 N36'
_cell_volume   856.48231026
_cell_formula_units_Z   1
loop_
 _symmetry_equiv_pos_site_id
 _symmetry_equiv_pos_as_xyz
  1  'x, y, z'
loop_
 _atom_site_type_symbol
 _atom_site_label
 _atom_site_symmetry_multiplicity
 _atom_site_fract_x
 _atom_site_fract_y
 _atom_site_fract_z
 _atom_site_occupancy
  Sc  Sc0  1  0.11272170  0.09500073  0.34453350  1
  Sc  Sc1  1  0.21712817  0.21517457  0.07644766  1
  Sc  Sc2  1  0.77148365  0.09878197  0.83923756  1
  Sc  Sc3  1  0.55001752  0.20952184  0.09284075  1
  Sc  Sc4  1  0.11322401  0.09280678  0.81517755  1
  Sc  Sc5  1  0.55761318  0.53315286  0.06503453  1
  Sc  Sc6  1  0.77696037  0.43394730  0.33460087  1
  Sc  Sc7  1  0.55237369  0.53721684  0.59691592  1
  Sc  Sc8  1  0.21903015  0.86671653  0.08552190  1
  Sc  Sc9  1  0.88908261  0.87146721  0.58313495  1
  Sc  Sc10  1  0.56128214  0.86927639  0.08010122  1
  Al  Al11  1  0.88465401  0.20622213  0.57026977  1
  Al  Al12  1  0.44589763  0.09581472  0.33536911  1
  Al  Al13  1  0.22511807  0.21448499  0.57318299  1
  Al  Al14  1  0.78091884  0.08826472  0.31953747  1
  Al  Al15  1  0.89144535  0.20938428  0.07501597  1
  Al  Al16  1  0.44353549  0.09774611  0.81256248  1
  Al  Al17  1  0.55288141  0.20699400  0.56679575  1
  Al  Al18  1  0.11278377  0.43868711  0.32609912  1
  Al  Al19  1  0.21240058  0.54310496  0.07509319  1
  Al  Al20  1  0.78664422  0.42969159  0.81743557  1
  Al  Al21  1  0.89582782  0.53864376  0.57491831  1
  Al  Al22  1  0.43343176  0.43654071  0.32887373  1
  Al  Al23  1  0.11075176  0.43330049  0.82009726  1
  Al  Al24  1  0.22127366  0.53537267  0.57250622  1
  Al  Al25  1  0.89414981  0.53981074  0.07332769  1
  Al  Al26  1  0.43190386  0.42352586  0.81789127  1
  Al  Al27  1  0.10930055  0.75342089  0.32406874  1
  Al  Al28  1  0.77755880  0.75422542  0.82193145  1
  Al  Al29  1  0.44603274  0.75547715  0.33280489  1
  Al  Al30  1  0.12082624  0.74809561  0.82267498  1
  Al  Al31  1  0.22577658  0.86528668  0.56776329  1
  Al  Al32  1  0.78473827  0.76089383  0.32439190  1
  Al  Al33  1  0.89701014  0.85973288  0.07320140  1
  Al  Al34  1  0.44199274  0.76691687  0.81490014  1
  Al  Al35  1  0.55428899  0.87347097  0.57311681  1
  N  N36  1  0.23049705  0.22398674  0.38486706  1
  N  N37  1  0.09706247  0.10322466  0.13161372  1
  N  N38  1  0.88262235  0.22542124  0.88612658  1
  N  N39  1  0.76459041  0.11500285  0.62913251  1
  N  N40  1  0.55809228  0.20643589  0.37183364  1
  N  N41  1  0.44005400  0.09269327  0.15081241  1
  N  N42  1  0.22873910  0.21468036  0.86291239  1
  N  N43  1  0.11173166  0.09304550  0.59984617  1
  N  N44  1  0.87396522  0.19869122  0.38475297  1
  N  N45  1  0.79813383  0.08187251  0.12230308  1
  N  N46  1  0.53225301  0.21533128  0.88180501  1
  N  N47  1  0.44831747  0.09392485  0.62102448  1
  N  N48  1  0.21961658  0.54170402  0.38516569  1
  N  N49  1  0.10088239  0.44738015  0.13682912  1
  N  N50  1  0.89077391  0.53900778  0.88022951  1
  N  N51  1  0.80341235  0.41695386  0.62595996  1
  N  N52  1  0.53923868  0.54325651  0.38381367  1
  N  N53  1  0.41902013  0.44506598  0.14054255  1
  N  N54  1  0.22093097  0.53693442  0.88297119  1
  N  N55  1  0.10983810  0.43287670  0.63155110  1
  N  N56  1  0.90132539  0.55116187  0.38796988  1
  N  N57  1  0.79388511  0.42390729  0.12525450  1
  N  N58  1  0.55569565  0.53785078  0.84453871  1
  N  N59  1  0.42960306  0.41378075  0.63046462  1
  N  N60  1  0.22883432  0.85025043  0.37692175  1
  N  N61  1  0.10130153  0.74959509  0.13612904  1
  N  N62  1  0.90085159  0.84935864  0.87598742  1
  N  N63  1  0.76785826  0.75090124  0.63399643  1
  N  N64  1  0.55921699  0.86918761  0.38050566  1
  N  N65  1  0.45119620  0.75272898  0.14269698  1
  N  N66  1  0.23106590  0.85320353  0.87422445  1
  N  N67  1  0.13200112  0.74826534  0.63310307  1
  N  N68  1  0.88834198  0.87357693  0.37315696  1
  N  N69  1  0.79623275  0.75087112  0.13453884  1
  N  N70  1  0.55352566  0.87563183  0.86683132  1
  N  N71  1  0.43245128  0.78471366  0.62674023  1
