# generated using pymatgen
data_Sc11Al25N36
_symmetry_space_group_name_H-M   'P 1'
_cell_length_a   10.18231760
_cell_length_b   10.17726356
_cell_length_c   9.32076543
_cell_angle_alpha   89.88753969
_cell_angle_beta   89.96845963
_cell_angle_gamma   59.96830111
_symmetry_Int_Tables_number   1
_chemical_formula_structural   Sc11Al25N36
_chemical_formula_sum   'Sc11 Al25 N36'
_cell_volume   836.21926746
_cell_formula_units_Z   1
loop_
 _symmetry_equiv_pos_site_id
 _symmetry_equiv_pos_as_xyz
  1  'x, y, z'
loop_
 _atom_site_type_symbol
 _atom_site_label
 _atom_site_symmetry_multiplicity
 _atom_site_fract_x
 _atom_site_fract_y
 _atom_site_fract_z
 _atom_site_occupancy
  Sc  Sc0  1  0.11400921  0.08840231  0.36483352  1
  Sc  Sc1  1  0.21671198  0.22091585  0.11005395  1
  Sc  Sc2  1  0.77891708  0.09069259  0.85290261  1
  Sc  Sc3  1  0.55730712  0.20826396  0.11159340  1
  Sc  Sc4  1  0.11194709  0.09832926  0.85262613  1
  Sc  Sc5  1  0.55031793  0.53840482  0.10700428  1
  Sc  Sc6  1  0.78399991  0.43019000  0.35279062  1
  Sc  Sc7  1  0.55918508  0.53213874  0.61289366  1
  Sc  Sc8  1  0.21924738  0.86479237  0.10430930  1
  Sc  Sc9  1  0.89534022  0.86203857  0.60109965  1
  Sc  Sc10  1  0.56117533  0.87011370  0.10960160  1
  Al  Al11  1  0.88725020  0.21406654  0.62296719  1
  Al  Al12  1  0.44576665  0.09557904  0.35348938  1
  Al  Al13  1  0.22096307  0.21395048  0.60170736  1
  Al  Al14  1  0.77395094  0.09598738  0.37734505  1
  Al  Al15  1  0.89020320  0.19890327  0.12359160  1
  Al  Al16  1  0.44338951  0.09888557  0.81709287  1
  Al  Al17  1  0.55026807  0.20970804  0.60198115  1
  Al  Al18  1  0.11017565  0.43965217  0.38490682  1
  Al  Al19  1  0.21014791  0.54255616  0.12709019  1
  Al  Al20  1  0.78229708  0.43172391  0.88070597  1
  Al  Al21  1  0.88891573  0.53661217  0.62967517  1
  Al  Al22  1  0.43402261  0.43053189  0.37858865  1
  Al  Al23  1  0.10947133  0.43757230  0.86485956  1
  Al  Al24  1  0.22158708  0.53834873  0.62613231  1
  Al  Al25  1  0.89897933  0.54526101  0.12019547  1
  Al  Al26  1  0.43097060  0.43105549  0.87002897  1
  Al  Al27  1  0.12294049  0.75038097  0.37163552  1
  Al  Al28  1  0.78479563  0.75635714  0.87125221  1
  Al  Al29  1  0.44046019  0.76216756  0.38565170  1
  Al  Al30  1  0.10891774  0.74833093  0.87704582  1
  Al  Al31  1  0.22328404  0.86463027  0.62921557  1
  Al  Al32  1  0.77716535  0.75651055  0.37609219  1
  Al  Al33  1  0.89211299  0.86688759  0.13142151  1
  Al  Al34  1  0.44723322  0.75822046  0.85894164  1
  Al  Al35  1  0.55645963  0.87014540  0.61292808  1
  N  N36  1  0.22434293  0.22205941  0.36425693  1
  N  N37  1  0.09911838  0.10261019  0.09429064  1
  N  N38  1  0.87788283  0.22776462  0.82954674  1
  N  N39  1  0.77077731  0.11093799  0.59164667  1
  N  N40  1  0.55641728  0.20800793  0.35724905  1
  N  N41  1  0.44352754  0.09691958  0.13477187  1
  N  N42  1  0.22994242  0.21961579  0.83455516  1
  N  N43  1  0.11193827  0.09050696  0.60234091  1
  N  N44  1  0.88002699  0.19446918  0.33137847  1
  N  N45  1  0.79766079  0.07908770  0.08633680  1
  N  N46  1  0.53859564  0.21525169  0.83970268  1
  N  N47  1  0.44679111  0.09255236  0.59814633  1
  N  N48  1  0.22141660  0.53679261  0.33274682  1
  N  N49  1  0.10118818  0.45045893  0.06931321  1
  N  N50  1  0.88654086  0.54033347  0.83434630  1
  N  N51  1  0.79842602  0.42102957  0.58057546  1
  N  N52  1  0.53811297  0.54605541  0.35152880  1
  N  N53  1  0.41552684  0.44105463  0.07716487  1
  N  N54  1  0.21958338  0.54104437  0.82718894  1
  N  N55  1  0.10500371  0.43782785  0.59087474  1
  N  N56  1  0.90464362  0.55034340  0.32544021  1
  N  N57  1  0.79762875  0.42119050  0.09313486  1
  N  N58  1  0.56014149  0.53241263  0.84719136  1
  N  N59  1  0.43030171  0.42094100  0.58504408  1
  N  N60  1  0.23356583  0.85202816  0.33633189  1
  N  N61  1  0.09809650  0.75010220  0.08465849  1
  N  N62  1  0.90103224  0.84946105  0.82676144  1
  N  N63  1  0.76954248  0.74641940  0.58115020  1
  N  N64  1  0.55538137  0.86638204  0.35308480  1
  N  N65  1  0.44608534  0.76143349  0.06358707  1
  N  N66  1  0.22493306  0.85112169  0.83876311  1
  N  N67  1  0.13435088  0.74682729  0.57541989  1
  N  N68  1  0.88744221  0.87139494  0.34595814  1
  N  N69  1  0.79561455  0.75547065  0.07878688  1
  N  N70  1  0.55854838  0.87576620  0.83405610  1
  N  N71  1  0.43518275  0.77667616  0.59681557  1
