# generated using pymatgen
data_Sc11Al25N36
_symmetry_space_group_name_H-M   'P 1'
_cell_length_a   10.27963043
_cell_length_b   10.27224690
_cell_length_c   9.03624791
_cell_angle_alpha   89.90946119
_cell_angle_beta   89.98180736
_cell_angle_gamma   59.96129613
_symmetry_Int_Tables_number   1
_chemical_formula_structural   Sc11Al25N36
_chemical_formula_sum   'Sc11 Al25 N36'
_cell_volume   826.02197803
_cell_formula_units_Z   1
loop_
 _symmetry_equiv_pos_site_id
 _symmetry_equiv_pos_as_xyz
  1  'x, y, z'
loop_
 _atom_site_type_symbol
 _atom_site_label
 _atom_site_symmetry_multiplicity
 _atom_site_fract_x
 _atom_site_fract_y
 _atom_site_fract_z
 _atom_site_occupancy
  Sc  Sc0  1  0.11419287  0.09004442  0.36056181  1
  Sc  Sc1  1  0.21804678  0.22033768  0.10543081  1
  Sc  Sc2  1  0.77794276  0.09211846  0.85240060  1
  Sc  Sc3  1  0.55459172  0.20869086  0.10878557  1
  Sc  Sc4  1  0.11209193  0.09709297  0.84977665  1
  Sc  Sc5  1  0.55148927  0.53753865  0.10261259  1
  Sc  Sc6  1  0.78405652  0.43094959  0.35212285  1
  Sc  Sc7  1  0.55772608  0.53241236  0.61055836  1
  Sc  Sc8  1  0.22029389  0.86415679  0.10291398  1
  Sc  Sc9  1  0.89425908  0.86392199  0.60023831  1
  Sc  Sc10  1  0.56044685  0.87078623  0.10548708  1
  Al  Al11  1  0.88682063  0.21193871  0.61536294  1
  Al  Al12  1  0.44489939  0.09639301  0.35670019  1
  Al  Al13  1  0.22171578  0.21379640  0.60094883  1
  Al  Al14  1  0.77534382  0.09436595  0.36527263  1
  Al  Al15  1  0.89039716  0.20151475  0.11865570  1
  Al  Al16  1  0.44440796  0.09801779  0.81950568  1
  Al  Al17  1  0.55152159  0.20905338  0.59643273  1
  Al  Al18  1  0.11022184  0.43860629  0.38261128  1
  Al  Al19  1  0.21062260  0.54165072  0.12416705  1
  Al  Al20  1  0.78247808  0.43115400  0.87154139  1
  Al  Al21  1  0.88895537  0.53773447  0.62636624  1
  Al  Al22  1  0.43403549  0.43095919  0.37338440  1
  Al  Al23  1  0.11008326  0.43725734  0.85829920  1
  Al  Al24  1  0.22146298  0.53882554  0.62078746  1
  Al  Al25  1  0.89886146  0.54357087  0.11443838  1
  Al  Al26  1  0.43099200  0.43011757  0.86427781  1
  Al  Al27  1  0.12007250  0.75107513  0.36635119  1
  Al  Al28  1  0.78340858  0.75684453  0.86652549  1
  Al  Al29  1  0.44147194  0.76140901  0.38187548  1
  Al  Al30  1  0.11055820  0.74863945  0.87260907  1
  Al  Al31  1  0.22274101  0.86507729  0.61983268  1
  Al  Al32  1  0.77906196  0.75633017  0.37046055  1
  Al  Al33  1  0.89256174  0.86567107  0.12393185  1
  Al  Al34  1  0.44581712  0.75981334  0.85266923  1
  Al  Al35  1  0.55679538  0.87055763  0.60584855  1
  N  N36  1  0.22430096  0.22287195  0.36624942  1
  N  N37  1  0.10011153  0.10178976  0.09894531  1
  N  N38  1  0.87910914  0.22479251  0.83540164  1
  N  N39  1  0.77061303  0.10961260  0.59294165  1
  N  N40  1  0.55595866  0.20849038  0.36008941  1
  N  N41  1  0.44326411  0.09609755  0.13292075  1
  N  N42  1  0.23124951  0.21761602  0.83634791  1
  N  N43  1  0.11175979  0.09130287  0.60221727  1
  N  N44  1  0.88059707  0.19689846  0.33963873  1
  N  N45  1  0.79553891  0.08150822  0.09766401  1
  N  N46  1  0.53881687  0.21403450  0.84353773  1
  N  N47  1  0.44715513  0.09281796  0.59609435  1
  N  N48  1  0.22090382  0.53655425  0.33890128  1
  N  N49  1  0.10205016  0.44922689  0.07261192  1
  N  N50  1  0.88680057  0.54103442  0.83924229  1
  N  N51  1  0.79661319  0.42206532  0.59014183  1
  N  N52  1  0.53871312  0.54607798  0.35329272  1
  N  N53  1  0.41627011  0.44073733  0.08315210  1
  N  N54  1  0.21973514  0.54128648  0.83049592  1
  N  N55  1  0.10515411  0.43703042  0.59736881  1
  N  N56  1  0.90466118  0.54868726  0.33062396  1
  N  N57  1  0.79732827  0.42139021  0.09377038  1
  N  N58  1  0.55938361  0.53227599  0.84881116  1
  N  N59  1  0.43103527  0.42042274  0.59013545  1
  N  N60  1  0.23306410  0.85276293  0.34557834  1
  N  N61  1  0.10019108  0.74965262  0.09142657  1
  N  N62  1  0.90019077  0.85172663  0.83665862  1
  N  N63  1  0.77080151  0.74770416  0.58639948  1
  N  N64  1  0.55567505  0.86630259  0.35932690  1
  N  N65  1  0.44598498  0.76122535  0.06871300  1
  N  N66  1  0.22399182  0.85225830  0.83999462  1
  N  N67  1  0.13106314  0.74787127  0.57960150  1
  N  N68  1  0.88785454  0.87039823  0.34559754  1
  N  N69  1  0.79425152  0.75473820  0.08488684  1
  N  N70  1  0.55834247  0.87707524  0.83682174  1
  N  N71  1  0.43621795  0.77589697  0.60305039  1
