# generated using pymatgen
data_Sc11Al25N36
_symmetry_space_group_name_H-M   'P 1'
_cell_length_a   10.03009292
_cell_length_b   10.03305771
_cell_length_c   9.74347042
_cell_angle_alpha   89.92980944
_cell_angle_beta   89.96912887
_cell_angle_gamma   59.97188728
_symmetry_Int_Tables_number   1
_chemical_formula_structural   Sc11Al25N36
_chemical_formula_sum   'Sc11 Al25 N36'
_cell_volume   848.90510317
_cell_formula_units_Z   1
loop_
 _symmetry_equiv_pos_site_id
 _symmetry_equiv_pos_as_xyz
  1  'x, y, z'
loop_
 _atom_site_type_symbol
 _atom_site_label
 _atom_site_symmetry_multiplicity
 _atom_site_fract_x
 _atom_site_fract_y
 _atom_site_fract_z
 _atom_site_occupancy
  Sc  Sc0  1  0.11366589  0.08783429  0.37833467  1
  Sc  Sc1  1  0.21446775  0.22057484  0.12402290  1
  Sc  Sc2  1  0.78033462  0.08923514  0.85863310  1
  Sc  Sc3  1  0.55885645  0.20799790  0.12009424  1
  Sc  Sc4  1  0.11199849  0.09846881  0.85770753  1
  Sc  Sc5  1  0.54999507  0.53845636  0.11638681  1
  Sc  Sc6  1  0.78434221  0.42898828  0.35756092  1
  Sc  Sc7  1  0.55909629  0.53363693  0.61632056  1
  Sc  Sc8  1  0.21732300  0.86720903  0.11049598  1
  Sc  Sc9  1  0.89454730  0.86242512  0.60431072  1
  Sc  Sc10  1  0.56166878  0.86959371  0.11789970  1
  Al  Al11  1  0.88657687  0.21528656  0.63018918  1
  Al  Al12  1  0.44708697  0.09503711  0.37872920  1
  Al  Al13  1  0.22263070  0.21410963  0.62063062  1
  Al  Al14  1  0.77153424  0.09779828  0.38520157  1
  Al  Al15  1  0.89058500  0.19781181  0.12739716  1
  Al  Al16  1  0.44227211  0.09900418  0.85247008  1
  Al  Al17  1  0.54748112  0.21072059  0.62504925  1
  Al  Al18  1  0.11166717  0.43860468  0.38608552  1
  Al  Al19  1  0.21055286  0.54307903  0.12915166  1
  Al  Al20  1  0.78117684  0.43269684  0.88612664  1
  Al  Al21  1  0.88973724  0.53584274  0.63192455  1
  Al  Al22  1  0.43491520  0.42776999  0.38336718  1
  Al  Al23  1  0.10918230  0.43742071  0.87277679  1
  Al  Al24  1  0.22209181  0.53692026  0.63013706  1
  Al  Al25  1  0.89852905  0.54588949  0.12507202  1
  Al  Al26  1  0.43171008  0.43305584  0.87547015  1
  Al  Al27  1  0.12387537  0.74999567  0.37747878  1
  Al  Al28  1  0.78583901  0.75510269  0.87584725  1
  Al  Al29  1  0.43997841  0.76382864  0.38761792  1
  Al  Al30  1  0.10943944  0.74787920  0.87956919  1
  Al  Al31  1  0.22562690  0.86351677  0.63571030  1
  Al  Al32  1  0.77581682  0.75791587  0.38056947  1
  Al  Al33  1  0.89258003  0.86697970  0.13517671  1
  Al  Al34  1  0.44815971  0.75606435  0.86911264  1
  Al  Al35  1  0.55463559  0.87173276  0.62668806  1
  N  N36  1  0.22694149  0.21943240  0.34994041  1
  N  N37  1  0.09714621  0.10407084  0.08195132  1
  N  N38  1  0.87589658  0.23002765  0.82398963  1
  N  N39  1  0.76850754  0.11359491  0.58749313  1
  N  N40  1  0.55532966  0.20601243  0.34317584  1
  N  N41  1  0.44252362  0.09790439  0.08315875  1
  N  N42  1  0.22770418  0.22266894  0.82303788  1
  N  N43  1  0.11207072  0.09060940  0.60326701  1
  N  N44  1  0.88060358  0.19176262  0.32351026  1
  N  N45  1  0.79928699  0.07778564  0.07793643  1
  N  N46  1  0.53851287  0.21782050  0.82767759  1
  N  N47  1  0.44696753  0.09232278  0.58791693  1
  N  N48  1  0.22233823  0.53697042  0.32609479  1
  N  N49  1  0.10110631  0.44993309  0.06587877  1
  N  N50  1  0.88720817  0.53943786  0.82829787  1
  N  N51  1  0.80007334  0.41964354  0.57387179  1
  N  N52  1  0.53773319  0.54585087  0.34791072  1
  N  N53  1  0.41611747  0.44086581  0.06989299  1
  N  N54  1  0.21994623  0.53993868  0.82261814  1
  N  N55  1  0.10611875  0.43667087  0.58164343  1
  N  N56  1  0.90430866  0.55158872  0.32027491  1
  N  N57  1  0.79759917  0.42123371  0.08962886  1
  N  N58  1  0.55986188  0.53362473  0.84248910  1
  N  N59  1  0.43070028  0.41964742  0.57800991  1
  N  N60  1  0.23244759  0.85307392  0.32997680  1
  N  N61  1  0.09764236  0.75028152  0.07659482  1
  N  N62  1  0.90169161  0.84771328  0.81941650  1
  N  N63  1  0.76679214  0.74647133  0.57501983  1
  N  N64  1  0.55387539  0.87082187  0.34110198  1
  N  N65  1  0.44599733  0.76087908  0.06094994  1
  N  N66  1  0.22792660  0.84892594  0.83401704  1
  N  N67  1  0.13659861  0.74599549  0.57169626  1
  N  N68  1  0.88778781  0.87181968  0.34411955  1
  N  N69  1  0.79674929  0.75521551  0.07231772  1
  N  N70  1  0.55835527  0.87284210  0.82884803  1
  N  N71  1  0.43475446  0.77871641  0.58535499  1
