# generated using pymatgen
data_Sc11Al25N36
_symmetry_space_group_name_H-M   'P 1'
_cell_length_a   9.86074302
_cell_length_b   9.86352614
_cell_length_c   10.18448095
_cell_angle_alpha   89.95918795
_cell_angle_beta   89.98155115
_cell_angle_gamma   59.95335924
_symmetry_Int_Tables_number   1
_chemical_formula_structural   Sc11Al25N36
_chemical_formula_sum   'Sc11 Al25 N36'
_cell_volume   857.44635558
_cell_formula_units_Z   1
loop_
 _symmetry_equiv_pos_site_id
 _symmetry_equiv_pos_as_xyz
  1  'x, y, z'
loop_
 _atom_site_type_symbol
 _atom_site_label
 _atom_site_symmetry_multiplicity
 _atom_site_fract_x
 _atom_site_fract_y
 _atom_site_fract_z
 _atom_site_occupancy
  Sc  Sc0  1  0.11287644  0.09495230  0.31700971  1
  Sc  Sc1  1  0.21646743  0.21577387  0.04840460  1
  Sc  Sc2  1  0.77229186  0.09752653  0.80938312  1
  Sc  Sc3  1  0.55040688  0.20994632  0.06313179  1
  Sc  Sc4  1  0.11363691  0.09222418  0.78615917  1
  Sc  Sc5  1  0.55497483  0.53625030  0.03641728  1
  Sc  Sc6  1  0.77639789  0.43408235  0.30421283  1
  Sc  Sc7  1  0.55326928  0.53720503  0.56804328  1
  Sc  Sc8  1  0.21828560  0.86825674  0.05755844  1
  Sc  Sc9  1  0.88998257  0.87031900  0.55365333  1
  Sc  Sc10  1  0.56032726  0.87004770  0.05192716  1
  Al  Al11  1  0.88508645  0.20634387  0.54218175  1
  Al  Al12  1  0.44609165  0.09603167  0.30721118  1
  Al  Al13  1  0.22556557  0.21409862  0.54509805  1
  Al  Al14  1  0.78039840  0.08874515  0.29237169  1
  Al  Al15  1  0.89064461  0.20933805  0.04687663  1
  Al  Al16  1  0.44368364  0.09727665  0.78490034  1
  Al  Al17  1  0.55307610  0.20659001  0.53947855  1
  Al  Al18  1  0.11255360  0.43870706  0.29896300  1
  Al  Al19  1  0.21246894  0.54322934  0.04796995  1
  Al  Al20  1  0.78652253  0.42916188  0.79070213  1
  Al  Al21  1  0.89569772  0.53795838  0.54761334  1
  Al  Al22  1  0.43401998  0.43590974  0.30141298  1
  Al  Al23  1  0.11121648  0.43288469  0.79234254  1
  Al  Al24  1  0.22186102  0.53520735  0.54509346  1
  Al  Al25  1  0.89358182  0.54030700  0.04525732  1
  Al  Al26  1  0.43281214  0.42385103  0.78984517  1
  Al  Al27  1  0.10981684  0.75334995  0.29634803  1
  Al  Al28  1  0.77800134  0.75400712  0.79447072  1
  Al  Al29  1  0.44567053  0.75565876  0.30415602  1
  Al  Al30  1  0.12122852  0.74790256  0.79585853  1
  Al  Al31  1  0.22636509  0.86499062  0.53988207  1
  Al  Al32  1  0.78383151  0.76098751  0.29684210  1
  Al  Al33  1  0.89655009  0.86022527  0.04674225  1
  Al  Al34  1  0.44245528  0.76678357  0.78577402  1
  Al  Al35  1  0.55427763  0.87354171  0.54517299  1
  N  N36  1  0.23085276  0.22400062  0.35818663  1
  N  N37  1  0.09615412  0.10432321  0.10590024  1
  N  N38  1  0.88336212  0.22397634  0.85929381  1
  N  N39  1  0.76588510  0.11351063  0.60102337  1
  N  N40  1  0.55798816  0.20650718  0.34594867  1
  N  N41  1  0.44009880  0.09342881  0.12373308  1
  N  N42  1  0.22882457  0.21415679  0.83631787  1
  N  N43  1  0.11236268  0.09274440  0.57226412  1
  N  N44  1  0.87359041  0.19962281  0.35800953  1
  N  N45  1  0.79784259  0.08201867  0.09686196  1
  N  N46  1  0.53307362  0.21499404  0.85374223  1
  N  N47  1  0.44843319  0.09357607  0.59468358  1
  N  N48  1  0.21980943  0.54168470  0.35857479  1
  N  N49  1  0.10035174  0.44770878  0.11060949  1
  N  N50  1  0.89126862  0.53864649  0.85342585  1
  N  N51  1  0.80396759  0.41603995  0.60075958  1
  N  N52  1  0.53944575  0.54345437  0.35704465  1
  N  N53  1  0.41965810  0.44511034  0.11404046  1
  N  N54  1  0.22176816  0.53636638  0.85656781  1
  N  N55  1  0.11034649  0.43242513  0.60468559  1
  N  N56  1  0.90057096  0.55087812  0.36147158  1
  N  N57  1  0.79175933  0.42478857  0.09607525  1
  N  N58  1  0.55560681  0.53819687  0.81758535  1
  N  N59  1  0.43054736  0.41359584  0.60365125  1
  N  N60  1  0.22891893  0.85007628  0.35105416  1
  N  N61  1  0.10176437  0.74985210  0.10957630  1
  N  N62  1  0.90129803  0.84899245  0.85084318  1
  N  N63  1  0.76817999  0.75057078  0.60744361  1
  N  N64  1  0.55872560  0.86965468  0.35408712  1
  N  N65  1  0.45010935  0.75428939  0.11880960  1
  N  N66  1  0.23228879  0.85285242  0.84808417  1
  N  N67  1  0.13258332  0.74805318  0.60716173  1
  N  N68  1  0.88849207  0.87324722  0.34534979  1
  N  N69  1  0.79518884  0.75108949  0.10805613  1
  N  N70  1  0.55382232  0.87505885  0.84013488  1
  N  N71  1  0.43266550  0.78483613  0.60047704  1
