# generated using pymatgen
data_Sc11Al25N36
_symmetry_space_group_name_H-M   'P 1'
_cell_length_a   10.39442301
_cell_length_b   10.38717913
_cell_length_c   8.70654027
_cell_angle_alpha   89.95974534
_cell_angle_beta   89.98565004
_cell_angle_gamma   59.98344640
_symmetry_Int_Tables_number   1
_chemical_formula_structural   Sc11Al25N36
_chemical_formula_sum   'Sc11 Al25 N36'
_cell_volume   813.95739991
_cell_formula_units_Z   1
loop_
 _symmetry_equiv_pos_site_id
 _symmetry_equiv_pos_as_xyz
  1  'x, y, z'
loop_
 _atom_site_type_symbol
 _atom_site_label
 _atom_site_symmetry_multiplicity
 _atom_site_fract_x
 _atom_site_fract_y
 _atom_site_fract_z
 _atom_site_occupancy
  Sc  Sc0  1  0.11307177  0.09186412  0.35738903  1
  Sc  Sc1  1  0.21987178  0.21778485  0.10273792  1
  Sc  Sc2  1  0.77660337  0.09392791  0.85273594  1
  Sc  Sc3  1  0.55284016  0.20895540  0.10751872  1
  Sc  Sc4  1  0.11305304  0.09541932  0.84705581  1
  Sc  Sc5  1  0.55432078  0.53513568  0.09887491  1
  Sc  Sc6  1  0.78434771  0.43069857  0.35141329  1
  Sc  Sc7  1  0.55413500  0.53570318  0.60592712  1
  Sc  Sc8  1  0.21883669  0.86324532  0.10131526  1
  Sc  Sc9  1  0.89018161  0.86777654  0.59786697  1
  Sc  Sc10  1  0.56084067  0.87072244  0.10172919  1
  Al  Al11  1  0.88621212  0.20905916  0.60164640  1
  Al  Al12  1  0.44514303  0.09656855  0.35899221  1
  Al  Al13  1  0.22243306  0.21542707  0.59853033  1
  Al  Al14  1  0.77728390  0.09315799  0.35250418  1
  Al  Al15  1  0.89034482  0.20548140  0.10137085  1
  Al  Al16  1  0.44407580  0.09754069  0.82648465  1
  Al  Al17  1  0.55166929  0.20917536  0.59467546  1
  Al  Al18  1  0.11117970  0.43817656  0.35405108  1
  Al  Al19  1  0.21123925  0.54383707  0.09318516  1
  Al  Al20  1  0.78353704  0.43050241  0.85071365  1
  Al  Al21  1  0.89283943  0.53861824  0.60156545  1
  Al  Al22  1  0.43290634  0.43246682  0.35327894  1
  Al  Al23  1  0.11048121  0.43471783  0.84167843  1
  Al  Al24  1  0.22152292  0.53556833  0.59708108  1
  Al  Al25  1  0.89534760  0.54178876  0.09038340  1
  Al  Al26  1  0.43313938  0.42766898  0.84477903  1
  Al  Al27  1  0.11484054  0.75111778  0.35147940  1
  Al  Al28  1  0.78063373  0.75624907  0.84489495  1
  Al  Al29  1  0.44332794  0.76078894  0.36809895  1
  Al  Al30  1  0.11463523  0.75025816  0.84030822  1
  Al  Al31  1  0.22507278  0.86506636  0.60402650  1
  Al  Al32  1  0.78140974  0.75812762  0.34965450  1
  Al  Al33  1  0.89497592  0.86289457  0.10516391  1
  Al  Al34  1  0.44408354  0.76143947  0.84941227  1
  Al  Al35  1  0.55560870  0.87129707  0.60065709  1
  N  N36  1  0.22516770  0.22197636  0.36716374  1
  N  N37  1  0.10067587  0.10040989  0.10247984  1
  N  N38  1  0.88047840  0.22135078  0.85157301  1
  N  N39  1  0.76952077  0.10850002  0.59760321  1
  N  N40  1  0.55529595  0.20916116  0.36352587  1
  N  N41  1  0.44400062  0.09480083  0.12741353  1
  N  N42  1  0.23148249  0.21665360  0.84144965  1
  N  N43  1  0.11102990  0.09327365  0.60259927  1
  N  N44  1  0.88056302  0.19930287  0.35588797  1
  N  N45  1  0.79412691  0.08442270  0.10942816  1
  N  N46  1  0.53912598  0.21271136  0.84781868  1
  N  N47  1  0.44677861  0.09343385  0.59761248  1
  N  N48  1  0.22081843  0.53832018  0.36367370  1
  N  N49  1  0.10139436  0.44767847  0.10384189  1
  N  N50  1  0.89077259  0.54040290  0.85327244  1
  N  N51  1  0.79494611  0.42249826  0.60895268  1
  N  N52  1  0.54119653  0.54491764  0.35477138  1
  N  N53  1  0.41827908  0.43947768  0.10703740  1
  N  N54  1  0.21965115  0.53945463  0.85285982  1
  N  N55  1  0.10819293  0.43380442  0.60965554  1
  N  N56  1  0.90104880  0.54834734  0.36204650  1
  N  N57  1  0.79679204  0.42278410  0.09647930  1
  N  N58  1  0.55640458  0.53449879  0.85041895  1
  N  N59  1  0.43233872  0.42032203  0.60615544  1
  N  N60  1  0.23068862  0.85299371  0.36115203  1
  N  N61  1  0.10265564  0.74946193  0.11291751  1
  N  N62  1  0.89976552  0.85292411  0.85613501  1
  N  N63  1  0.76997696  0.75193161  0.60739844  1
  N  N64  1  0.55788724  0.86676787  0.36439834  1
  N  N65  1  0.44520106  0.76070251  0.08682872  1
  N  N66  1  0.22631138  0.85367867  0.84288734  1
  N  N67  1  0.12632804  0.74920764  0.60216872  1
  N  N68  1  0.88762230  0.87109005  0.34809306  1
  N  N69  1  0.79352333  0.75191614  0.10547462  1
  N  N70  1  0.55538137  0.87771831  0.84193816  1
  N  N71  1  0.43772922  0.77553454  0.60610354  1
