# generated using pymatgen
data_Sc11Al25N36
_symmetry_space_group_name_H-M   'P 1'
_cell_length_a   9.94318205
_cell_length_b   9.92432081
_cell_length_c   10.05459215
_cell_angle_alpha   90.03161768
_cell_angle_beta   89.88226382
_cell_angle_gamma   59.86700211
_symmetry_Int_Tables_number   1
_chemical_formula_structural   Sc11Al25N36
_chemical_formula_sum   'Sc11 Al25 N36'
_cell_volume   858.09631968
_cell_formula_units_Z   1
loop_
 _symmetry_equiv_pos_site_id
 _symmetry_equiv_pos_as_xyz
  1  'x, y, z'
loop_
 _atom_site_type_symbol
 _atom_site_label
 _atom_site_symmetry_multiplicity
 _atom_site_fract_x
 _atom_site_fract_y
 _atom_site_fract_z
 _atom_site_occupancy
  Sc  Sc0  1  0.11198573  0.09612118  0.34427431  1
  Sc  Sc1  1  0.21741037  0.21476110  0.07675625  1
  Sc  Sc2  1  0.77115107  0.09942458  0.84123045  1
  Sc  Sc3  1  0.54919724  0.20912364  0.09466346  1
  Sc  Sc4  1  0.11235916  0.09435733  0.81643479  1
  Sc  Sc5  1  0.56307296  0.52381357  0.06650889  1
  Sc  Sc6  1  0.77770093  0.43407728  0.33688981  1
  Sc  Sc7  1  0.55263683  0.53604275  0.60292687  1
  Sc  Sc8  1  0.21729161  0.86632813  0.08653897  1
  Sc  Sc9  1  0.88832634  0.87228695  0.58439315  1
  Sc  Sc10  1  0.56390490  0.87009380  0.08140816  1
  Al  Al11  1  0.88399793  0.20638338  0.57084285  1
  Al  Al12  1  0.44529781  0.09702270  0.33586139  1
  Al  Al13  1  0.22492465  0.21492639  0.57398201  1
  Al  Al14  1  0.78120852  0.08815771  0.31957320  1
  Al  Al15  1  0.89253740  0.20920345  0.07610525  1
  Al  Al16  1  0.44359868  0.09852653  0.81276300  1
  Al  Al17  1  0.55290322  0.20765036  0.56679034  1
  Al  Al18  1  0.11305318  0.43860452  0.32586221  1
  Al  Al19  1  0.21224450  0.54276573  0.07517386  1
  Al  Al20  1  0.78798615  0.42933325  0.81734352  1
  Al  Al21  1  0.89636517  0.53880626  0.57512941  1
  Al  Al22  1  0.43249409  0.43724879  0.32894519  1
  Al  Al23  1  0.11064489  0.43356937  0.82053934  1
  Al  Al24  1  0.22081903  0.53523731  0.57256051  1
  Al  Al25  1  0.89477301  0.53929135  0.07406104  1
  Al  Al26  1  0.43077042  0.42267129  0.81836626  1
  Al  Al27  1  0.10853310  0.75294816  0.32380504  1
  Al  Al28  1  0.77773677  0.75439338  0.82191740  1
  Al  Al29  1  0.44538106  0.75852783  0.37727512  1
  Al  Al30  1  0.11963800  0.74831917  0.82197069  1
  Al  Al31  1  0.22052658  0.86801273  0.57085535  1
  Al  Al32  1  0.78669882  0.76021601  0.32415962  1
  Al  Al33  1  0.89745923  0.85901196  0.07267962  1
  Al  Al34  1  0.44386005  0.76335890  0.84534237  1
  Al  Al35  1  0.55628630  0.87542332  0.57636981  1
  N  N36  1  0.23026685  0.22399231  0.38485839  1
  N  N37  1  0.09751280  0.10336208  0.13087661  1
  N  N38  1  0.88181523  0.22636846  0.88616513  1
  N  N39  1  0.76375941  0.11603065  0.62956867  1
  N  N40  1  0.55828480  0.20655135  0.37117664  1
  N  N41  1  0.43873118  0.09373299  0.15104367  1
  N  N42  1  0.22912196  0.21513577  0.86198555  1
  N  N43  1  0.11053938  0.09385181  0.60017921  1
  N  N44  1  0.87403366  0.19826873  0.38441122  1
  N  N45  1  0.79811503  0.08195590  0.12109182  1
  N  N46  1  0.53204764  0.21552000  0.88214797  1
  N  N47  1  0.44825439  0.09504889  0.62029300  1
  N  N48  1  0.21935184  0.54175716  0.38477543  1
  N  N49  1  0.10135244  0.44687933  0.13594536  1
  N  N50  1  0.89055841  0.53923086  0.87970466  1
  N  N51  1  0.80377523  0.41731888  0.62483368  1
  N  N52  1  0.53967019  0.54239562  0.38191080  1
  N  N53  1  0.41735648  0.44403132  0.14073296  1
  N  N54  1  0.22034045  0.53743861  0.88212760  1
  N  N55  1  0.10961937  0.43310866  0.63127091  1
  N  N56  1  0.90209971  0.55126534  0.38763938  1
  N  N57  1  0.79782296  0.42234216  0.12743032  1
  N  N58  1  0.55694535  0.53475503  0.84246267  1
  N  N59  1  0.42854968  0.41392309  0.62999385  1
  N  N60  1  0.22669079  0.85150326  0.37386404  1
  N  N61  1  0.10033875  0.74858665  0.13550706  1
  N  N62  1  0.90033959  0.84953464  0.87446205  1
  N  N63  1  0.76861199  0.75084586  0.63327942  1
  N  N64  1  0.56123152  0.86991478  0.37850574  1
  N  N65  1  0.45179433  0.75142255  0.09302521  1
  N  N66  1  0.22576692  0.85615848  0.86948821  1
  N  N67  1  0.13059985  0.74805386  0.63168172  1
  N  N68  1  0.88828072  0.87393694  0.37338695  1
  N  N69  1  0.79856236  0.74971483  0.13420141  1
  N  N70  1  0.55475453  0.87782572  0.86366164  1
  N  N71  1  0.43352630  0.78285542  0.60440171  1
