# generated using pymatgen
data_Sc11Al25N36
_symmetry_space_group_name_H-M   'P 1'
_cell_length_a   9.86273925
_cell_length_b   9.87097290
_cell_length_c   10.17866002
_cell_angle_alpha   89.98873599
_cell_angle_beta   89.94735208
_cell_angle_gamma   59.95970724
_symmetry_Int_Tables_number   1
_chemical_formula_structural   Sc11Al25N36
_chemical_formula_sum   'Sc11 Al25 N36'
_cell_volume   857.83166566
_cell_formula_units_Z   1
loop_
 _symmetry_equiv_pos_site_id
 _symmetry_equiv_pos_as_xyz
  1  'x, y, z'
loop_
 _atom_site_type_symbol
 _atom_site_label
 _atom_site_symmetry_multiplicity
 _atom_site_fract_x
 _atom_site_fract_y
 _atom_site_fract_z
 _atom_site_occupancy
  Sc  Sc0  1  0.11340755  0.09080262  0.39582762  1
  Sc  Sc1  1  0.21710720  0.21616309  0.13162049  1
  Sc  Sc2  1  0.77767341  0.09027199  0.87656486  1
  Sc  Sc3  1  0.55540146  0.20737985  0.13514677  1
  Sc  Sc4  1  0.11282462  0.09616746  0.86531640  1
  Sc  Sc5  1  0.55071632  0.53907191  0.12854643  1
  Sc  Sc6  1  0.78284254  0.42982632  0.37390569  1
  Sc  Sc7  1  0.55724348  0.53536471  0.62996177  1
  Sc  Sc8  1  0.21530009  0.87012108  0.12686435  1
  Sc  Sc9  1  0.89259999  0.86528462  0.61860553  1
  Sc  Sc10  1  0.56012797  0.87217218  0.13105833  1
  Al  Al11  1  0.88546533  0.21346361  0.64022058  1
  Al  Al12  1  0.44651393  0.09530988  0.39831960  1
  Al  Al13  1  0.22479318  0.21320971  0.63782360  1
  Al  Al14  1  0.77281565  0.09683127  0.39001049  1
  Al  Al15  1  0.89064685  0.20074676  0.13557792  1
  Al  Al16  1  0.44305591  0.09954086  0.87569371  1
  Al  Al17  1  0.54770951  0.20990849  0.63521093  1
  Al  Al18  1  0.11384141  0.43552297  0.39038585  1
  Al  Al19  1  0.21170645  0.54266913  0.13482755  1
  Al  Al20  1  0.78018674  0.43242021  0.89133852  1
  Al  Al21  1  0.89151802  0.53543468  0.63906938  1
  Al  Al22  1  0.43535346  0.42761667  0.39165234  1
  Al  Al23  1  0.10979842  0.43633849  0.88213020  1
  Al  Al24  1  0.22221691  0.53555943  0.63721160  1
  Al  Al25  1  0.89723324  0.54379571  0.13202222  1
  Al  Al26  1  0.43383497  0.43197908  0.88310662  1
  Al  Al27  1  0.12098524  0.75115033  0.38648755  1
  Al  Al28  1  0.78360641  0.75506004  0.88381714  1
  Al  Al29  1  0.44044109  0.76472797  0.39533205  1
  Al  Al30  1  0.11205324  0.74810966  0.88573249  1
  Al  Al31  1  0.22701884  0.86319283  0.64199999  1
  Al  Al32  1  0.77701164  0.75912737  0.38806732  1
  Al  Al33  1  0.89301120  0.86575975  0.14045777  1
  Al  Al34  1  0.44796983  0.75700578  0.88003985  1
  Al  Al35  1  0.55364108  0.87297477  0.63695792  1
  N  N36  1  0.23043326  0.21610890  0.34413652  1
  N  N37  1  0.09595662  0.10455248  0.07647007  1
  N  N38  1  0.87365299  0.22850154  0.82460759  1
  N  N39  1  0.76797725  0.11452454  0.58302597  1
  N  N40  1  0.55380274  0.20465878  0.34497800  1
  N  N41  1  0.44419404  0.09682594  0.06047910  1
  N  N42  1  0.22882347  0.22246239  0.82511917  1
  N  N43  1  0.11264489  0.09168463  0.61003042  1
  N  N44  1  0.88269929  0.19293594  0.32316307  1
  N  N45  1  0.79566030  0.08076187  0.08545776  1
  N  N46  1  0.53867728  0.21784085  0.82435247  1
  N  N47  1  0.44593524  0.09280035  0.58653323  1
  N  N48  1  0.22271443  0.53746422  0.32596325  1
  N  N49  1  0.10227449  0.44706140  0.06838315  1
  N  N50  1  0.88844897  0.53883363  0.82891825  1
  N  N51  1  0.79944906  0.41904534  0.57973310  1
  N  N52  1  0.53684878  0.54681297  0.34693614  1
  N  N53  1  0.41910158  0.43829331  0.06978155  1
  N  N54  1  0.22066595  0.53885236  0.82388068  1
  N  N55  1  0.10836166  0.43298079  0.58034806  1
  N  N56  1  0.90351423  0.55068795  0.32062520  1
  N  N57  1  0.79673294  0.42141497  0.08581331  1
  N  N58  1  0.55871918  0.53517870  0.84439105  1
  N  N59  1  0.43121296  0.41933757  0.57793296  1
  N  N60  1  0.23004616  0.85666916  0.33581287  1
  N  N61  1  0.09927451  0.75067558  0.07527772  1
  N  N62  1  0.90057649  0.84948337  0.82491262  1
  N  N63  1  0.76723065  0.74702639  0.57538482  1
  N  N64  1  0.55328635  0.87412748  0.34288038  1
  N  N65  1  0.44435459  0.76352037  0.06377377  1
  N  N66  1  0.23103576  0.84641514  0.83055972  1
  N  N67  1  0.13521809  0.74617921  0.57351299  1
  N  N68  1  0.88929204  0.87104189  0.34220965  1
  N  N69  1  0.79455517  0.75471213  0.07318602  1
  N  N70  1  0.55792534  0.87194558  0.82825016  1
  N  N71  1  0.43539485  0.77924876  0.58298426  1
