# generated using pymatgen
data_Sc11Al25N36
_symmetry_space_group_name_H-M   'P 1'
_cell_length_a   10.35446382
_cell_length_b   10.34747076
_cell_length_c   8.81161381
_cell_angle_alpha   89.95313602
_cell_angle_beta   89.98856076
_cell_angle_gamma   59.99609531
_symmetry_Int_Tables_number   1
_chemical_formula_structural   Sc11Al25N36
_chemical_formula_sum   'Sc11 Al25 N36'
_cell_volume   817.58075919
_cell_formula_units_Z   1
loop_
 _symmetry_equiv_pos_site_id
 _symmetry_equiv_pos_as_xyz
  1  'x, y, z'
loop_
 _atom_site_type_symbol
 _atom_site_label
 _atom_site_symmetry_multiplicity
 _atom_site_fract_x
 _atom_site_fract_y
 _atom_site_fract_z
 _atom_site_occupancy
  Sc  Sc0  1  0.11293982  0.09188038  0.35675582  1
  Sc  Sc1  1  0.22021681  0.21738990  0.10160665  1
  Sc  Sc2  1  0.77583583  0.09408141  0.85264585  1
  Sc  Sc3  1  0.55231700  0.20904567  0.10733003  1
  Sc  Sc4  1  0.11344027  0.09525438  0.84631205  1
  Sc  Sc5  1  0.55477273  0.53485622  0.09802496  1
  Sc  Sc6  1  0.78449636  0.43075371  0.35088688  1
  Sc  Sc7  1  0.55412109  0.53531524  0.60553841  1
  Sc  Sc8  1  0.21871781  0.86287547  0.10097045  1
  Sc  Sc9  1  0.88941591  0.86828607  0.59705482  1
  Sc  Sc10  1  0.56066192  0.87085390  0.10091228  1
  Al  Al11  1  0.88630185  0.20847426  0.59801261  1
  Al  Al12  1  0.44489059  0.09661741  0.35832308  1
  Al  Al13  1  0.22141745  0.21622650  0.59545327  1
  Al  Al14  1  0.77766186  0.09265374  0.34993394  1
  Al  Al15  1  0.89042320  0.20628669  0.09586286  1
  Al  Al16  1  0.44394916  0.09804053  0.82314485  1
  Al  Al17  1  0.55207280  0.20938028  0.59027029  1
  Al  Al18  1  0.11066129  0.43952751  0.34362903  1
  Al  Al19  1  0.21089455  0.54446871  0.08557178  1
  Al  Al20  1  0.78324838  0.43075817  0.84688360  1
  Al  Al21  1  0.89386476  0.53876748  0.59571671  1
  Al  Al22  1  0.43189654  0.43386432  0.34648752  1
  Al  Al23  1  0.11102157  0.43401640  0.83565217  1
  Al  Al24  1  0.22154282  0.53456174  0.59032690  1
  Al  Al25  1  0.89522431  0.54149923  0.08397887  1
  Al  Al26  1  0.43353470  0.42659942  0.83880155  1
  Al  Al27  1  0.11423883  0.75090222  0.34787893  1
  Al  Al28  1  0.78018892  0.75614803  0.83995951  1
  Al  Al29  1  0.44347736  0.76072048  0.37115933  1
  Al  Al30  1  0.11542401  0.74973030  0.83365993  1
  Al  Al31  1  0.22480224  0.86571229  0.60352644  1
  Al  Al32  1  0.78223196  0.75803634  0.34373404  1
  Al  Al33  1  0.89555104  0.86254177  0.10248115  1
  Al  Al34  1  0.44408927  0.76132229  0.85003559  1
  Al  Al35  1  0.55602640  0.87113765  0.59961644  1
  N  N36  1  0.22440054  0.22293521  0.36798695  1
  N  N37  1  0.10063613  0.10025732  0.10300410  1
  N  N38  1  0.88047066  0.22169330  0.85564270  1
  N  N39  1  0.76863986  0.10902147  0.60101686  1
  N  N40  1  0.55575542  0.20960894  0.36398284  1
  N  N41  1  0.44389017  0.09446791  0.13298641  1
  N  N42  1  0.23179242  0.21665072  0.84435227  1
  N  N43  1  0.11143954  0.09337025  0.60277614  1
  N  N44  1  0.88037957  0.19896648  0.36102255  1
  N  N45  1  0.79476281  0.08430702  0.10997215  1
  N  N46  1  0.53835864  0.21268769  0.85269387  1
  N  N47  1  0.44658658  0.09399790  0.59796289  1
  N  N48  1  0.22068067  0.53849427  0.36955852  1
  N  N49  1  0.10077879  0.44861327  0.11303410  1
  N  N50  1  0.89147978  0.53996963  0.85771689  1
  N  N51  1  0.79568279  0.42220573  0.61045687  1
  N  N52  1  0.54127195  0.54522839  0.35568492  1
  N  N53  1  0.41728756  0.44031839  0.11498525  1
  N  N54  1  0.21973902  0.53913484  0.85944098  1
  N  N55  1  0.10867172  0.43349861  0.61466681  1
  N  N56  1  0.90112248  0.54910010  0.36934867  1
  N  N57  1  0.79701777  0.42296846  0.09975383  1
  N  N58  1  0.55658901  0.53367871  0.85004097  1
  N  N59  1  0.43197873  0.41967607  0.61100985  1
  N  N60  1  0.23076898  0.85262878  0.36164888  1
  N  N61  1  0.10255063  0.74889460  0.11910479  1
  N  N62  1  0.90052926  0.85187459  0.85761881  1
  N  N63  1  0.76970643  0.75179321  0.61280620  1
  N  N64  1  0.55859796  0.86603621  0.36539977  1
  N  N65  1  0.44534428  0.76035270  0.08368130  1
  N  N66  1  0.22622466  0.85362457  0.84374668  1
  N  N67  1  0.12675892  0.74861651  0.60575881  1
  N  N68  1  0.88710367  0.87186194  0.35092270  1
  N  N69  1  0.79413732  0.75123586  0.11076371  1
  N  N70  1  0.55486556  0.87857351  0.84326037  1
  N  N71  1  0.43762612  0.77572888  0.60644816  1
