# generated using pymatgen
data_GaCuO2
_symmetry_space_group_name_H-M   'P 1'
_cell_length_a   5.32724061
_cell_length_b   5.57986966
_cell_length_c   6.75786407
_cell_angle_alpha   90.19999323
_cell_angle_beta   90.63142977
_cell_angle_gamma   90.39484191
_symmetry_Int_Tables_number   1
_chemical_formula_structural   GaCuO2
_chemical_formula_sum   'Ga4 Cu4 O8'
_cell_volume   200.86134663
_cell_formula_units_Z   4
loop_
 _symmetry_equiv_pos_site_id
 _symmetry_equiv_pos_as_xyz
  1  'x, y, z'
loop_
 _atom_site_type_symbol
 _atom_site_label
 _atom_site_symmetry_multiplicity
 _atom_site_fract_x
 _atom_site_fract_y
 _atom_site_fract_z
 _atom_site_occupancy
  O  O0  1  0.09080397  0.92965670  0.10010166  1
  O  O1  1  0.54299653  0.06478941  0.88874851  1
  O  O2  1  0.01167430  0.88995434  0.63768496  1
  O  O3  1  0.00322127  0.40031062  0.83782049  1
  O  O4  1  0.55181486  0.09270580  0.34406704  1
  O  O5  1  0.50084220  0.58927299  0.14105774  1
  O  O6  1  0.95420375  0.44013657  0.38887475  1
  O  O7  1  0.45717049  0.55712426  0.59348601  1
  Ga  Ga8  1  0.02441304  0.07336471  0.86142143  1
  Ga  Ga9  1  0.45294289  0.91835556  0.12114923  1
  Ga  Ga10  1  0.10886498  0.57052882  0.61357704  1
  Ga  Ga11  1  0.60062198  0.42615497  0.36757785  1
  Cu  Cu12  1  0.99517207  0.03644247  0.37008256  1
  Cu  Cu13  1  0.04901362  0.52435325  0.11307204  1
  Cu  Cu14  1  0.53726157  0.97853107  0.61535896  1
  Cu  Cu15  1  0.56819376  0.44170219  0.87241843  1
