# generated using pymatgen
data_GaCuO2
_symmetry_space_group_name_H-M   'P 1'
_cell_length_a   5.32723597
_cell_length_b   5.57580190
_cell_length_c   6.75240366
_cell_angle_alpha   89.82249397
_cell_angle_beta   89.35287120
_cell_angle_gamma   90.38753822
_symmetry_Int_Tables_number   1
_chemical_formula_structural   GaCuO2
_chemical_formula_sum   'Ga4 Cu4 O8'
_cell_volume   200.55239029
_cell_formula_units_Z   4
loop_
 _symmetry_equiv_pos_site_id
 _symmetry_equiv_pos_as_xyz
  1  'x, y, z'
loop_
 _atom_site_type_symbol
 _atom_site_label
 _atom_site_symmetry_multiplicity
 _atom_site_fract_x
 _atom_site_fract_y
 _atom_site_fract_z
 _atom_site_occupancy
  O  O0  1  0.09887491  0.93455500  0.09362218  1
  O  O1  1  0.60226295  0.05139726  0.88868979  1
  O  O2  1  0.05627251  0.90218919  0.64088341  1
  O  O3  1  0.00525055  0.39905844  0.84397210  1
  O  O4  1  0.55129426  0.09094128  0.33815555  1
  O  O5  1  0.54060115  0.60074124  0.13744180  1
  O  O6  1  0.98390401  0.42973692  0.39096756  1
  O  O7  1  0.46153859  0.55962067  0.59792565  1
  Ga  Ga8  1  0.95572131  0.06564187  0.86746824  1
  Ga  Ga9  1  0.44762118  0.92126174  0.11389879  1
  Ga  Ga10  1  0.10301534  0.57223732  0.61954392  1
  Ga  Ga11  1  0.56504298  0.42038981  0.36377748  1
  Cu  Cu12  1  0.98941115  0.04839166  0.37232917  1
  Cu  Cu13  1  0.02074052  0.51461953  0.11523903  1
  Cu  Cu14  1  0.50751960  0.96724204  0.61299591  1
  Cu  Cu15  1  0.56014027  0.45535978  0.86958812  1
