# generated using pymatgen
data_GaCuO2
_symmetry_space_group_name_H-M   'P 1'
_cell_length_a   5.32735099
_cell_length_b   5.53924053
_cell_length_c   6.70914801
_cell_angle_alpha   90.60274127
_cell_angle_beta   89.41006525
_cell_angle_gamma   90.54030176
_symmetry_Int_Tables_number   1
_chemical_formula_structural   GaCuO2
_chemical_formula_sum   'Ga4 Cu4 O8'
_cell_volume   197.95340763
_cell_formula_units_Z   4
loop_
 _symmetry_equiv_pos_site_id
 _symmetry_equiv_pos_as_xyz
  1  'x, y, z'
loop_
 _atom_site_type_symbol
 _atom_site_label
 _atom_site_symmetry_multiplicity
 _atom_site_fract_x
 _atom_site_fract_y
 _atom_site_fract_z
 _atom_site_occupancy
  O  O0  1  0.10427775  0.93594857  0.09289977  1
  O  O1  1  0.60895904  0.05093529  0.88445239  1
  O  O2  1  0.06956478  0.90000640  0.63942275  1
  O  O3  1  0.04927283  0.39935977  0.85651052  1
  O  O4  1  0.55914332  0.09258022  0.33144659  1
  O  O5  1  0.55293842  0.59205152  0.14058749  1
  O  O6  1  0.10043282  0.42239825  0.38757052  1
  O  O7  1  0.58413541  0.55967310  0.59412398  1
  Ga  Ga8  1  0.96122233  0.07305688  0.86760084  1
  Ga  Ga9  1  0.45387261  0.91408798  0.10716590  1
  Ga  Ga10  1  0.00366389  0.57106214  0.62517999  1
  Ga  Ga11  1  0.45595277  0.41229289  0.36567689  1
  Cu  Cu12  1  0.95335381  0.03953049  0.37186981  1
  Cu  Cu13  1  0.95583800  0.57489156  0.13274880  1
  Cu  Cu14  1  0.51655031  0.93839889  0.60251134  1
  Cu  Cu15  1  0.52003318  0.45710979  0.86673114  1
