# generated using pymatgen
data_GaCuO2
_symmetry_space_group_name_H-M   'P 1'
_cell_length_a   5.32725854
_cell_length_b   5.57575078
_cell_length_c   6.74972179
_cell_angle_alpha   90.17026012
_cell_angle_beta   90.58152155
_cell_angle_gamma   90.42189083
_symmetry_Int_Tables_number   1
_chemical_formula_structural   GaCuO2
_chemical_formula_sum   'Ga4 Cu4 O8'
_cell_volume   200.47343963
_cell_formula_units_Z   4
loop_
 _symmetry_equiv_pos_site_id
 _symmetry_equiv_pos_as_xyz
  1  'x, y, z'
loop_
 _atom_site_type_symbol
 _atom_site_label
 _atom_site_symmetry_multiplicity
 _atom_site_fract_x
 _atom_site_fract_y
 _atom_site_fract_z
 _atom_site_occupancy
  O  O0  1  0.09511780  0.93228607  0.09757145  1
  O  O1  1  0.57742882  0.06126731  0.89115235  1
  O  O2  1  0.01702691  0.89092869  0.63769449  1
  O  O3  1  0.00508327  0.40016689  0.83843974  1
  O  O4  1  0.55075024  0.09317061  0.34349019  1
  O  O5  1  0.50015620  0.58993718  0.14079719  1
  O  O6  1  0.95415710  0.44021169  0.38879487  1
  O  O7  1  0.45737303  0.55722239  0.59367847  1
  Ga  Ga8  1  0.98455341  0.07036240  0.86442249  1
  Ga  Ga9  1  0.45271758  0.91982990  0.11918492  1
  Ga  Ga10  1  0.10845336  0.57010297  0.61425925  1
  Ga  Ga11  1  0.60082734  0.42652631  0.36736443  1
  Cu  Cu12  1  0.99576654  0.03585560  0.36976513  1
  Cu  Cu13  1  0.04959534  0.52339918  0.11301418  1
  Cu  Cu14  1  0.53406165  0.97790169  0.61477239  1
  Cu  Cu15  1  0.56614270  0.44421487  0.87209715  1
