# generated using pymatgen
data_GaCuO2
_symmetry_space_group_name_H-M   'P 1'
_cell_length_a   5.32730836
_cell_length_b   5.54954222
_cell_length_c   6.73060179
_cell_angle_alpha   89.46969268
_cell_angle_beta   90.75010606
_cell_angle_gamma   90.48927278
_symmetry_Int_Tables_number   1
_chemical_formula_structural   GaCuO2
_chemical_formula_sum   'Ga4 Cu4 O8'
_cell_volume   198.95171094
_cell_formula_units_Z   4
loop_
 _symmetry_equiv_pos_site_id
 _symmetry_equiv_pos_as_xyz
  1  'x, y, z'
loop_
 _atom_site_type_symbol
 _atom_site_label
 _atom_site_symmetry_multiplicity
 _atom_site_fract_x
 _atom_site_fract_y
 _atom_site_fract_z
 _atom_site_occupancy
  O  O0  1  0.05024802  0.92883238  0.09815641  1
  O  O1  1  0.46492405  0.07337693  0.88382168  1
  O  O2  1  0.00180035  0.89909211  0.64008322  1
  O  O3  1  0.99642929  0.40035607  0.82990954  1
  O  O4  1  0.51807216  0.09188312  0.35863877  1
  O  O5  1  0.49155773  0.58873671  0.13903885  1
  O  O6  1  0.94786302  0.44075284  0.38441454  1
  O  O7  1  0.45196906  0.55584764  0.59195414  1
  Ga  Ga8  1  0.10428282  0.08425318  0.85772853  1
  Ga  Ga9  1  0.46428870  0.91903840  0.13114735  1
  Ga  Ga10  1  0.10275741  0.57809133  0.60648860  1
  Ga  Ga11  1  0.59563618  0.41914015  0.36744287  1
  Cu  Cu12  1  0.02543720  0.03577740  0.36861290  1
  Cu  Cu13  1  0.03279890  0.55000470  0.10178472  1
  Cu  Cu14  1  0.59893155  0.91583009  0.63455880  1
  Cu  Cu15  1  0.60221482  0.45237067  0.87271781  1
