# generated using pymatgen
data_GaCuO2
_symmetry_space_group_name_H-M   'P 1'
_cell_length_a   5.32714460
_cell_length_b   5.55952363
_cell_length_c   6.74928037
_cell_angle_alpha   90.24897202
_cell_angle_beta   91.07400502
_cell_angle_gamma   90.19383735
_symmetry_Int_Tables_number   1
_chemical_formula_structural   GaCuO2
_chemical_formula_sum   'Ga4 Cu4 O8'
_cell_volume   199.85109107
_cell_formula_units_Z   4
loop_
 _symmetry_equiv_pos_site_id
 _symmetry_equiv_pos_as_xyz
  1  'x, y, z'
loop_
 _atom_site_type_symbol
 _atom_site_label
 _atom_site_symmetry_multiplicity
 _atom_site_fract_x
 _atom_site_fract_y
 _atom_site_fract_z
 _atom_site_occupancy
  O  O0  1  0.07747442  0.93128955  0.10089642  1
  O  O1  1  0.46918607  0.07049522  0.88472933  1
  O  O2  1  0.99555482  0.89659314  0.64318512  1
  O  O3  1  0.99859643  0.40127160  0.83110961  1
  O  O4  1  0.55236175  0.09058283  0.35010811  1
  O  O5  1  0.49888951  0.58792271  0.13908102  1
  O  O6  1  0.95124538  0.44433924  0.38576060  1
  O  O7  1  0.45400843  0.55659723  0.59307893  1
  Ga  Ga8  1  0.10831768  0.08589997  0.85474930  1
  Ga  Ga9  1  0.44232656  0.91571126  0.13282255  1
  Ga  Ga10  1  0.10475261  0.57867038  0.61014919  1
  Ga  Ga11  1  0.59813046  0.42329077  0.36718375  1
  Cu  Cu12  1  0.99625420  0.02954114  0.37016524  1
  Cu  Cu13  1  0.02983136  0.53697139  0.10628066  1
  Cu  Cu14  1  0.57631849  0.93992924  0.62468452  1
  Cu  Cu15  1  0.59596308  0.44427806  0.87251436  1
