# generated using pymatgen
data_Sc2Al7N9
_symmetry_space_group_name_H-M   'P 1'
_cell_length_a   10.28296065
_cell_length_b   10.29318967
_cell_length_c   8.59381320
_cell_angle_alpha   89.96404809
_cell_angle_beta   89.99642593
_cell_angle_gamma   59.73617194
_symmetry_Int_Tables_number   1
_chemical_formula_structural   Sc2Al7N9
_chemical_formula_sum   'Sc8 Al28 N36'
_cell_volume   785.64049715
_cell_formula_units_Z   4
loop_
 _symmetry_equiv_pos_site_id
 _symmetry_equiv_pos_as_xyz
  1  'x, y, z'
loop_
 _atom_site_type_symbol
 _atom_site_label
 _atom_site_symmetry_multiplicity
 _atom_site_fract_x
 _atom_site_fract_y
 _atom_site_fract_z
 _atom_site_occupancy
  Sc  Sc0  1  0.10957900  0.09444410  0.35746663  1
  Sc  Sc1  1  0.22474242  0.21509740  0.10313040  1
  Sc  Sc2  1  0.10805633  0.09705348  0.84860373  1
  Sc  Sc3  1  0.77934681  0.43143470  0.34867925  1
  Sc  Sc4  1  0.55158003  0.53573991  0.60610924  1
  Sc  Sc5  1  0.22209667  0.86183569  0.10265302  1
  Sc  Sc6  1  0.88703219  0.87519800  0.60338766  1
  Sc  Sc7  1  0.56000347  0.87061863  0.10325848  1
  Al  Al8  1  0.77027483  0.09908117  0.85290463  1
  Al  Al9  1  0.88143146  0.20876464  0.60406808  1
  Al  Al10  1  0.45006452  0.09770329  0.35611142  1
  Al  Al11  1  0.55779988  0.20820541  0.09733196  1
  Al  Al12  1  0.22709385  0.21263624  0.60229319  1
  Al  Al13  1  0.77160799  0.09474658  0.34316894  1
  Al  Al14  1  0.88027718  0.20729503  0.09655387  1
  Al  Al15  1  0.45009794  0.09644858  0.84167489  1
  Al  Al16  1  0.55323272  0.20777478  0.59750630  1
  Al  Al17  1  0.11293775  0.43662153  0.35685055  1
  Al  Al18  1  0.22027003  0.53910923  0.09902260  1
  Al  Al19  1  0.77773365  0.42947213  0.85497084  1
  Al  Al20  1  0.89226130  0.53775723  0.60659794  1
  Al  Al21  1  0.44002878  0.42617180  0.34493550  1
  Al  Al22  1  0.55495942  0.53293222  0.09768186  1
  Al  Al23  1  0.11155443  0.43449685  0.84788093  1
  Al  Al24  1  0.22400136  0.53495997  0.60188635  1
  Al  Al25  1  0.89324496  0.54205907  0.09608518  1
  Al  Al26  1  0.44100742  0.42392201  0.85313833  1
  Al  Al27  1  0.11276872  0.75275974  0.35264057  1
  Al  Al28  1  0.77895301  0.75882848  0.85055413  1
  Al  Al29  1  0.44484487  0.75740192  0.35625867  1
  Al  Al30  1  0.11305515  0.75323511  0.84999096  1
  Al  Al31  1  0.22579748  0.86514484  0.60361183  1
  Al  Al32  1  0.78154061  0.75997011  0.35385242  1
  Al  Al33  1  0.88927988  0.86983734  0.10020781  1
  Al  Al34  1  0.44713560  0.75746958  0.85124791  1
  Al  Al35  1  0.55381945  0.87286419  0.60209266  1
  N  N36  1  0.23020658  0.21818645  0.36536646  1
  N  N37  1  0.09656378  0.10312537  0.10258827  1
  N  N38  1  0.86923301  0.21406605  0.85562893  1
  N  N39  1  0.76587055  0.11177611  0.61010663  1
  N  N40  1  0.55593633  0.20797105  0.35654840  1
  N  N41  1  0.45640673  0.10251228  0.11130910  1
  N  N42  1  0.23252695  0.21561657  0.84221256  1
  N  N43  1  0.10848428  0.09473023  0.60370871  1
  N  N44  1  0.87549425  0.19918556  0.35501828  1
  N  N45  1  0.77592939  0.09422229  0.10279171  1
  N  N46  1  0.55438479  0.20574043  0.85803739  1
  N  N47  1  0.45032113  0.09332644  0.60258117  1
  N  N48  1  0.22467776  0.53704696  0.35435387  1
  N  N49  1  0.10406092  0.44551909  0.10132299  1
  N  N50  1  0.89071201  0.53871230  0.85403450  1
  N  N51  1  0.79343157  0.42247687  0.61091330  1
  N  N52  1  0.54067598  0.54137998  0.34820768  1
  N  N53  1  0.44266480  0.42629515  0.10246768  1
  N  N54  1  0.22262118  0.53837942  0.85598427  1
  N  N55  1  0.10945524  0.43388116  0.60640549  1
  N  N56  1  0.89992756  0.54764228  0.35464223  1
  N  N57  1  0.77926068  0.42949126  0.09379583  1
  N  N58  1  0.55445353  0.53561054  0.86012373  1
  N  N59  1  0.43407665  0.41765058  0.60989918  1
  N  N60  1  0.22856312  0.85435560  0.36112594  1
  N  N61  1  0.10253960  0.75045282  0.10559260  1
  N  N62  1  0.88872489  0.87309130  0.86026085  1
  N  N63  1  0.77123925  0.75289794  0.60656023  1
  N  N64  1  0.55688235  0.87051849  0.36249526  1
  N  N65  1  0.45508468  0.74294777  0.10162760  1
  N  N66  1  0.22895894  0.85421822  0.84548390  1
  N  N67  1  0.12565699  0.74926689  0.60363940  1
  N  N68  1  0.88655397  0.87390638  0.34666731  1
  N  N69  1  0.79261409  0.75381158  0.10044930  1
  N  N70  1  0.55450205  0.87389695  0.84495417  1
  N  N71  1  0.43909441  0.77406855  0.60430952  1
