# generated using pymatgen
data_Sc2Al7N9
_symmetry_space_group_name_H-M   'P 1'
_cell_length_a   9.74113187
_cell_length_b   9.73972596
_cell_length_c   10.14074510
_cell_angle_alpha   89.90343548
_cell_angle_beta   89.93002885
_cell_angle_gamma   59.82980814
_symmetry_Int_Tables_number   1
_chemical_formula_structural   Sc2Al7N9
_chemical_formula_sum   'Sc8 Al28 N36'
_cell_volume   831.78032354
_cell_formula_units_Z   4
loop_
 _symmetry_equiv_pos_site_id
 _symmetry_equiv_pos_as_xyz
  1  'x, y, z'
loop_
 _atom_site_type_symbol
 _atom_site_label
 _atom_site_symmetry_multiplicity
 _atom_site_fract_x
 _atom_site_fract_y
 _atom_site_fract_z
 _atom_site_occupancy
  Sc  Sc0  1  0.10933664  0.09586463  0.33821201  1
  Sc  Sc1  1  0.22197386  0.21423526  0.07239349  1
  Sc  Sc2  1  0.10939566  0.09486001  0.80874907  1
  Sc  Sc3  1  0.77396645  0.43418384  0.31625957  1
  Sc  Sc4  1  0.55402050  0.53547108  0.58556898  1
  Sc  Sc5  1  0.22074282  0.86634557  0.07704595  1
  Sc  Sc6  1  0.88807645  0.87365348  0.57716373  1
  Sc  Sc7  1  0.56045427  0.87035030  0.07601929  1
  Al  Al8  1  0.76932904  0.10071473  0.82100602  1
  Al  Al9  1  0.88239392  0.20843329  0.56730435  1
  Al  Al10  1  0.45011145  0.09918912  0.32358956  1
  Al  Al11  1  0.55769995  0.20803707  0.06813104  1
  Al  Al12  1  0.22743255  0.21168496  0.56517837  1
  Al  Al13  1  0.77243090  0.09328255  0.31367087  1
  Al  Al14  1  0.88004705  0.20872678  0.06389012  1
  Al  Al15  1  0.44892242  0.09509138  0.81019794  1
  Al  Al16  1  0.55270285  0.20737973  0.56684668  1
  Al  Al17  1  0.11295905  0.43759846  0.32036095  1
  Al  Al18  1  0.21934988  0.53967925  0.06844013  1
  Al  Al19  1  0.78098174  0.42758424  0.82119224  1
  Al  Al20  1  0.89413543  0.53680791  0.57046787  1
  Al  Al21  1  0.44154267  0.42791666  0.31589555  1
  Al  Al22  1  0.55632368  0.53336104  0.05866027  1
  Al  Al23  1  0.11261281  0.43245947  0.81310067  1
  Al  Al24  1  0.22475203  0.53392527  0.56615109  1
  Al  Al25  1  0.89182736  0.54068389  0.06389803  1
  Al  Al26  1  0.43915330  0.42269797  0.82032747  1
  Al  Al27  1  0.10914986  0.75381417  0.31697546  1
  Al  Al28  1  0.77532161  0.75855809  0.81600758  1
  Al  Al29  1  0.44681294  0.75199266  0.32066883  1
  Al  Al30  1  0.11782763  0.75263685  0.81691512  1
  Al  Al31  1  0.22756887  0.86453147  0.56177360  1
  Al  Al32  1  0.78424652  0.76088479  0.31771898  1
  Al  Al33  1  0.88962006  0.86986748  0.06597087  1
  Al  Al34  1  0.44380723  0.76433121  0.81314617  1
  Al  Al35  1  0.55327302  0.87350218  0.56542772  1
  N  N36  1  0.23316950  0.22065510  0.37618105  1
  N  N37  1  0.09058540  0.10723713  0.12524432  1
  N  N38  1  0.87171432  0.21221949  0.87689747  1
  N  N39  1  0.76466697  0.11557976  0.63366089  1
  N  N40  1  0.55708187  0.20778024  0.37725740  1
  N  N41  1  0.45581389  0.10498512  0.13822104  1
  N  N42  1  0.23134814  0.21402383  0.86127168  1
  N  N43  1  0.11229571  0.09314030  0.59372035  1
  N  N44  1  0.86865557  0.20250037  0.38257809  1
  N  N45  1  0.77704987  0.09360361  0.12204265  1
  N  N46  1  0.55336593  0.20408423  0.87875927  1
  N  N47  1  0.44879785  0.09263348  0.61968840  1
  N  N48  1  0.22481511  0.53864427  0.37662085  1
  N  N49  1  0.10101845  0.44758584  0.13221943  1
  N  N50  1  0.89223739  0.53878560  0.87421255  1
  N  N51  1  0.80144299  0.41714167  0.63071552  1
  N  N52  1  0.53991591  0.54094612  0.37824700  1
  N  N53  1  0.44411093  0.42814023  0.12184817  1
  N  N54  1  0.22095849  0.53783072  0.87884742  1
  N  N55  1  0.11159006  0.43093612  0.62459603  1
  N  N56  1  0.89908534  0.54845095  0.38268761  1
  N  N57  1  0.77616375  0.43035896  0.10578602  1
  N  N58  1  0.55335424  0.53904549  0.86209062  1
  N  N59  1  0.43174591  0.41450507  0.63365930  1
  N  N60  1  0.23026398  0.84947967  0.37135079  1
  N  N61  1  0.10061806  0.75092282  0.12896823  1
  N  N62  1  0.88902576  0.87140538  0.86810356  1
  N  N63  1  0.76746245  0.75150617  0.62861008  1
  N  N64  1  0.55658340  0.87029159  0.37105866  1
  N  N65  1  0.45816964  0.73685533  0.13399908  1
  N  N66  1  0.22988718  0.85596196  0.86884373  1
  N  N67  1  0.13208615  0.74817481  0.62805197  1
  N  N68  1  0.88748791  0.87480150  0.36754020  1
  N  N69  1  0.79631784  0.75144058  0.12834549  1
  N  N70  1  0.55390034  0.87419216  0.86542594  1
  N  N71  1  0.43483256  0.78156329  0.62582190  1
