# generated using pymatgen
data_Sc2Al7N9
_symmetry_space_group_name_H-M   'P 1'
_cell_length_a   9.73891049
_cell_length_b   9.74021652
_cell_length_c   10.14133167
_cell_angle_alpha   90.03297893
_cell_angle_beta   89.92558544
_cell_angle_gamma   59.84376534
_symmetry_Int_Tables_number   1
_chemical_formula_structural   Sc2Al7N9
_chemical_formula_sum   'Sc8 Al28 N36'
_cell_volume   831.79809947
_cell_formula_units_Z   4
loop_
 _symmetry_equiv_pos_site_id
 _symmetry_equiv_pos_as_xyz
  1  'x, y, z'
loop_
 _atom_site_type_symbol
 _atom_site_label
 _atom_site_symmetry_multiplicity
 _atom_site_fract_x
 _atom_site_fract_y
 _atom_site_fract_z
 _atom_site_occupancy
  Sc  Sc0  1  0.10950484  0.09315031  0.41822301  1
  Sc  Sc1  1  0.22121594  0.21429006  0.15153886  1
  Sc  Sc2  1  0.10880682  0.09701465  0.88315120  1
  Sc  Sc3  1  0.77987342  0.42963080  0.38861969  1
  Sc  Sc4  1  0.55647700  0.53435741  0.64886267  1
  Sc  Sc5  1  0.21929294  0.86799520  0.14744958  1
  Sc  Sc6  1  0.88826666  0.87331284  0.64521328  1
  Sc  Sc7  1  0.56049390  0.87104621  0.14937659  1
  Al  Al8  1  0.77144499  0.09598539  0.90847298  1
  Al  Al9  1  0.87972160  0.21190706  0.66260222  1
  Al  Al10  1  0.44815332  0.09538819  0.41312619  1
  Al  Al11  1  0.55747465  0.20793664  0.15526308  1
  Al  Al12  1  0.22748109  0.21178642  0.65865917  1
  Al  Al13  1  0.77068844  0.09717186  0.40202984  1
  Al  Al14  1  0.88267241  0.20386799  0.15064289  1
  Al  Al15  1  0.45048907  0.09896241  0.89997725  1
  Al  Al16  1  0.55249633  0.20772281  0.65567337  1
  Al  Al17  1  0.11363953  0.43499026  0.41023963  1
  Al  Al18  1  0.21961109  0.53948109  0.15497536  1
  Al  Al19  1  0.77340928  0.43105141  0.91309126  1
  Al  Al20  1  0.89168096  0.53425135  0.65865625  1
  Al  Al21  1  0.43701995  0.42522543  0.40271338  1
  Al  Al22  1  0.55154363  0.53558831  0.15603194  1
  Al  Al23  1  0.11179365  0.43506398  0.90261011  1
  Al  Al24  1  0.22432980  0.53442274  0.65693374  1
  Al  Al25  1  0.89471197  0.54397624  0.15173836  1
  Al  Al26  1  0.44439263  0.42630632  0.90812317  1
  Al  Al27  1  0.11722348  0.75303789  0.40584563  1
  Al  Al28  1  0.78163081  0.75941358  0.90443222  1
  Al  Al29  1  0.44060855  0.76406174  0.41006195  1
  Al  Al30  1  0.11019440  0.75318862  0.90673361  1
  Al  Al31  1  0.22796148  0.86290457  0.66250590  1
  Al  Al32  1  0.77763387  0.76002916  0.40764249  1
  Al  Al33  1  0.88889722  0.87040268  0.15674124  1
  Al  Al34  1  0.45078057  0.75134847  0.90438937  1
  Al  Al35  1  0.55310806  0.87307465  0.65707646  1
  N  N36  1  0.22973693  0.21497050  0.36348756  1
  N  N37  1  0.09348265  0.10614603  0.09349732  1
  N  N38  1  0.86122821  0.21920976  0.84949227  1
  N  N39  1  0.76594318  0.11657991  0.59104147  1
  N  N40  1  0.55341684  0.20440552  0.34529565  1
  N  N41  1  0.45527576  0.10504552  0.08568038  1
  N  N42  1  0.23439347  0.21967247  0.84665740  1
  N  N43  1  0.11036995  0.09310803  0.63456108  1
  N  N44  1  0.88247700  0.19184010  0.33644101  1
  N  N45  1  0.77570625  0.09245565  0.09831987  1
  N  N46  1  0.55714405  0.20779249  0.84481792  1
  N  N47  1  0.44864757  0.09270414  0.60312992  1
  N  N48  1  0.22159305  0.53813240  0.34460455  1
  N  N49  1  0.10411996  0.44643209  0.08871042  1
  N  N50  1  0.88844081  0.53720119  0.84968118  1
  N  N51  1  0.79963150  0.41712578  0.59700084  1
  N  N52  1  0.53422126  0.54742237  0.34989772  1
  N  N53  1  0.44292034  0.42696071  0.09928779  1
  N  N54  1  0.22477997  0.53807860  0.84614992  1
  N  N55  1  0.10939989  0.43201408  0.60081100  1
  N  N56  1  0.90290083  0.55002633  0.34000219  1
  N  N57  1  0.77716275  0.43020756  0.10875454  1
  N  N58  1  0.55783992  0.53383081  0.85761781  1
  N  N59  1  0.43301202  0.41648866  0.59091899  1
  N  N60  1  0.22739416  0.85875208  0.35578448  1
  N  N61  1  0.10050572  0.75107002  0.09483318  1
  N  N62  1  0.88855239  0.87393864  0.85420570  1
  N  N63  1  0.76894450  0.74862943  0.59666569  1
  N  N64  1  0.55436401  0.87303284  0.36015709  1
  N  N65  1  0.45586845  0.74148224  0.08963420  1
  N  N66  1  0.23373627  0.84629161  0.85181093  1
  N  N67  1  0.13177100  0.74809129  0.59478668  1
  N  N68  1  0.88807570  0.87197814  0.35585079  1
  N  N69  1  0.79474550  0.75457031  0.09184076  1
  N  N70  1  0.55631831  0.87140472  0.85076829  1
  N  N71  1  0.43607046  0.77823944  0.59833267  1
