# generated using pymatgen
data_Sc2Al7N9
_symmetry_space_group_name_H-M   'P 1'
_cell_length_a   10.24135833
_cell_length_b   10.25089390
_cell_length_c   8.70979620
_cell_angle_alpha   90.01552327
_cell_angle_beta   90.00901253
_cell_angle_gamma   59.71377582
_symmetry_Int_Tables_number   1
_chemical_formula_structural   Sc2Al7N9
_chemical_formula_sum   'Sc8 Al28 N36'
_cell_volume   789.58353638
_cell_formula_units_Z   4
loop_
 _symmetry_equiv_pos_site_id
 _symmetry_equiv_pos_as_xyz
  1  'x, y, z'
loop_
 _atom_site_type_symbol
 _atom_site_label
 _atom_site_symmetry_multiplicity
 _atom_site_fract_x
 _atom_site_fract_y
 _atom_site_fract_z
 _atom_site_occupancy
  Sc  Sc0  1  0.10955680  0.09473994  0.35813422  1
  Sc  Sc1  1  0.22454429  0.21619443  0.10493931  1
  Sc  Sc2  1  0.10832082  0.09697701  0.84986737  1
  Sc  Sc3  1  0.77987264  0.43168447  0.34914471  1
  Sc  Sc4  1  0.55187860  0.53526079  0.60634350  1
  Sc  Sc5  1  0.22236279  0.86186816  0.10364132  1
  Sc  Sc6  1  0.88768047  0.87461349  0.60518625  1
  Sc  Sc7  1  0.56000905  0.87084617  0.10448300  1
  Al  Al8  1  0.77065778  0.09812331  0.86470525  1
  Al  Al9  1  0.88157454  0.20930410  0.61274811  1
  Al  Al10  1  0.45007488  0.09692882  0.36933182  1
  Al  Al11  1  0.55818953  0.20803688  0.11372297  1
  Al  Al12  1  0.22709936  0.21167926  0.60690759  1
  Al  Al13  1  0.77110983  0.09549649  0.35732813  1
  Al  Al14  1  0.88055410  0.20631607  0.10504785  1
  Al  Al15  1  0.45020061  0.09732997  0.85395976  1
  Al  Al16  1  0.55300365  0.20788560  0.61441278  1
  Al  Al17  1  0.11300053  0.43707867  0.37164581  1
  Al  Al18  1  0.22000844  0.53863231  0.11194003  1
  Al  Al19  1  0.77639085  0.42956329  0.86046119  1
  Al  Al20  1  0.89097885  0.53719831  0.61876182  1
  Al  Al21  1  0.43848206  0.42550547  0.35903373  1
  Al  Al22  1  0.55481860  0.53264585  0.10258414  1
  Al  Al23  1  0.11178407  0.43456084  0.85625868  1
  Al  Al24  1  0.22443253  0.53552560  0.61740981  1
  Al  Al25  1  0.89452633  0.54261047  0.10387061  1
  Al  Al26  1  0.44255593  0.42453966  0.86674673  1
  Al  Al27  1  0.11367555  0.75239709  0.36075171  1
  Al  Al28  1  0.77903036  0.75934672  0.85747486  1
  Al  Al29  1  0.44422592  0.75853336  0.36111223  1
  Al  Al30  1  0.11217607  0.75348468  0.85987755  1
  Al  Al31  1  0.22529506  0.86562953  0.60651218  1
  Al  Al32  1  0.78140212  0.75936603  0.36183462  1
  Al  Al33  1  0.88866739  0.87043268  0.10557427  1
  Al  Al34  1  0.44775679  0.75615041  0.85513632  1
  Al  Al35  1  0.55369568  0.87278602  0.60759071  1
  N  N36  1  0.23127074  0.21851399  0.36292740  1
  N  N37  1  0.09734111  0.10324604  0.10094102  1
  N  N38  1  0.86834369  0.21397064  0.84913316  1
  N  N39  1  0.76610091  0.11255088  0.59384568  1
  N  N40  1  0.55476131  0.20572431  0.34312569  1
  N  N41  1  0.45653397  0.10316592  0.08941358  1
  N  N42  1  0.23166118  0.21591843  0.83892953  1
  N  N43  1  0.10791444  0.09484761  0.60335638  1
  N  N44  1  0.87603141  0.19914059  0.34241112  1
  N  N45  1  0.77570217  0.09357193  0.09539229  1
  N  N46  1  0.55561009  0.20785079  0.84338404  1
  N  N47  1  0.45045806  0.09299154  0.59967712  1
  N  N48  1  0.22258149  0.53754973  0.34154702  1
  N  N49  1  0.10470529  0.44588350  0.08490938  1
  N  N50  1  0.88894147  0.53890594  0.84840672  1
  N  N51  1  0.79374932  0.42207355  0.60530341  1
  N  N52  1  0.53991381  0.54222539  0.34590905  1
  N  N53  1  0.44292933  0.42596934  0.09604766  1
  N  N54  1  0.22511707  0.53781355  0.84478431  1
  N  N55  1  0.10839118  0.43488757  0.60139376  1
  N  N56  1  0.90189822  0.54730881  0.34090150  1
  N  N57  1  0.77894294  0.42932194  0.09255442  1
  N  N58  1  0.55462507  0.53457720  0.85669112  1
  N  N59  1  0.43333040  0.41735619  0.59162800  1
  N  N60  1  0.22831239  0.85485325  0.35757582  1
  N  N61  1  0.10210507  0.75050160  0.09524299  1
  N  N62  1  0.88784969  0.87410412  0.85516994  1
  N  N63  1  0.77143846  0.75152553  0.59902293  1
  N  N64  1  0.55579410  0.87229221  0.35903553  1
  N  N65  1  0.45555601  0.74245621  0.09543605  1
  N  N66  1  0.22908699  0.85364994  0.84391412  1
  N  N67  1  0.12659441  0.74885295  0.59603297  1
  N  N68  1  0.88742107  0.87285340  0.34483624  1
  N  N69  1  0.79255205  0.75471205  0.09221759  1
  N  N70  1  0.55544290  0.87219363  0.84246167  1
  N  N71  1  0.43868340  0.77441663  0.60034202  1
