# generated using pymatgen
data_Sc2Al7N9
_symmetry_space_group_name_H-M   'P 1'
_cell_length_a   10.15464892
_cell_length_b   10.16324596
_cell_length_c   8.96454664
_cell_angle_alpha   90.02118131
_cell_angle_beta   90.01256479
_cell_angle_gamma   59.71051054
_symmetry_Int_Tables_number   1
_chemical_formula_structural   Sc2Al7N9
_chemical_formula_sum   'Sc8 Al28 N36'
_cell_volume   798.88083249
_cell_formula_units_Z   4
loop_
 _symmetry_equiv_pos_site_id
 _symmetry_equiv_pos_as_xyz
  1  'x, y, z'
loop_
 _atom_site_type_symbol
 _atom_site_label
 _atom_site_symmetry_multiplicity
 _atom_site_fract_x
 _atom_site_fract_y
 _atom_site_fract_z
 _atom_site_occupancy
  Sc  Sc0  1  0.10967789  0.09437525  0.36032081  1
  Sc  Sc1  1  0.22496473  0.21637354  0.10785840  1
  Sc  Sc2  1  0.10844071  0.09732571  0.85182898  1
  Sc  Sc3  1  0.78071642  0.43119272  0.35041115  1
  Sc  Sc4  1  0.55303173  0.53420186  0.60727370  1
  Sc  Sc5  1  0.22267811  0.86181095  0.10539932  1
  Sc  Sc6  1  0.88794687  0.87442112  0.60639810  1
  Sc  Sc7  1  0.55995986  0.87115688  0.10649492  1
  Al  Al8  1  0.77097695  0.09695653  0.87190580  1
  Al  Al9  1  0.88105443  0.21039646  0.62169120  1
  Al  Al10  1  0.45011063  0.09616658  0.37762903  1
  Al  Al11  1  0.55847045  0.20726682  0.12063820  1
  Al  Al12  1  0.22628370  0.21142039  0.61134336  1
  Al  Al13  1  0.77026873  0.09676928  0.36574473  1
  Al  Al14  1  0.88089263  0.20501406  0.11207535  1
  Al  Al15  1  0.45043263  0.09830523  0.85923730  1
  Al  Al16  1  0.55302176  0.20850674  0.62126119  1
  Al  Al17  1  0.11287114  0.43744369  0.37837583  1
  Al  Al18  1  0.21927825  0.53889440  0.11851651  1
  Al  Al19  1  0.77471946  0.43026612  0.86975948  1
  Al  Al20  1  0.89006334  0.53643139  0.62617368  1
  Al  Al21  1  0.43744117  0.42506380  0.36495512  1
  Al  Al22  1  0.55414657  0.53291903  0.11124460  1
  Al  Al23  1  0.11190392  0.43479260  0.86129301  1
  Al  Al24  1  0.22501987  0.53537698  0.62398551  1
  Al  Al25  1  0.89554661  0.54360631  0.11111984  1
  Al  Al26  1  0.44360740  0.42487291  0.87391487  1
  Al  Al27  1  0.11560052  0.75198175  0.36820798  1
  Al  Al28  1  0.78034144  0.75975786  0.86481113  1
  Al  Al29  1  0.44304658  0.76096274  0.37074689  1
  Al  Al30  1  0.11054918  0.75361142  0.86759223  1
  Al  Al31  1  0.22484106  0.86630815  0.61452412  1
  Al  Al32  1  0.77988144  0.75900050  0.37030004  1
  Al  Al33  1  0.88845061  0.87054977  0.11524275  1
  Al  Al34  1  0.44908338  0.75348579  0.86241407  1
  Al  Al35  1  0.55378070  0.87257833  0.61614951  1
  N  N36  1  0.23165206  0.21857448  0.35878071  1
  N  N37  1  0.09742857  0.10366330  0.09810795  1
  N  N38  1  0.86694689  0.21507391  0.84322787  1
  N  N39  1  0.76563604  0.11448021  0.58491879  1
  N  N40  1  0.55424170  0.20462794  0.33633890  1
  N  N41  1  0.45714721  0.10395291  0.07834545  1
  N  N42  1  0.23168860  0.21654083  0.83612426  1
  N  N43  1  0.10790742  0.09457046  0.60369132  1
  N  N44  1  0.87619295  0.19778743  0.33189921  1
  N  N45  1  0.77581704  0.09250792  0.08882396  1
  N  N46  1  0.55637996  0.20868038  0.83619966  1
  N  N47  1  0.45053495  0.09265983  0.59611536  1
  N  N48  1  0.22177628  0.53775272  0.33461336  1
  N  N49  1  0.10480859  0.44654202  0.07680190  1
  N  N50  1  0.88791571  0.53840786  0.84296087  1
  N  N51  1  0.79518198  0.42111920  0.59515965  1
  N  N52  1  0.53842116  0.54388666  0.34344221  1
  N  N53  1  0.44319535  0.42584229  0.09139949  1
  N  N54  1  0.22599003  0.53779798  0.83842917  1
  N  N55  1  0.10776667  0.43529732  0.59651275  1
  N  N56  1  0.90306306  0.54824385  0.33150984  1
  N  N57  1  0.77837074  0.42943735  0.09240331  1
  N  N58  1  0.55563987  0.53313014  0.84956637  1
  N  N59  1  0.43248460  0.41656440  0.58258520  1
  N  N60  1  0.22849947  0.85504162  0.35006405  1
  N  N61  1  0.10095099  0.75053127  0.08760543  1
  N  N62  1  0.88781472  0.87446461  0.84627979  1
  N  N63  1  0.77071390  0.75030371  0.59148846  1
  N  N64  1  0.55503727  0.87295640  0.35214735  1
  N  N65  1  0.45654992  0.74119688  0.08455162  1
  N  N66  1  0.22931898  0.85263976  0.84205140  1
  N  N67  1  0.12848536  0.74821907  0.58845839  1
  N  N68  1  0.88734176  0.87253498  0.34370355  1
  N  N69  1  0.79339940  0.75522516  0.08386581  1
  N  N70  1  0.55606157  0.87150438  0.84007248  1
  N  N71  1  0.43782131  0.77572480  0.59413244  1
