# generated using pymatgen
data_Sc2Al7N9
_symmetry_space_group_name_H-M   'P 1'
_cell_length_a   10.21345133
_cell_length_b   10.22278242
_cell_length_c   8.79012892
_cell_angle_alpha   90.01876423
_cell_angle_beta   90.01052304
_cell_angle_gamma   59.71180850
_symmetry_Int_Tables_number   1
_chemical_formula_structural   Sc2Al7N9
_chemical_formula_sum   'Sc8 Al28 N36'
_cell_volume   792.49943245
_cell_formula_units_Z   4
loop_
 _symmetry_equiv_pos_site_id
 _symmetry_equiv_pos_as_xyz
  1  'x, y, z'
loop_
 _atom_site_type_symbol
 _atom_site_label
 _atom_site_symmetry_multiplicity
 _atom_site_fract_x
 _atom_site_fract_y
 _atom_site_fract_z
 _atom_site_occupancy
  Sc  Sc0  1  0.10950712  0.09472641  0.35868552  1
  Sc  Sc1  1  0.22472896  0.21628840  0.10573709  1
  Sc  Sc2  1  0.10845129  0.09699854  0.85046601  1
  Sc  Sc3  1  0.78009884  0.43158259  0.34949213  1
  Sc  Sc4  1  0.55217397  0.53487900  0.60662514  1
  Sc  Sc5  1  0.22248881  0.86183191  0.10421110  1
  Sc  Sc6  1  0.88777345  0.87459333  0.60568910  1
  Sc  Sc7  1  0.55997434  0.87102006  0.10511500  1
  Al  Al8  1  0.77071820  0.09777074  0.86770702  1
  Al  Al9  1  0.88144713  0.20961439  0.61616360  1
  Al  Al10  1  0.45007126  0.09671492  0.37271804  1
  Al  Al11  1  0.55826745  0.20773819  0.11657370  1
  Al  Al12  1  0.22677469  0.21156874  0.60824021  1
  Al  Al13  1  0.77084907  0.09588888  0.36051623  1
  Al  Al14  1  0.88069100  0.20590939  0.10765130  1
  Al  Al15  1  0.45029519  0.09764042  0.85577141  1
  Al  Al16  1  0.55304751  0.20815237  0.61712100  1
  Al  Al17  1  0.11291750  0.43726082  0.37438161  1
  Al  Al18  1  0.21972625  0.53868308  0.11445678  1
  Al  Al19  1  0.77586406  0.42974797  0.86333351  1
  Al  Al20  1  0.89063667  0.53695029  0.62185470  1
  Al  Al21  1  0.43810503  0.42538653  0.36114694  1
  Al  Al22  1  0.55473258  0.53266391  0.10483093  1
  Al  Al23  1  0.11189017  0.43458552  0.85795249  1
  Al  Al24  1  0.22468979  0.53549282  0.62003095  1
  Al  Al25  1  0.89491258  0.54289927  0.10637042  1
  Al  Al26  1  0.44291711  0.42458951  0.86965258  1
  Al  Al27  1  0.11420835  0.75225331  0.36346573  1
  Al  Al28  1  0.77937374  0.75952289  0.86015279  1
  Al  Al29  1  0.44388343  0.75926615  0.36443467  1
  Al  Al30  1  0.11170982  0.75352403  0.86270383  1
  Al  Al31  1  0.22507187  0.86591992  0.60866340  1
  Al  Al32  1  0.78101265  0.75919149  0.36501407  1
  Al  Al33  1  0.88856207  0.87049055  0.10841212  1
  Al  Al34  1  0.44814297  0.75536596  0.85755391  1
  Al  Al35  1  0.55374862  0.87267387  0.61019338  1
  N  N36  1  0.23142670  0.21857445  0.36178530  1
  N  N37  1  0.09747040  0.10334557  0.10012301  1
  N  N38  1  0.86793081  0.21422236  0.84702045  1
  N  N39  1  0.76597213  0.11320333  0.59018366  1
  N  N40  1  0.55453612  0.20527249  0.34052417  1
  N  N41  1  0.45674886  0.10344786  0.08496374  1
  N  N42  1  0.23162401  0.21609059  0.83797923  1
  N  N43  1  0.10782795  0.09481263  0.60341453  1
  N  N44  1  0.87606856  0.19877974  0.33834228  1
  N  N45  1  0.77567813  0.09325714  0.09303300  1
  N  N46  1  0.55592320  0.20821161  0.84053360  1
  N  N47  1  0.45049922  0.09290807  0.59861340  1
  N  N48  1  0.22222069  0.53762359  0.33887764  1
  N  N49  1  0.10480920  0.44606706  0.08164801  1
  N  N50  1  0.88856384  0.53875831  0.84658524  1
  N  N51  1  0.79413854  0.42180083  0.60220932  1
  N  N52  1  0.53942724  0.54280573  0.34516201  1
  N  N53  1  0.44302821  0.42586935  0.09450318  1
  N  N54  1  0.22554881  0.53776316  0.84241668  1
  N  N55  1  0.10810917  0.43510321  0.59984642  1
  N  N56  1  0.90236040  0.54755138  0.33714783  1
  N  N57  1  0.77880115  0.42931815  0.09242053  1
  N  N58  1  0.55493067  0.53403360  0.85471360  1
  N  N59  1  0.43301692  0.41708931  0.58801952  1
  N  N60  1  0.22831918  0.85497929  0.35546608  1
  N  N61  1  0.10178399  0.75048831  0.09243927  1
  N  N62  1  0.88780444  0.87430026  0.85246085  1
  N  N63  1  0.77132348  0.75104872  0.59634721  1
  N  N64  1  0.55551504  0.87258554  0.35708257  1
  N  N65  1  0.45585264  0.74213046  0.09169438  1
  N  N66  1  0.22913393  0.85333229  0.84333186  1
  N  N67  1  0.12714892  0.74862483  0.59334970  1
  N  N68  1  0.88741653  0.87269918  0.34442150  1
  N  N69  1  0.79274675  0.75491405  0.08908442  1
  N  N70  1  0.55568630  0.87190311  0.84160454  1
  N  N71  1  0.43842785  0.77474653  0.59836374  1
