# generated using pymatgen
data_Sc2Al7N9
_symmetry_space_group_name_H-M   'P 1'
_cell_length_a   9.87329791
_cell_length_b   9.87589266
_cell_length_c   9.78807496
_cell_angle_alpha   89.92585880
_cell_angle_beta   89.93938293
_cell_angle_gamma   59.76497700
_symmetry_Int_Tables_number   1
_chemical_formula_structural   Sc2Al7N9
_chemical_formula_sum   'Sc8 Al28 N36'
_cell_volume   824.57984039
_cell_formula_units_Z   4
loop_
 _symmetry_equiv_pos_site_id
 _symmetry_equiv_pos_as_xyz
  1  'x, y, z'
loop_
 _atom_site_type_symbol
 _atom_site_label
 _atom_site_symmetry_multiplicity
 _atom_site_fract_x
 _atom_site_fract_y
 _atom_site_fract_z
 _atom_site_occupancy
  Sc  Sc0  1  0.10861952  0.09644865  0.34526772  1
  Sc  Sc1  1  0.22441505  0.21483219  0.08603397  1
  Sc  Sc2  1  0.11043774  0.09447012  0.82969087  1
  Sc  Sc3  1  0.77340019  0.43411785  0.33433107  1
  Sc  Sc4  1  0.55006033  0.53681331  0.60029102  1
  Sc  Sc5  1  0.22223034  0.86267665  0.09204677  1
  Sc  Sc6  1  0.88734863  0.87377825  0.59379670  1
  Sc  Sc7  1  0.56007793  0.87042197  0.09213092  1
  Al  Al8  1  0.76793098  0.10294635  0.82934254  1
  Al  Al9  1  0.88322895  0.20677686  0.57709416  1
  Al  Al10  1  0.45046294  0.10039554  0.33361190  1
  Al  Al11  1  0.55877681  0.20750242  0.07642482  1
  Al  Al12  1  0.22629879  0.21163357  0.57580094  1
  Al  Al13  1  0.77329632  0.09155099  0.32215695  1
  Al  Al14  1  0.87854018  0.21041831  0.07336588  1
  Al  Al15  1  0.44944362  0.09458306  0.81902999  1
  Al  Al16  1  0.55251454  0.20806231  0.57454663  1
  Al  Al17  1  0.11251744  0.43873110  0.32817976  1
  Al  Al18  1  0.21847863  0.54037716  0.07662621  1
  Al  Al19  1  0.78175218  0.42802741  0.82628083  1
  Al  Al20  1  0.89392514  0.53858377  0.57824405  1
  Al  Al21  1  0.44193397  0.42806414  0.32279991  1
  Al  Al22  1  0.55864235  0.53168225  0.06607101  1
  Al  Al23  1  0.11273587  0.43251610  0.82218454  1
  Al  Al24  1  0.22509137  0.53323410  0.57366417  1
  Al  Al25  1  0.89146867  0.54005869  0.07322375  1
  Al  Al26  1  0.43792149  0.42140654  0.83018140  1
  Al  Al27  1  0.10712068  0.75387213  0.32728200  1
  Al  Al28  1  0.77310984  0.75832728  0.82627168  1
  Al  Al29  1  0.44765299  0.74939812  0.32964459  1
  Al  Al30  1  0.12035067  0.75147861  0.82470264  1
  Al  Al31  1  0.22664540  0.86625673  0.57078859  1
  Al  Al32  1  0.78665875  0.76074777  0.32547194  1
  Al  Al33  1  0.89001554  0.86967861  0.07074063  1
  Al  Al34  1  0.44336016  0.76634057  0.82341253  1
  Al  Al35  1  0.55331152  0.87314093  0.57173424  1
  N  N36  1  0.23172630  0.22058811  0.37741246  1
  N  N37  1  0.09225450  0.10615760  0.12037628  1
  N  N38  1  0.86875058  0.21531699  0.87908275  1
  N  N39  1  0.76324317  0.11682002  0.63664074  1
  N  N40  1  0.55751077  0.20872971  0.38005130  1
  N  N41  1  0.45788951  0.10551006  0.14229775  1
  N  N42  1  0.23301110  0.21525400  0.86644615  1
  N  N43  1  0.11185914  0.09329202  0.60344857  1
  N  N44  1  0.87138912  0.19905439  0.38462073  1
  N  N45  1  0.77824311  0.09236206  0.12441827  1
  N  N46  1  0.55346045  0.20355341  0.88224304  1
  N  N47  1  0.44921446  0.09216005  0.62149101  1
  N  N48  1  0.22552684  0.53792749  0.37896681  1
  N  N49  1  0.10072389  0.44868879  0.13441838  1
  N  N50  1  0.89169267  0.53791436  0.87733715  1
  N  N51  1  0.79953084  0.41896297  0.62750855  1
  N  N52  1  0.53777977  0.54061602  0.38505895  1
  N  N53  1  0.44478251  0.42807014  0.12339377  1
  N  N54  1  0.22031803  0.53822814  0.88228688  1
  N  N55  1  0.11096223  0.43164519  0.62790935  1
  N  N56  1  0.90001860  0.54981092  0.38484482  1
  N  N57  1  0.77646179  0.43013154  0.11490707  1
  N  N58  1  0.55437353  0.53874801  0.86262005  1
  N  N59  1  0.43042467  0.41353469  0.63796716  1
  N  N60  1  0.22919285  0.85119521  0.37077658  1
  N  N61  1  0.09863478  0.75067846  0.13258506  1
  N  N62  1  0.88937946  0.87152844  0.86711577  1
  N  N63  1  0.76559723  0.75176703  0.63257958  1
  N  N64  1  0.55737262  0.86945878  0.37102423  1
  N  N65  1  0.46010955  0.73390178  0.13652195  1
  N  N66  1  0.23105014  0.85341385  0.87541784  1
  N  N67  1  0.13362553  0.74738879  0.62966954  1
  N  N68  1  0.88679510  0.87489733  0.37571332  1
  N  N69  1  0.79754234  0.75190257  0.12922697  1
  N  N70  1  0.55291832  0.87522023  0.87313077  1
  N  N71  1  0.43416674  0.78329524  0.62862395  1
