# generated using pymatgen
data_Sc2Al7N9
_symmetry_space_group_name_H-M   'P 1'
_cell_length_a   9.73922607
_cell_length_b   9.74061358
_cell_length_c   10.14034306
_cell_angle_alpha   90.04142795
_cell_angle_beta   89.92558819
_cell_angle_gamma   59.84397305
_symmetry_Int_Tables_number   1
_chemical_formula_structural   Sc2Al7N9
_chemical_formula_sum   'Sc8 Al28 N36'
_cell_volume   831.77940922
_cell_formula_units_Z   4
loop_
 _symmetry_equiv_pos_site_id
 _symmetry_equiv_pos_as_xyz
  1  'x, y, z'
loop_
 _atom_site_type_symbol
 _atom_site_label
 _atom_site_symmetry_multiplicity
 _atom_site_fract_x
 _atom_site_fract_y
 _atom_site_fract_z
 _atom_site_occupancy
  Sc  Sc0  1  0.10953399  0.09313779  0.40628051  1
  Sc  Sc1  1  0.22120752  0.21434865  0.13962206  1
  Sc  Sc2  1  0.10880774  0.09706676  0.87121566  1
  Sc  Sc3  1  0.77994007  0.42961771  0.37664981  1
  Sc  Sc4  1  0.55650382  0.53437764  0.63684891  1
  Sc  Sc5  1  0.21931125  0.86802503  0.13545595  1
  Sc  Sc6  1  0.88828932  0.87331851  0.63323752  1
  Sc  Sc7  1  0.56048945  0.87108278  0.13740821  1
  Al  Al8  1  0.77145782  0.09599222  0.89653500  1
  Al  Al9  1  0.87973204  0.21192594  0.65068122  1
  Al  Al10  1  0.44817709  0.09538986  0.40119878  1
  Al  Al11  1  0.55748836  0.20795826  0.14333687  1
  Al  Al12  1  0.22749412  0.21180967  0.64671871  1
  Al  Al13  1  0.77070414  0.09718913  0.39011845  1
  Al  Al14  1  0.88268714  0.20387227  0.13870025  1
  Al  Al15  1  0.45048148  0.09900351  0.88805632  1
  Al  Al16  1  0.55251008  0.20773502  0.64376450  1
  Al  Al17  1  0.11366358  0.43501062  0.39832942  1
  Al  Al18  1  0.21963170  0.53950784  0.14304871  1
  Al  Al19  1  0.77339817  0.43108345  0.90116752  1
  Al  Al20  1  0.89168971  0.53426536  0.64672801  1
  Al  Al21  1  0.43704357  0.42521271  0.39080469  1
  Al  Al22  1  0.55155736  0.53559871  0.14415113  1
  Al  Al23  1  0.11179979  0.43509974  0.89067887  1
  Al  Al24  1  0.22435065  0.53444545  0.64501956  1
  Al  Al25  1  0.89472624  0.54401569  0.13980811  1
  Al  Al26  1  0.44441587  0.42633469  0.89618300  1
  Al  Al27  1  0.11727690  0.75303824  0.39390944  1
  Al  Al28  1  0.78164568  0.75943870  0.89250161  1
  Al  Al29  1  0.44062687  0.76408486  0.39812321  1
  Al  Al30  1  0.11018673  0.75321780  0.89480712  1
  Al  Al31  1  0.22797896  0.86292431  0.65060475  1
  Al  Al32  1  0.77764094  0.76003836  0.39570999  1
  Al  Al33  1  0.88890882  0.87042635  0.14484418  1
  Al  Al34  1  0.45080549  0.75134170  0.89245739  1
  Al  Al35  1  0.55311595  0.87309747  0.64516639  1
  N  N36  1  0.22975547  0.21497952  0.35159388  1
  N  N37  1  0.09349883  0.10618626  0.08157946  1
  N  N38  1  0.86123216  0.21923060  0.83759061  1
  N  N39  1  0.76595295  0.11659582  0.57914111  1
  N  N40  1  0.55344347  0.20440284  0.33338241  1
  N  N41  1  0.45526248  0.10508996  0.07377329  1
  N  N42  1  0.23440080  0.21970771  0.83473452  1
  N  N43  1  0.11038485  0.09311428  0.62264581  1
  N  N44  1  0.88251026  0.19181765  0.32451518  1
  N  N45  1  0.77572218  0.09245588  0.08639794  1
  N  N46  1  0.55715537  0.20780574  0.83291480  1
  N  N47  1  0.44867096  0.09270964  0.59121760  1
  N  N48  1  0.22163231  0.53812488  0.33269087  1
  N  N49  1  0.10413041  0.44647088  0.07678969  1
  N  N50  1  0.88844191  0.53721975  0.83777039  1
  N  N51  1  0.79968503  0.41710844  0.58505174  1
  N  N52  1  0.53426452  0.54740571  0.33804645  1
  N  N53  1  0.44294865  0.42697850  0.08737301  1
  N  N54  1  0.22479569  0.53810505  0.83424285  1
  N  N55  1  0.10941463  0.43204197  0.58890877  1
  N  N56  1  0.90294437  0.55003968  0.32808374  1
  N  N57  1  0.77717163  0.43022451  0.09686559  1
  N  N58  1  0.55785820  0.53384081  0.84563672  1
  N  N59  1  0.43302926  0.41648185  0.57901833  1
  N  N60  1  0.22743587  0.85874030  0.34381460  1
  N  N61  1  0.10050809  0.75109108  0.08292751  1
  N  N62  1  0.88856706  0.87394597  0.84225682  1
  N  N63  1  0.76894606  0.74863441  0.58475199  1
  N  N64  1  0.55438816  0.87303629  0.34821139  1
  N  N65  1  0.45591446  0.74145088  0.07772167  1
  N  N66  1  0.23373959  0.84632850  0.83993787  1
  N  N67  1  0.13181684  0.74809608  0.58287066  1
  N  N68  1  0.88810182  0.87198349  0.34397418  1
  N  N69  1  0.79475928  0.75460002  0.07993100  1
  N  N70  1  0.55632225  0.87142805  0.83887848  1
  N  N71  1  0.43607188  0.77828019  0.58641535  1
