# generated using pymatgen
data_Sc2Al7N9
_symmetry_space_group_name_H-M   'P 1'
_cell_length_a   9.95462121
_cell_length_b   9.96000398
_cell_length_c   9.55891188
_cell_angle_alpha   90.03212815
_cell_angle_beta   90.00762454
_cell_angle_gamma   59.72515820
_symmetry_Int_Tables_number   1
_chemical_formula_structural   Sc2Al7N9
_chemical_formula_sum   'Sc8 Al28 N36'
_cell_volume   818.49082924
_cell_formula_units_Z   4
loop_
 _symmetry_equiv_pos_site_id
 _symmetry_equiv_pos_as_xyz
  1  'x, y, z'
loop_
 _atom_site_type_symbol
 _atom_site_label
 _atom_site_symmetry_multiplicity
 _atom_site_fract_x
 _atom_site_fract_y
 _atom_site_fract_z
 _atom_site_occupancy
  Sc  Sc0  1  0.11120210  0.09245042  0.37229272  1
  Sc  Sc1  1  0.22438614  0.21613659  0.11761550  1
  Sc  Sc2  1  0.10737470  0.09901419  0.85716992  1
  Sc  Sc3  1  0.78254498  0.42964298  0.35494103  1
  Sc  Sc4  1  0.55533026  0.53383036  0.61031991  1
  Sc  Sc5  1  0.22224845  0.86300563  0.10988125  1
  Sc  Sc6  1  0.88842895  0.87339159  0.60915108  1
  Sc  Sc7  1  0.56027613  0.87070434  0.11214526  1
  Al  Al8  1  0.77188777  0.09515890  0.87911542  1
  Al  Al9  1  0.88000824  0.21245003  0.63210419  1
  Al  Al10  1  0.44947333  0.09487079  0.38496056  1
  Al  Al11  1  0.55894237  0.20713086  0.12804590  1
  Al  Al12  1  0.22620258  0.21139104  0.62517308  1
  Al  Al13  1  0.76893367  0.09876017  0.37631163  1
  Al  Al14  1  0.88140920  0.20289322  0.12212554  1
  Al  Al15  1  0.45054950  0.10008490  0.87028708  1
  Al  Al16  1  0.55233373  0.20826837  0.62934192  1
  Al  Al17  1  0.11356328  0.43662260  0.38455543  1
  Al  Al18  1  0.21903995  0.53963230  0.12697300  1
  Al  Al19  1  0.77189360  0.43171913  0.88472635  1
  Al  Al20  1  0.88964941  0.53497888  0.63212858  1
  Al  Al21  1  0.43614879  0.42381251  0.37507915  1
  Al  Al22  1  0.55159448  0.53408106  0.13080568  1
  Al  Al23  1  0.11127033  0.43585646  0.87197100  1
  Al  Al24  1  0.22483294  0.53487023  0.63104972  1
  Al  Al25  1  0.89620862  0.54538321  0.12283422  1
  Al  Al26  1  0.44516185  0.42634313  0.88057912  1
  Al  Al27  1  0.11961064  0.75175638  0.37760444  1
  Al  Al28  1  0.78307216  0.75965085  0.87462957  1
  Al  Al29  1  0.44053365  0.76539155  0.38131817  1
  Al  Al30  1  0.10771968  0.75361168  0.87752452  1
  Al  Al31  1  0.22600237  0.86563029  0.63292298  1
  Al  Al32  1  0.77617777  0.75954139  0.37984475  1
  Al  Al33  1  0.88857567  0.87053177  0.13174347  1
  Al  Al34  1  0.45178937  0.74850670  0.87360837  1
  Al  Al35  1  0.55302961  0.87302432  0.63109715  1
  N  N36  1  0.23158012  0.21795463  0.34564243  1
  N  N37  1  0.09572638  0.10539288  0.08654249  1
  N  N38  1  0.86343027  0.21827353  0.83326154  1
  N  N39  1  0.76455321  0.11738246  0.57533752  1
  N  N40  1  0.55376324  0.20404521  0.32729614  1
  N  N41  1  0.45752643  0.10532118  0.06751816  1
  N  N42  1  0.23266854  0.21847278  0.82972083  1
  N  N43  1  0.10922933  0.09352720  0.60566382  1
  N  N44  1  0.87808664  0.19374690  0.31998898  1
  N  N45  1  0.77660225  0.09075618  0.07936161  1
  N  N46  1  0.55694892  0.20875050  0.82739806  1
  N  N47  1  0.44981515  0.09199824  0.58653332  1
  N  N48  1  0.22169123  0.53801273  0.32602860  1
  N  N49  1  0.10414011  0.44785418  0.06885847  1
  N  N50  1  0.88713058  0.53743547  0.83287230  1
  N  N51  1  0.79896168  0.41854870  0.57754044  1
  N  N52  1  0.53595025  0.54567052  0.33883777  1
  N  N53  1  0.44371021  0.42661215  0.08217664  1
  N  N54  1  0.22548596  0.53820134  0.82923973  1
  N  N55  1  0.10802612  0.43432029  0.58546754  1
  N  N56  1  0.90398926  0.55055704  0.32205646  1
  N  N57  1  0.77681933  0.43000053  0.09189792  1
  N  N58  1  0.55759728  0.53224807  0.83383626  1
  N  N59  1  0.43151819  0.41529851  0.57331983  1
  N  N60  1  0.22935544  0.85488924  0.33327242  1
  N  N61  1  0.09851624  0.75088095  0.07742151  1
  N  N62  1  0.88805699  0.87418404  0.83116711  1
  N  N63  1  0.76764889  0.74929032  0.58047559  1
  N  N64  1  0.55398211  0.87331741  0.33780542  1
  N  N65  1  0.45891453  0.73719725  0.07154548  1
  N  N66  1  0.23074722  0.85017779  0.83823816  1
  N  N67  1  0.13287560  0.74766049  0.57785042  1
  N  N68  1  0.88732071  0.87239280  0.34164256  1
  N  N69  1  0.79571402  0.75555923  0.07380457  1
  N  N70  1  0.55629434  0.87123985  0.83600982  1
  N  N71  1  0.43549859  0.77974678  0.58263264  1
