# generated using pymatgen
data_Sc2Al7N9
_symmetry_space_group_name_H-M   'P 1'
_cell_length_a   10.26707448
_cell_length_b   10.27680365
_cell_length_c   8.63791030
_cell_angle_alpha   90.00800212
_cell_angle_beta   90.00682044
_cell_angle_gamma   59.71787353
_symmetry_Int_Tables_number   1
_chemical_formula_structural   Sc2Al7N9
_chemical_formula_sum   'Sc8 Al28 N36'
_cell_volume   787.05014227
_cell_formula_units_Z   4
loop_
 _symmetry_equiv_pos_site_id
 _symmetry_equiv_pos_as_xyz
  1  'x, y, z'
loop_
 _atom_site_type_symbol
 _atom_site_label
 _atom_site_symmetry_multiplicity
 _atom_site_fract_x
 _atom_site_fract_y
 _atom_site_fract_z
 _atom_site_occupancy
  Sc  Sc0  1  0.10965999  0.09465056  0.35776156  1
  Sc  Sc1  1  0.22434433  0.21603181  0.10429881  1
  Sc  Sc2  1  0.10813284  0.09703196  0.84933022  1
  Sc  Sc3  1  0.77969396  0.43168922  0.34888398  1
  Sc  Sc4  1  0.55173680  0.53560684  0.60617169  1
  Sc  Sc5  1  0.22224666  0.86189834  0.10316495  1
  Sc  Sc6  1  0.88757161  0.87461621  0.60459312  1
  Sc  Sc7  1  0.56005977  0.87059388  0.10395563  1
  Al  Al8  1  0.77061968  0.09844807  0.86083211  1
  Al  Al9  1  0.88161394  0.20906556  0.60908097  1
  Al  Al10  1  0.45010510  0.09711735  0.36509296  1
  Al  Al11  1  0.55812036  0.20833504  0.10981518  1
  Al  Al12  1  0.22742681  0.21185759  0.60561127  1
  Al  Al13  1  0.77135623  0.09515160  0.35342492  1
  Al  Al14  1  0.88039750  0.20667398  0.10212717  1
  Al  Al15  1  0.45009993  0.09702173  0.85171288  1
  Al  Al16  1  0.55294924  0.20758902  0.61073640  1
  Al  Al17  1  0.11308554  0.43686031  0.36812166  1
  Al  Al18  1  0.22029894  0.53864656  0.10892686  1
  Al  Al19  1  0.77690098  0.42944669  0.85805139  1
  Al  Al20  1  0.89137163  0.53743389  0.61491623  1
  Al  Al21  1  0.43891581  0.42562971  0.35642513  1
  Al  Al22  1  0.55475828  0.53271643  0.10093963  1
  Al  Al23  1  0.11161087  0.43459510  0.85440568  1
  Al  Al24  1  0.22412680  0.53551879  0.61405414  1
  Al  Al25  1  0.89409361  0.54239253  0.10131854  1
  Al  Al26  1  0.44214157  0.42450932  0.86309437  1
  Al  Al27  1  0.11329416  0.75252125  0.35798291  1
  Al  Al28  1  0.77883549  0.75913424  0.85472822  1
  Al  Al29  1  0.44449578  0.75796379  0.35844574  1
  Al  Al30  1  0.11252855  0.75344072  0.85691008  1
  Al  Al31  1  0.22553650  0.86532569  0.60502810  1
  Al  Al32  1  0.78164822  0.75955873  0.35855071  1
  Al  Al33  1  0.88881225  0.87033930  0.10332099  1
  Al  Al34  1  0.44745067  0.75677212  0.85317287  1
  Al  Al35  1  0.55364480  0.87295309  0.60539409  1
  N  N36  1  0.23105799  0.21840155  0.36385888  1
  N  N37  1  0.09710100  0.10317987  0.10165470  1
  N  N38  1  0.86870186  0.21386840  0.85141161  1
  N  N39  1  0.76619586  0.11194462  0.59858983  1
  N  N40  1  0.55508642  0.20627870  0.34645188  1
  N  N41  1  0.45633968  0.10285542  0.09507323  1
  N  N42  1  0.23176711  0.21579716  0.83995588  1
  N  N43  1  0.10808089  0.09482738  0.60337422  1
  N  N44  1  0.87596389  0.19936179  0.34702584  1
  N  N45  1  0.77578345  0.09384582  0.09797546  1
  N  N46  1  0.55522426  0.20737426  0.84707012  1
  N  N47  1  0.45039577  0.09306398  0.60069373  1
  N  N48  1  0.22306658  0.53746292  0.34478250  1
  N  N49  1  0.10451756  0.44575404  0.08903639  1
  N  N50  1  0.88938077  0.53901405  0.85023550  1
  N  N51  1  0.79347899  0.42229080  0.60787708  1
  N  N52  1  0.54033516  0.54173513  0.34652505  1
  N  N53  1  0.44279646  0.42611613  0.09772259  1
  N  N54  1  0.22449350  0.53793117  0.84753458  1
  N  N55  1  0.10874892  0.43458259  0.60287445  1
  N  N56  1  0.90133259  0.54718777  0.34536412  1
  N  N57  1  0.77906306  0.42936832  0.09280316  1
  N  N58  1  0.55440806  0.53508599  0.85826263  1
  N  N59  1  0.43367227  0.41761584  0.59613754  1
  N  N60  1  0.22836432  0.85468039  0.35923171  1
  N  N61  1  0.10236692  0.75051454  0.09827391  1
  N  N62  1  0.88795786  0.87381606  0.85746877  1
  N  N63  1  0.77143732  0.75204672  0.60171536  1
  N  N64  1  0.55611284  0.87188687  0.36055913  1
  N  N65  1  0.45528236  0.74272414  0.09856051  1
  N  N66  1  0.22904665  0.85393265  0.84437889  1
  N  N67  1  0.12611861  0.74907014  0.59871017  1
  N  N68  1  0.88736153  0.87307965  0.34526167  1
  N  N69  1  0.79246765  0.75444799  0.09554705  1
  N  N70  1  0.55517627  0.87258159  0.84331428  1
  N  N71  1  0.43891544  0.77418832  0.60199174  1
