# generated using pymatgen
data_Sc2Al7N9
_symmetry_space_group_name_H-M   'P 1'
_cell_length_a   10.02619395
_cell_length_b   10.03267885
_cell_length_c   9.34984657
_cell_angle_alpha   90.02711572
_cell_angle_beta   90.01228127
_cell_angle_gamma   59.71652871
_symmetry_Int_Tables_number   1
_chemical_formula_structural   Sc2Al7N9
_chemical_formula_sum   'Sc8 Al28 N36'
_cell_volume   812.15783767
_cell_formula_units_Z   4
loop_
 _symmetry_equiv_pos_site_id
 _symmetry_equiv_pos_as_xyz
  1  'x, y, z'
loop_
 _atom_site_type_symbol
 _atom_site_label
 _atom_site_symmetry_multiplicity
 _atom_site_fract_x
 _atom_site_fract_y
 _atom_site_fract_z
 _atom_site_occupancy
  Sc  Sc0  1  0.11068892  0.09307444  0.36660996  1
  Sc  Sc1  1  0.22484821  0.21633954  0.11399228  1
  Sc  Sc2  1  0.10771911  0.09854947  0.85529198  1
  Sc  Sc3  1  0.78213608  0.43013361  0.35303413  1
  Sc  Sc4  1  0.55472292  0.53369629  0.60873874  1
  Sc  Sc5  1  0.22259822  0.86226339  0.10791775  1
  Sc  Sc6  1  0.88828446  0.87375137  0.60767992  1
  Sc  Sc7  1  0.56013990  0.87090791  0.10969855  1
  Al  Al8  1  0.77166089  0.09552110  0.87706625  1
  Al  Al9  1  0.88028339  0.21194841  0.62921144  1
  Al  Al10  1  0.44986946  0.09510529  0.38321723  1
  Al  Al11  1  0.55888188  0.20698374  0.12599762  1
  Al  Al12  1  0.22601571  0.21128972  0.62014258  1
  Al  Al13  1  0.76917341  0.09835268  0.37354686  1
  Al  Al14  1  0.88113704  0.20341649  0.11918855  1
  Al  Al15  1  0.45055094  0.09964518  0.86667996  1
  Al  Al16  1  0.55261195  0.20852079  0.62717333  1
  Al  Al17  1  0.11326940  0.43706477  0.38313364  1
  Al  Al18  1  0.21894310  0.53943814  0.12455211  1
  Al  Al19  1  0.77251966  0.43138935  0.88094632  1
  Al  Al20  1  0.88951812  0.53541755  0.63077226  1
  Al  Al21  1  0.43640221  0.42415476  0.37202286  1
  Al  Al22  1  0.55228991  0.53376203  0.12581934  1
  Al  Al23  1  0.11148506  0.43553824  0.86842075  1
  Al  Al24  1  0.22505223  0.53505410  0.62924069  1
  Al  Al25  1  0.89621841  0.54500429  0.11943714  1
  Al  Al26  1  0.44483966  0.42589111  0.87894071  1
  Al  Al27  1  0.11860429  0.75171009  0.37508045  1
  Al  Al28  1  0.78243550  0.75976737  0.87183586  1
  Al  Al29  1  0.44122108  0.76430021  0.37882583  1
  Al  Al30  1  0.10831495  0.75366010  0.87477487  1
  Al  Al31  1  0.22539349  0.86611370  0.62769612  1
  Al  Al32  1  0.77715786  0.75924075  0.37737534  1
  Al  Al33  1  0.88848914  0.87053888  0.12772575  1
  Al  Al34  1  0.45109259  0.74966659  0.87035160  1
  Al  Al35  1  0.55338744  0.87276631  0.62731825  1
  N  N36  1  0.23179379  0.21829543  0.35016495  1
  N  N37  1  0.09650168  0.10471954  0.09167238  1
  N  N38  1  0.86463510  0.21728147  0.83647425  1
  N  N39  1  0.76484937  0.11663121  0.57810672  1
  N  N40  1  0.55388792  0.20407551  0.32990691  1
  N  N41  1  0.45760423  0.10490318  0.07017443  1
  N  N42  1  0.23222263  0.21776029  0.83199606  1
  N  N43  1  0.10872593  0.09380672  0.60475847  1
  N  N44  1  0.87705236  0.19521599  0.32322475  1
  N  N45  1  0.77640246  0.09107238  0.08201749  1
  N  N46  1  0.55685842  0.20891258  0.82997166  1
  N  N47  1  0.45024379  0.09208528  0.58985518  1
  N  N48  1  0.22158557  0.53795706  0.32842930  1
  N  N49  1  0.10437593  0.44755227  0.07079866  1
  N  N50  1  0.88715136  0.53770762  0.83603439  1
  N  N51  1  0.79775935  0.41942382  0.58223852  1
  N  N52  1  0.53665903  0.54526724  0.34047538  1
  N  N53  1  0.44359331  0.42630830  0.08511919  1
  N  N54  1  0.22585221  0.53806695  0.83203970  1
  N  N55  1  0.10776484  0.43487723  0.58916944  1
  N  N56  1  0.90386528  0.54986606  0.32453389  1
  N  N57  1  0.77718491  0.42987442  0.09243604  1
  N  N58  1  0.55705430  0.53225694  0.83802977  1
  N  N59  1  0.43171037  0.41561367  0.57572822  1
  N  N60  1  0.22917351  0.85476839  0.33799902  1
  N  N61  1  0.09908675  0.75078163  0.08030417  1
  N  N62  1  0.88797155  0.87432654  0.83497750  1
  N  N63  1  0.76860781  0.74951235  0.58372258  1
  N  N64  1  0.55426167  0.87326391  0.34168410  1
  N  N65  1  0.45827880  0.73835166  0.07478278  1
  N  N66  1  0.23013047  0.85108020  0.83973206  1
  N  N67  1  0.13157174  0.74775497  0.58087453  1
  N  N68  1  0.88724335  0.87243608  0.34262282  1
  N  N69  1  0.79507033  0.75558201  0.07654773  1
  N  N70  1  0.55634009  0.87119631  0.83760943  1
  N  N71  1  0.43625530  0.77848376  0.58621425  1
