# generated using pymatgen
data_Sc2Al7N9
_symmetry_space_group_name_H-M   'P 1'
_cell_length_a   9.74093618
_cell_length_b   9.73943245
_cell_length_c   10.14126328
_cell_angle_alpha   89.90315848
_cell_angle_beta   89.92987960
_cell_angle_gamma   59.83078622
_symmetry_Int_Tables_number   1
_chemical_formula_structural   Sc2Al7N9
_chemical_formula_sum   'Sc8 Al28 N36'
_cell_volume   831.78929786
_cell_formula_units_Z   4
loop_
 _symmetry_equiv_pos_site_id
 _symmetry_equiv_pos_as_xyz
  1  'x, y, z'
loop_
 _atom_site_type_symbol
 _atom_site_label
 _atom_site_symmetry_multiplicity
 _atom_site_fract_x
 _atom_site_fract_y
 _atom_site_fract_z
 _atom_site_occupancy
  Sc  Sc0  1  0.10934277  0.09586826  0.33270578  1
  Sc  Sc1  1  0.22197315  0.21424315  0.06687663  1
  Sc  Sc2  1  0.10939699  0.09487263  0.80321620  1
  Sc  Sc3  1  0.77397944  0.43419022  0.31072708  1
  Sc  Sc4  1  0.55404202  0.53547229  0.58004006  1
  Sc  Sc5  1  0.22074744  0.86636299  0.07151800  1
  Sc  Sc6  1  0.88808667  0.87366246  0.57163256  1
  Sc  Sc7  1  0.56046404  0.87035825  0.07048898  1
  Al  Al8  1  0.76933671  0.10071874  0.81549510  1
  Al  Al9  1  0.88240035  0.20844392  0.56179412  1
  Al  Al10  1  0.45011825  0.09919264  0.31807406  1
  Al  Al11  1  0.55770227  0.20804635  0.06262001  1
  Al  Al12  1  0.22744268  0.21169077  0.55965998  1
  Al  Al13  1  0.77243574  0.09329569  0.30815867  1
  Al  Al14  1  0.88005392  0.20873314  0.05837455  1
  Al  Al15  1  0.44892647  0.09510104  0.80468371  1
  Al  Al16  1  0.55271013  0.20738743  0.56133500  1
  Al  Al17  1  0.11296653  0.43760403  0.31485390  1
  Al  Al18  1  0.21935618  0.53968817  0.06293127  1
  Al  Al19  1  0.78098602  0.42759327  0.81569003  1
  Al  Al20  1  0.89414603  0.53681136  0.56496107  1
  Al  Al21  1  0.44155062  0.42792421  0.31038136  1
  Al  Al22  1  0.55632448  0.53337623  0.05314913  1
  Al  Al23  1  0.11262189  0.43246629  0.80758822  1
  Al  Al24  1  0.22476178  0.53393364  0.56063870  1
  Al  Al25  1  0.89183560  0.54069475  0.05838268  1
  Al  Al26  1  0.43916221  0.42271045  0.81481581  1
  Al  Al27  1  0.10916397  0.75382262  0.31145980  1
  Al  Al28  1  0.77533429  0.75856782  0.81048974  1
  Al  Al29  1  0.44681987  0.75200622  0.31515681  1
  Al  Al30  1  0.11782870  0.75264765  0.81140239  1
  Al  Al31  1  0.22758071  0.86453340  0.55626648  1
  Al  Al32  1  0.78425091  0.76089205  0.31220774  1
  Al  Al33  1  0.88962693  0.86987717  0.06046550  1
  Al  Al34  1  0.44381626  0.76433439  0.80762846  1
  Al  Al35  1  0.55328281  0.87350916  0.55991808  1
  N  N36  1  0.23317980  0.22066020  0.37067680  1
  N  N37  1  0.09058385  0.10724718  0.11975294  1
  N  N38  1  0.87172602  0.21222223  0.87139299  1
  N  N39  1  0.76467534  0.11558370  0.62815613  1
  N  N40  1  0.55708852  0.20778664  0.37175101  1
  N  N41  1  0.45581350  0.10499032  0.13271289  1
  N  N42  1  0.23135284  0.21402853  0.85576516  1
  N  N43  1  0.11230389  0.09314606  0.58820438  1
  N  N44  1  0.86865705  0.20251647  0.37707781  1
  N  N45  1  0.77705035  0.09361653  0.11653906  1
  N  N46  1  0.55337182  0.20409333  0.87325337  1
  N  N47  1  0.44880210  0.09264226  0.61418312  1
  N  N48  1  0.22482435  0.53865263  0.37111488  1
  N  N49  1  0.10102306  0.44759274  0.12671859  1
  N  N50  1  0.89224785  0.53879621  0.86870615  1
  N  N51  1  0.80145536  0.41714501  0.62522542  1
  N  N52  1  0.53993335  0.54095190  0.37272881  1
  N  N53  1  0.44411442  0.42814964  0.11634356  1
  N  N54  1  0.22096688  0.53783940  0.87334316  1
  N  N55  1  0.11160172  0.43093952  0.61909011  1
  N  N56  1  0.89909225  0.54845602  0.37718725  1
  N  N57  1  0.77616811  0.43036974  0.10026612  1
  N  N58  1  0.55335973  0.53905618  0.85659451  1
  N  N59  1  0.43175719  0.41451691  0.62815246  1
  N  N60  1  0.23027804  0.84948169  0.36585758  1
  N  N61  1  0.10062902  0.75093454  0.12346178  1
  N  N62  1  0.88903342  0.87141411  0.86260821  1
  N  N63  1  0.76747524  0.75151460  0.62310154  1
  N  N64  1  0.55659343  0.87029937  0.36556041  1
  N  N65  1  0.45816940  0.73687440  0.12849397  1
  N  N66  1  0.22989286  0.85597697  0.86332635  1
  N  N67  1  0.13208743  0.74818343  0.62254825  1
  N  N68  1  0.88749942  0.87480974  0.36202173  1
  N  N69  1  0.79632117  0.75144817  0.12284354  1
  N  N70  1  0.55391126  0.87419775  0.85990740  1
  N  N71  1  0.43484543  0.78156159  0.62031480  1
