# generated using pymatgen
data_Sc2Al7N9
_symmetry_space_group_name_H-M   'P 1'
_cell_length_a   9.74100923
_cell_length_b   9.73954025
_cell_length_c   10.14105516
_cell_angle_alpha   89.90330878
_cell_angle_beta   89.93001135
_cell_angle_gamma   59.83036678
_symmetry_Int_Tables_number   1
_chemical_formula_structural   Sc2Al7N9
_chemical_formula_sum   'Sc8 Al28 N36'
_cell_volume   831.78413643
_cell_formula_units_Z   4
loop_
 _symmetry_equiv_pos_site_id
 _symmetry_equiv_pos_as_xyz
  1  'x, y, z'
loop_
 _atom_site_type_symbol
 _atom_site_label
 _atom_site_symmetry_multiplicity
 _atom_site_fract_x
 _atom_site_fract_y
 _atom_site_fract_z
 _atom_site_occupancy
  Sc  Sc0  1  0.10933840  0.09587093  0.33538553  1
  Sc  Sc1  1  0.22197600  0.21423910  0.06955662  1
  Sc  Sc2  1  0.10939793  0.09486197  0.80591002  1
  Sc  Sc3  1  0.77396814  0.43418999  0.31342062  1
  Sc  Sc4  1  0.55402851  0.53547401  0.58273556  1
  Sc  Sc5  1  0.22074784  0.86635287  0.07421564  1
  Sc  Sc6  1  0.88808210  0.87365790  0.57433215  1
  Sc  Sc7  1  0.56046123  0.87035263  0.07318875  1
  Al  Al8  1  0.76933303  0.10071669  0.81818140  1
  Al  Al9  1  0.88239630  0.20844089  0.56448154  1
  Al  Al10  1  0.45011325  0.09919233  0.32076659  1
  Al  Al11  1  0.55770271  0.20803990  0.06531174  1
  Al  Al12  1  0.22743692  0.21168870  0.56235262  1
  Al  Al13  1  0.77243410  0.09329057  0.31084644  1
  Al  Al14  1  0.88005321  0.20872892  0.06105977  1
  Al  Al15  1  0.44892665  0.09509431  0.80737450  1
  Al  Al16  1  0.55270645  0.20738330  0.56402486  1
  Al  Al17  1  0.11296212  0.43760058  0.31753791  1
  Al  Al18  1  0.21935427  0.53968238  0.06562209  1
  Al  Al19  1  0.78098415  0.42758866  0.81836943  1
  Al  Al20  1  0.89413840  0.53681110  0.56764314  1
  Al  Al21  1  0.44154536  0.42792104  0.31307210  1
  Al  Al22  1  0.55632521  0.53336670  0.05583482  1
  Al  Al23  1  0.11261623  0.43246398  0.81027232  1
  Al  Al24  1  0.22475573  0.53393058  0.56332822  1
  Al  Al25  1  0.89183269  0.54068817  0.06107036  1
  Al  Al26  1  0.43915805  0.42270256  0.81750345  1
  Al  Al27  1  0.10915592  0.75382040  0.31415377  1
  Al  Al28  1  0.77532847  0.75856243  0.81318250  1
  Al  Al29  1  0.44681473  0.75200116  0.31784491  1
  Al  Al30  1  0.11783018  0.75263998  0.81409563  1
  Al  Al31  1  0.22757323  0.86453535  0.55895203  1
  Al  Al32  1  0.78424830  0.76088953  0.31489863  1
  Al  Al33  1  0.88962519  0.86987098  0.06315056  1
  Al  Al34  1  0.44381283  0.76433169  0.81031881  1
  Al  Al35  1  0.55327755  0.87350686  0.56260482  1
  N  N36  1  0.23317462  0.22065894  0.37336451  1
  N  N37  1  0.09058736  0.10724305  0.12242806  1
  N  N38  1  0.87172237  0.21221990  0.87407394  1
  N  N39  1  0.76467111  0.11558258  0.63084068  1
  N  N40  1  0.55708568  0.20778373  0.37443750  1
  N  N41  1  0.45581206  0.10498748  0.13540137  1
  N  N42  1  0.23134986  0.21402520  0.85844252  1
  N  N43  1  0.11229789  0.09314522  0.59089444  1
  N  N44  1  0.86865603  0.20251172  0.37976015  1
  N  N45  1  0.77705285  0.09360904  0.11922317  1
  N  N46  1  0.55337015  0.20408739  0.87594172  1
  N  N47  1  0.44880072  0.09263779  0.61686976  1
  N  N48  1  0.22481786  0.53864944  0.37380093  1
  N  N49  1  0.10102200  0.44758606  0.12940076  1
  N  N50  1  0.89224313  0.53879012  0.87139077  1
  N  N51  1  0.80144647  0.41714608  0.62790147  1
  N  N52  1  0.53992118  0.54095147  0.37542240  1
  N  N53  1  0.44411428  0.42814348  0.11903026  1
  N  N54  1  0.22096366  0.53783219  0.87603090  1
  N  N55  1  0.11159296  0.43094068  0.62177342  1
  N  N56  1  0.89908703  0.54845299  0.37986769  1
  N  N57  1  0.77616706  0.43036274  0.10295525  1
  N  N58  1  0.55335792  0.53904915  0.85927423  1
  N  N59  1  0.43175061  0.41451092  0.63083886  1
  N  N60  1  0.23026927  0.84948459  0.36853774  1
  N  N61  1  0.10062458  0.75092848  0.12615095  1
  N  N62  1  0.88903068  0.87140907  0.86528954  1
  N  N63  1  0.76746799  0.75151102  0.62578933  1
  N  N64  1  0.55658789  0.87029620  0.36824291  1
  N  N65  1  0.45817216  0.73686173  0.13118058  1
  N  N66  1  0.22989279  0.85596666  0.86602117  1
  N  N67  1  0.13208828  0.74817974  0.62523622  1
  N  N68  1  0.88749296  0.87480726  0.36471662  1
  N  N69  1  0.79632149  0.75144301  0.12552935  1
  N  N70  1  0.55390699  0.87419357  0.86260175  1
  N  N71  1  0.43483692  0.78156585  0.62300178  1
