# generated using pymatgen
data_Sc2Al7N9
_symmetry_space_group_name_H-M   'P 1'
_cell_length_a   10.20766168
_cell_length_b   10.21624210
_cell_length_c   8.80373080
_cell_angle_alpha   89.93443035
_cell_angle_beta   89.98190384
_cell_angle_gamma   59.74606623
_symmetry_Int_Tables_number   1
_chemical_formula_structural   Sc2Al7N9
_chemical_formula_sum   'Sc8 Al28 N36'
_cell_volume   793.04449211
_cell_formula_units_Z   4
loop_
 _symmetry_equiv_pos_site_id
 _symmetry_equiv_pos_as_xyz
  1  'x, y, z'
loop_
 _atom_site_type_symbol
 _atom_site_label
 _atom_site_symmetry_multiplicity
 _atom_site_fract_x
 _atom_site_fract_y
 _atom_site_fract_z
 _atom_site_occupancy
  Sc  Sc0  1  0.10933124  0.09452520  0.35659519  1
  Sc  Sc1  1  0.22546008  0.21476640  0.10135746  1
  Sc  Sc2  1  0.10860005  0.09676382  0.84723404  1
  Sc  Sc3  1  0.77846845  0.43155298  0.34776784  1
  Sc  Sc4  1  0.55085264  0.53524594  0.60585461  1
  Sc  Sc5  1  0.22174812  0.86164600  0.10152339  1
  Sc  Sc6  1  0.88589796  0.87568400  0.60160554  1
  Sc  Sc7  1  0.55920248  0.87171382  0.10190872  1
  Al  Al8  1  0.76933427  0.09990450  0.84648198  1
  Al  Al9  1  0.88159849  0.20808590  0.59741787  1
  Al  Al10  1  0.44995011  0.09854940  0.35230093  1
  Al  Al11  1  0.55759234  0.20708803  0.08897673  1
  Al  Al12  1  0.22571842  0.21275553  0.59735394  1
  Al  Al13  1  0.77195894  0.09414434  0.33344859  1
  Al  Al14  1  0.88014348  0.20836993  0.08794357  1
  Al  Al15  1  0.45011337  0.09610581  0.83018139  1
  Al  Al16  1  0.55355278  0.20916857  0.58756078  1
  Al  Al17  1  0.11243924  0.43727959  0.34469160  1
  Al  Al18  1  0.21842260  0.54020338  0.08951789  1
  Al  Al19  1  0.77851746  0.42967851  0.84955323  1
  Al  Al20  1  0.89264289  0.53874994  0.59541257  1
  Al  Al21  1  0.44107274  0.42663182  0.33226275  1
  Al  Al22  1  0.55656873  0.53247726  0.08997526  1
  Al  Al23  1  0.11231764  0.43412779  0.83573795  1
  Al  Al24  1  0.22538764  0.53353285  0.58760541  1
  Al  Al25  1  0.89318035  0.54099744  0.08601215  1
  Al  Al26  1  0.43940782  0.42301458  0.84759871  1
  Al  Al27  1  0.11142005  0.75325158  0.34547578  1
  Al  Al28  1  0.77784772  0.75880129  0.84330869  1
  Al  Al29  1  0.44565681  0.75547137  0.34974267  1
  Al  Al30  1  0.11473524  0.75221246  0.83886207  1
  Al  Al31  1  0.22578060  0.86599989  0.59918395  1
  Al  Al32  1  0.78269674  0.76028869  0.34234166  1
  Al  Al33  1  0.89019784  0.86941437  0.09327046  1
  Al  Al34  1  0.44649164  0.75936290  0.84445579  1
  Al  Al35  1  0.55461240  0.87190238  0.59547047  1
  N  N36  1  0.22936685  0.21879231  0.36752138  1
  N  N37  1  0.09560718  0.10373419  0.10383384  1
  N  N38  1  0.86917384  0.21462481  0.86134279  1
  N  N39  1  0.76447517  0.11308106  0.62165570  1
  N  N40  1  0.55679890  0.20968948  0.36463123  1
  N  N41  1  0.45684565  0.10328015  0.12632584  1
  N  N42  1  0.23342894  0.21562243  0.84651954  1
  N  N43  1  0.10965434  0.09437603  0.60421010  1
  N  N44  1  0.87473643  0.19834534  0.36563932  1
  N  N45  1  0.77662870  0.09411476  0.10777717  1
  N  N46  1  0.55356923  0.20392466  0.86772082  1
  N  N47  1  0.45029663  0.09331995  0.60446180  1
  N  N48  1  0.22660631  0.53627905  0.36366761  1
  N  N49  1  0.10283074  0.44638492  0.11677797  1
  N  N50  1  0.89221177  0.53788450  0.86131148  1
  N  N51  1  0.79440680  0.42223031  0.61383917  1
  N  N52  1  0.54047636  0.54028599  0.35595374  1
  N  N53  1  0.44315349  0.42654329  0.10660671  1
  N  N54  1  0.22059600  0.53885872  0.86742579  1
  N  N55  1  0.11027651  0.43351750  0.61301041  1
  N  N56  1  0.89936198  0.54890885  0.36762129  1
  N  N57  1  0.77904925  0.42955673  0.09767774  1
  N  N58  1  0.55459454  0.53680486  0.86082436  1
  N  N59  1  0.43292207  0.41654218  0.62384485  1
  N  N60  1  0.22871990  0.85385979  0.36270761  1
  N  N61  1  0.10172776  0.75031699  0.11702033  1
  N  N62  1  0.88990296  0.87194729  0.86208777  1
  N  N63  1  0.77003670  0.75319903  0.61674313  1
  N  N64  1  0.55808923  0.86888848  0.36422481  1
  N  N65  1  0.45578777  0.74155768  0.11035967  1
  N  N66  1  0.22901688  0.85402701  0.85035533  1
  N  N67  1  0.12699600  0.74837132  0.61037969  1
  N  N68  1  0.88556419  0.87513531  0.35321599  1
  N  N69  1  0.79366333  0.75296178  0.10897044  1
  N  N70  1  0.55323442  0.87547986  0.85087954  1
  N  N71  1  0.43857841  0.77515638  0.60996619  1
