# generated using pymatgen
data_Sc2Al7N9
_symmetry_space_group_name_H-M   'P 1'
_cell_length_a   9.87773578
_cell_length_b   9.88209976
_cell_length_c   9.77542259
_cell_angle_alpha   90.03670939
_cell_angle_beta   89.99587458
_cell_angle_gamma   59.74540952
_symmetry_Int_Tables_number   1
_chemical_formula_structural   Sc2Al7N9
_chemical_formula_sum   'Sc8 Al28 N36'
_cell_volume   824.23832001
_cell_formula_units_Z   4
loop_
 _symmetry_equiv_pos_site_id
 _symmetry_equiv_pos_as_xyz
  1  'x, y, z'
loop_
 _atom_site_type_symbol
 _atom_site_label
 _atom_site_symmetry_multiplicity
 _atom_site_fract_x
 _atom_site_fract_y
 _atom_site_fract_z
 _atom_site_occupancy
  Sc  Sc0  1  0.11142383  0.09200214  0.38010675  1
  Sc  Sc1  1  0.22349879  0.21568671  0.12140480  1
  Sc  Sc2  1  0.10735542  0.09907876  0.85854711  1
  Sc  Sc3  1  0.78254510  0.42921754  0.35757670  1
  Sc  Sc4  1  0.55581306  0.53409624  0.61340440  1
  Sc  Sc5  1  0.22156605  0.86436627  0.11305728  1
  Sc  Sc6  1  0.88851127  0.87312846  0.61190431  1
  Sc  Sc7  1  0.56039632  0.87059556  0.11578986  1
  Al  Al8  1  0.77194209  0.09512346  0.88112422  1
  Al  Al9  1  0.87974087  0.21266946  0.63476614  1
  Al  Al10  1  0.44898734  0.09488480  0.38649761  1
  Al  Al11  1  0.55877082  0.20739441  0.12973830  1
  Al  Al12  1  0.22656873  0.21166329  0.62961286  1
  Al  Al13  1  0.76914804  0.09870370  0.37814458  1
  Al  Al14  1  0.88198011  0.20265497  0.12452050  1
  Al  Al15  1  0.45047934  0.10017152  0.87334550  1
  Al  Al16  1  0.55213939  0.20796697  0.63099899  1
  Al  Al17  1  0.11373990  0.43615712  0.38558220  1
  Al  Al18  1  0.21928055  0.53969688  0.12900131  1
  Al  Al19  1  0.77178679  0.43177597  0.88729920  1
  Al  Al20  1  0.89007712  0.53463206  0.63324849  1
  Al  Al21  1  0.43619366  0.42377398  0.37750416  1
  Al  Al22  1  0.55131833  0.53434649  0.13358534  1
  Al  Al23  1  0.11121718  0.43593351  0.87515005  1
  Al  Al24  1  0.22455328  0.53472141  0.63240167  1
  Al  Al25  1  0.89592473  0.54534578  0.12549753  1
  Al  Al26  1  0.44517538  0.42662692  0.88197582  1
  Al  Al27  1  0.11984879  0.75199668  0.37960625  1
  Al  Al28  1  0.78311706  0.75957049  0.87707304  1
  Al  Al29  1  0.44018519  0.76572641  0.38326630  1
  Al  Al30  1  0.10776123  0.75355762  0.87987512  1
  Al  Al31  1  0.22671591  0.86487402  0.63671478  1
  Al  Al32  1  0.77585899  0.75984349  0.38180326  1
  Al  Al33  1  0.88868969  0.87052590  0.13399934  1
  Al  Al34  1  0.45202514  0.74834667  0.87647414  1
  Al  Al35  1  0.55271296  0.87330162  0.63330608  1
  N  N36  1  0.23101907  0.21728549  0.34225240  1
  N  N37  1  0.09482182  0.10606465  0.08005045  1
  N  N38  1  0.86227448  0.21903047  0.83020266  1
  N  N39  1  0.76450582  0.11774499  0.57257753  1
  N  N40  1  0.55367524  0.20411595  0.32499571  1
  N  N41  1  0.45704761  0.10559376  0.06537319  1
  N  N42  1  0.23323428  0.21918364  0.82728830  1
  N  N43  1  0.10965925  0.09335658  0.60715123  1
  N  N44  1  0.87976154  0.19227842  0.31713926  1
  N  N45  1  0.77661984  0.09088246  0.07722691  1
  N  N46  1  0.55697449  0.20845254  0.82504484  1
  N  N47  1  0.44929215  0.09213124  0.58345695  1
  N  N48  1  0.22183599  0.53802269  0.32393941  1
  N  N49  1  0.10402712  0.44778063  0.06732545  1
  N  N50  1  0.88735609  0.53725372  0.83003794  1
  N  N51  1  0.79986673  0.41775547  0.57430549  1
  N  N52  1  0.53537700  0.54601504  0.33610986  1
  N  N53  1  0.44368854  0.42684774  0.07949456  1
  N  N54  1  0.22506059  0.53830962  0.82663926  1
  N  N55  1  0.10837981  0.43368088  0.58203482  1
  N  N56  1  0.90388040  0.55096168  0.31981881  1
  N  N57  1  0.77676754  0.43002825  0.09055538  1
  N  N58  1  0.55790301  0.53257131  0.83148376  1
  N  N59  1  0.43158885  0.41525654  0.57116691  1
  N  N60  1  0.22916412  0.85561782  0.33034976  1
  N  N61  1  0.09850494  0.75095934  0.07489701  1
  N  N62  1  0.88814665  0.87406480  0.82900303  1
  N  N63  1  0.76718664  0.74907958  0.57750812  1
  N  N64  1  0.55386921  0.87331787  0.33553037  1
  N  N65  1  0.45894537  0.73699342  0.06897313  1
  N  N66  1  0.23154939  0.84909559  0.83583159  1
  N  N67  1  0.13358345  0.74767078  0.57511735  1
  N  N68  1  0.88753281  0.87229589  0.33970891  1
  N  N69  1  0.79595958  0.75537547  0.07143236  1
  N  N70  1  0.55617693  0.87137444  0.83360361  1
  N  N71  1  0.43499609  0.78043927  0.57928207  1
