# generated using pymatgen
data_Sc2Al7N9
_symmetry_space_group_name_H-M   'P 1'
_cell_length_a   9.74100373
_cell_length_b   9.74257618
_cell_length_c   10.13599665
_cell_angle_alpha   90.04063210
_cell_angle_beta   89.92885796
_cell_angle_gamma   59.83916354
_symmetry_Int_Tables_number   1
_chemical_formula_structural   Sc2Al7N9
_chemical_formula_sum   'Sc8 Al28 N36'
_cell_volume   831.70175229
_cell_formula_units_Z   4
loop_
 _symmetry_equiv_pos_site_id
 _symmetry_equiv_pos_as_xyz
  1  'x, y, z'
loop_
 _atom_site_type_symbol
 _atom_site_label
 _atom_site_symmetry_multiplicity
 _atom_site_fract_x
 _atom_site_fract_y
 _atom_site_fract_z
 _atom_site_occupancy
  Sc  Sc0  1  0.10961826  0.09308723  0.39755536  1
  Sc  Sc1  1  0.22124400  0.21437611  0.13096953  1
  Sc  Sc2  1  0.10879534  0.09713303  0.86259931  1
  Sc  Sc3  1  0.78003909  0.42958885  0.36794160  1
  Sc  Sc4  1  0.55650746  0.53439292  0.62805475  1
  Sc  Sc5  1  0.21935948  0.86798625  0.12667859  1
  Sc  Sc6  1  0.88830177  0.87331859  0.62448848  1
  Sc  Sc7  1  0.56049779  0.87107880  0.12867622  1
  Al  Al8  1  0.77148074  0.09598627  0.88790020  1
  Al  Al9  1  0.87972996  0.21195788  0.64204497  1
  Al  Al10  1  0.44819933  0.09539587  0.39256957  1
  Al  Al11  1  0.55752753  0.20795955  0.13473251  1
  Al  Al12  1  0.22749092  0.21184399  0.63807589  1
  Al  Al13  1  0.77070176  0.09722202  0.38154672  1
  Al  Al14  1  0.88271843  0.20383759  0.13009192  1
  Al  Al15  1  0.45048390  0.09904775  0.87945444  1
  Al  Al16  1  0.55250888  0.20774726  0.63518479  1
  Al  Al17  1  0.11367721  0.43504887  0.38973174  1
  Al  Al18  1  0.21964876  0.53951797  0.13443997  1
  Al  Al19  1  0.77337454  0.43110685  0.89256506  1
  Al  Al20  1  0.89166816  0.53428372  0.63811752  1
  Al  Al21  1  0.43705011  0.42518733  0.38222258  1
  Al  Al22  1  0.55157532  0.53557298  0.13562297  1
  Al  Al23  1  0.11179734  0.43513484  0.88205949  1
  Al  Al24  1  0.22435628  0.53447039  0.63643349  1
  Al  Al25  1  0.89475808  0.54405206  0.13119634  1
  Al  Al26  1  0.44443960  0.42636268  0.88755732  1
  Al  Al27  1  0.11734864  0.75303160  0.38528460  1
  Al  Al28  1  0.78167218  0.75945893  0.88386416  1
  Al  Al29  1  0.44063291  0.76412197  0.38948330  1
  Al  Al30  1  0.11014029  0.75324293  0.88618684  1
  Al  Al31  1  0.22797297  0.86296108  0.64203379  1
  Al  Al32  1  0.77761110  0.76005089  0.38710311  1
  Al  Al33  1  0.88891711  0.87043487  0.13630308  1
  Al  Al34  1  0.45084282  0.75129262  0.88381724  1
  Al  Al35  1  0.55309887  0.87312862  0.63659618  1
  N  N36  1  0.22976759  0.21502898  0.34302940  1
  N  N37  1  0.09352965  0.10621397  0.07306398  1
  N  N38  1  0.86123680  0.21925075  0.82904568  1
  N  N39  1  0.76593030  0.11664145  0.57061848  1
  N  N40  1  0.55346310  0.20440660  0.32483174  1
  N  N41  1  0.45529589  0.10512269  0.06523333  1
  N  N42  1  0.23439506  0.21973763  0.82618884  1
  N  N43  1  0.11038664  0.09313588  0.61403142  1
  N  N44  1  0.88253249  0.19177879  0.31598011  1
  N  N45  1  0.77576234  0.09243439  0.07783743  1
  N  N46  1  0.55715594  0.20782706  0.82437966  1
  N  N47  1  0.44868580  0.09272170  0.58266571  1
  N  N48  1  0.22165765  0.53812853  0.32413488  1
  N  N49  1  0.10414579  0.44650420  0.06823230  1
  N  N50  1  0.88842550  0.53723114  0.82922599  1
  N  N51  1  0.79972121  0.41711937  0.57643323  1
  N  N52  1  0.53430926  0.54737257  0.32962176  1
  N  N53  1  0.44298440  0.42699028  0.07882401  1
  N  N54  1  0.22479367  0.53813247  0.82570470  1
  N  N55  1  0.10940098  0.43210017  0.58036981  1
  N  N56  1  0.90296956  0.55008352  0.31952924  1
  N  N57  1  0.77718792  0.43022160  0.08837128  1
  N  N58  1  0.55786797  0.53383630  0.83695485  1
  N  N59  1  0.43300841  0.41647040  0.57048582  1
  N  N60  1  0.22748403  0.85869202  0.33513191  1
  N  N61  1  0.10047775  0.75110000  0.07438181  1
  N  N62  1  0.88855669  0.87396089  0.83360269  1
  N  N63  1  0.76890171  0.74865659  0.57621381  1
  N  N64  1  0.55437972  0.87305735  0.33957428  1
  N  N65  1  0.45600270  0.74135357  0.06915787  1
  N  N66  1  0.23370644  0.84638366  0.83147403  1
  N  N67  1  0.13187836  0.74810872  0.57431986  1
  N  N68  1  0.88810468  0.87199352  0.33551222  1
  N  N69  1  0.79479707  0.75462796  0.07137127  1
  N  N70  1  0.55630875  0.87145157  0.83037914  1
  N  N71  1  0.43603761  0.77836453  0.57786326  1
