# generated using pymatgen
data_Sc2Al7N9
_symmetry_space_group_name_H-M   'P 1'
_cell_length_a   9.79718637
_cell_length_b   9.80056307
_cell_length_c   9.99210775
_cell_angle_alpha   90.03804522
_cell_angle_beta   89.97047114
_cell_angle_gamma   59.78101861
_symmetry_Int_Tables_number   1
_chemical_formula_structural   Sc2Al7N9
_chemical_formula_sum   'Sc8 Al28 N36'
_cell_volume   829.04343003
_cell_formula_units_Z   4
loop_
 _symmetry_equiv_pos_site_id
 _symmetry_equiv_pos_as_xyz
  1  'x, y, z'
loop_
 _atom_site_type_symbol
 _atom_site_label
 _atom_site_symmetry_multiplicity
 _atom_site_fract_x
 _atom_site_fract_y
 _atom_site_fract_z
 _atom_site_occupancy
  Sc  Sc0  1  0.11092933  0.09207182  0.38893771  1
  Sc  Sc1  1  0.22218365  0.21497032  0.12533942  1
  Sc  Sc2  1  0.10794393  0.09840322  0.85909170  1
  Sc  Sc3  1  0.78176107  0.42905154  0.36130005  1
  Sc  Sc4  1  0.55623884  0.53435649  0.61897617  1
  Sc  Sc5  1  0.22044874  0.86637733  0.11820986  1
  Sc  Sc6  1  0.88845134  0.87309715  0.61661147  1
  Sc  Sc7  1  0.56047000  0.87073022  0.12101682  1
  Al  Al8  1  0.77175624  0.09547688  0.88322535  1
  Al  Al9  1  0.87955026  0.21247516  0.63728481  1
  Al  Al10  1  0.44850598  0.09512985  0.38814034  1
  Al  Al11  1  0.55821562  0.20770463  0.13099721  1
  Al  Al12  1  0.22705816  0.21197438  0.63304819  1
  Al  Al13  1  0.76994408  0.09802413  0.37878032  1
  Al  Al14  1  0.88266485  0.20295030  0.12620299  1
  Al  Al15  1  0.45037527  0.09976324  0.87550864  1
  Al  Al16  1  0.55219231  0.20776796  0.63198872  1
  Al  Al17  1  0.11373899  0.43563713  0.38630261  1
  Al  Al18  1  0.21958092  0.53960121  0.13054104  1
  Al  Al19  1  0.77237669  0.43151184  0.88883451  1
  Al  Al20  1  0.89083339  0.53440851  0.63428676  1
  Al  Al21  1  0.43662703  0.42428654  0.37893474  1
  Al  Al22  1  0.55146381  0.53480590  0.13391536  1
  Al  Al23  1  0.11144198  0.43563478  0.87767516  1
  Al  Al24  1  0.22433989  0.53463462  0.63320025  1
  Al  Al25  1  0.89534694  0.54478169  0.12727625  1
  Al  Al26  1  0.44484722  0.42664573  0.88333631  1
  Al  Al27  1  0.11893012  0.75250176  0.38113763  1
  Al  Al28  1  0.78242837  0.75955430  0.87923705  1
  Al  Al29  1  0.44030780  0.76508693  0.38497816  1
  Al  Al30  1  0.10870682  0.75347023  0.88187371  1
  Al  Al31  1  0.22745669  0.86382005  0.63879230  1
  Al  Al32  1  0.77650136  0.76003463  0.38326539  1
  Al  Al33  1  0.88882260  0.87047631  0.13428782  1
  Al  Al34  1  0.45160504  0.74954457  0.87900088  1
  Al  Al35  1  0.55266525  0.87340853  0.63390257  1
  N  N36  1  0.23017447  0.21612580  0.34049749  1
  N  N37  1  0.09398382  0.10645007  0.07340176  1
  N  N38  1  0.86137219  0.21939182  0.82748182  1
  N  N39  1  0.76500513  0.11745437  0.56964372  1
  N  N40  1  0.55359467  0.20424448  0.32295977  1
  N  N41  1  0.45607056  0.10553858  0.06345735  1
  N  N42  1  0.23389455  0.21975073  0.82468636  1
  N  N43  1  0.11003401  0.09326016  0.60939577  1
  N  N44  1  0.88178069  0.19131260  0.31453465  1
  N  N45  1  0.77632152  0.09154981  0.07559889  1
  N  N46  1  0.55699980  0.20808759  0.82283292  1
  N  N47  1  0.44884692  0.09247753  0.58088715  1
  N  N48  1  0.22188225  0.53801644  0.32210655  1
  N  N49  1  0.10409987  0.44717736  0.06599530  1
  N  N50  1  0.88783096  0.53719647  0.82758513  1
  N  N51  1  0.80016660  0.41720105  0.57287405  1
  N  N52  1  0.53488823  0.54652504  0.33135659  1
  N  N53  1  0.44345025  0.42696959  0.07711434  1
  N  N54  1  0.22474143  0.53833635  0.82420623  1
  N  N55  1  0.10884029  0.43297970  0.57902944  1
  N  N56  1  0.90347268  0.55079194  0.31768822  1
  N  N57  1  0.77700894  0.43004718  0.08797355  1
  N  N58  1  0.55793033  0.53324288  0.83161822  1
  N  N59  1  0.43214888  0.41572612  0.56900790  1
  N  N60  1  0.22843666  0.85713611  0.33000188  1
  N  N61  1  0.09931285  0.75103561  0.07265848  1
  N  N62  1  0.88828119  0.87400338  0.82892275  1
  N  N63  1  0.76765962  0.74885344  0.57479353  1
  N  N64  1  0.55403066  0.87322806  0.33527185  1
  N  N65  1  0.45786855  0.73857663  0.06697101  1
  N  N66  1  0.23263266  0.84768015  0.83200644  1
  N  N67  1  0.13317360  0.74788558  0.57262451  1
  N  N68  1  0.88786573  0.87211097  0.33614317  1
  N  N69  1  0.79555900  0.75502579  0.06937047  1
  N  N70  1  0.55608801  0.87151965  0.83014077  1
  N  N71  1  0.43512104  0.77996355  0.57629480  1
