# generated using pymatgen
data_Sc2Al7N9
_symmetry_space_group_name_H-M   'P 1'
_cell_length_a   9.79476087
_cell_length_b   9.79544303
_cell_length_c   10.00206312
_cell_angle_alpha   89.91763693
_cell_angle_beta   89.93362081
_cell_angle_gamma   59.78937205
_symmetry_Int_Tables_number   1
_chemical_formula_structural   Sc2Al7N9
_chemical_formula_sum   'Sc8 Al28 N36'
_cell_volume   829.30056777
_cell_formula_units_Z   4
loop_
 _symmetry_equiv_pos_site_id
 _symmetry_equiv_pos_as_xyz
  1  'x, y, z'
loop_
 _atom_site_type_symbol
 _atom_site_label
 _atom_site_symmetry_multiplicity
 _atom_site_fract_x
 _atom_site_fract_y
 _atom_site_fract_z
 _atom_site_occupancy
  Sc  Sc0  1  0.10898059  0.09641529  0.34418944  1
  Sc  Sc1  1  0.22328064  0.21446224  0.08144921  1
  Sc  Sc2  1  0.11013119  0.09440152  0.82111071  1
  Sc  Sc3  1  0.77313202  0.43444605  0.32776462  1
  Sc  Sc4  1  0.55177871  0.53638775  0.59628716  1
  Sc  Sc5  1  0.22164612  0.86444232  0.08749087  1
  Sc  Sc6  1  0.88780111  0.87359693  0.58850517  1
  Sc  Sc7  1  0.56037054  0.87022578  0.08688356  1
  Al  Al8  1  0.76867745  0.10196729  0.82775877  1
  Al  Al9  1  0.88277472  0.20773375  0.57468032  1
  Al  Al10  1  0.45028046  0.09983977  0.33106684  1
  Al  Al11  1  0.55844419  0.20780015  0.07512572  1
  Al  Al12  1  0.22690263  0.21167892  0.57306277  1
  Al  Al13  1  0.77295129  0.09228840  0.32089291  1
  Al  Al14  1  0.87950897  0.20944433  0.07148771  1
  Al  Al15  1  0.44924139  0.09480622  0.81762197  1
  Al  Al16  1  0.55250483  0.20759213  0.57349106  1
  Al  Al17  1  0.11279033  0.43808834  0.32697156  1
  Al  Al18  1  0.21905404  0.53991916  0.07535969  1
  Al  Al19  1  0.78153434  0.42765504  0.82629647  1
  Al  Al20  1  0.89392966  0.53763263  0.57699486  1
  Al  Al21  1  0.44165453  0.42807268  0.32252701  1
  Al  Al22  1  0.55758994  0.53232014  0.06497807  1
  Al  Al23  1  0.11255438  0.43252798  0.82041866  1
  Al  Al24  1  0.22475423  0.53360778  0.57272011  1
  Al  Al25  1  0.89163688  0.54028663  0.07149598  1
  Al  Al26  1  0.43849535  0.42194020  0.82774290  1
  Al  Al27  1  0.10794327  0.75390121  0.32483131  1
  Al  Al28  1  0.77412158  0.75836468  0.82380713  1
  Al  Al29  1  0.44717787  0.75062017  0.32806559  1
  Al  Al30  1  0.11932655  0.75199417  0.82371185  1
  Al  Al31  1  0.22703495  0.86553865  0.56863039  1
  Al  Al32  1  0.78547901  0.76085479  0.32455125  1
  Al  Al33  1  0.88983120  0.86974487  0.07094779  1
  Al  Al34  1  0.44348606  0.76551944  0.82116124  1
  Al  Al35  1  0.55307658  0.87351095  0.57132543  1
  N  N36  1  0.23264362  0.22067963  0.38054617  1
  N  N37  1  0.09150853  0.10678591  0.12706912  1
  N  N38  1  0.87039341  0.21370150  0.88170800  1
  N  N39  1  0.76388289  0.11647348  0.63858830  1
  N  N40  1  0.55729265  0.20813087  0.38221740  1
  N  N41  1  0.45694664  0.10536094  0.14367119  1
  N  N42  1  0.23211014  0.21465142  0.86742577  1
  N  N43  1  0.11200532  0.09330257  0.60186168  1
  N  N44  1  0.86992176  0.20089571  0.38711480  1
  N  N45  1  0.77786185  0.09281540  0.12690045  1
  N  N46  1  0.55351746  0.20386371  0.88405676  1
  N  N47  1  0.44897074  0.09238035  0.62446139  1
  N  N48  1  0.22496306  0.53840399  0.38138387  1
  N  N49  1  0.10094937  0.44806482  0.13689637  1
  N  N50  1  0.89186940  0.53835811  0.87943300  1
  N  N51  1  0.80057463  0.41799130  0.63284960  1
  N  N52  1  0.53845163  0.54100281  0.38596670  1
  N  N53  1  0.44454805  0.42811075  0.12642387  1
  N  N54  1  0.22069515  0.53792287  0.88410132  1
  N  N55  1  0.11110674  0.43135126  0.62981259  1
  N  N56  1  0.89954667  0.54903615  0.38725787  1
  N  N57  1  0.77629873  0.43013448  0.11393352  1
  N  N58  1  0.55386013  0.53879480  0.86541187  1
  N  N59  1  0.43085719  0.41381873  0.63921278  1
  N  N60  1  0.22956806  0.85045273  0.37447881  1
  N  N61  1  0.09953573  0.75074639  0.13430414  1
  N  N62  1  0.88920077  0.87145869  0.87081235  1
  N  N63  1  0.76628535  0.75153761  0.63409096  1
  N  N64  1  0.55683516  0.86996353  0.37453792  1
  N  N65  1  0.45952579  0.73482477  0.13914237  1
  N  N66  1  0.23057050  0.85459326  0.87621092  1
  N  N67  1  0.13326000  0.74773411  0.63259742  1
  N  N68  1  0.88716722  0.87479013  0.37556040  1
  N  N69  1  0.79717211  0.75161553  0.13259521  1
  N  N70  1  0.55346122  0.87464409  0.87309434  1
  N  N71  1  0.43407539  0.78305755  0.63103180  1
