# generated using pymatgen
data_Sc2Al7N9
_symmetry_space_group_name_H-M   'P 1'
_cell_length_a   10.05997452
_cell_length_b   10.06701838
_cell_length_c   9.24922771
_cell_angle_alpha   90.02503388
_cell_angle_beta   90.01310932
_cell_angle_gamma   59.71412436
_symmetry_Int_Tables_number   1
_chemical_formula_structural   Sc2Al7N9
_chemical_formula_sum   'Sc8 Al28 N36'
_cell_volume   808.86402846
_cell_formula_units_Z   4
loop_
 _symmetry_equiv_pos_site_id
 _symmetry_equiv_pos_as_xyz
  1  'x, y, z'
loop_
 _atom_site_type_symbol
 _atom_site_label
 _atom_site_symmetry_multiplicity
 _atom_site_fract_x
 _atom_site_fract_y
 _atom_site_fract_z
 _atom_site_occupancy
  Sc  Sc0  1  0.11040248  0.09341415  0.36451882  1
  Sc  Sc1  1  0.22496024  0.21637822  0.11227553  1
  Sc  Sc2  1  0.10793320  0.09824082  0.85434376  1
  Sc  Sc3  1  0.78182533  0.43039734  0.35226566  1
  Sc  Sc4  1  0.55435534  0.53371185  0.60826827  1
  Sc  Sc5  1  0.22268225  0.86205698  0.10719843  1
  Sc  Sc6  1  0.88820230  0.87393836  0.60724458  1
  Sc  Sc7  1  0.56007677  0.87100860  0.10876786  1
  Al  Al8  1  0.77150371  0.09580643  0.87597070  1
  Al  Al9  1  0.88044796  0.21161151  0.62760922  1
  Al  Al10  1  0.45000085  0.09531307  0.38215863  1
  Al  Al11  1  0.55880062  0.20697526  0.12484573  1
  Al  Al12  1  0.22599971  0.21129250  0.61765523  1
  Al  Al13  1  0.76940008  0.09802551  0.37187258  1
  Al  Al14  1  0.88107004  0.20375888  0.11756342  1
  Al  Al15  1  0.45053392  0.09934100  0.86479048  1
  Al  Al16  1  0.55274643  0.20859407  0.62590640  1
  Al  Al17  1  0.11312414  0.43724104  0.38222328  1
  Al  Al18  1  0.21895856  0.53931056  0.12320878  1
  Al  Al19  1  0.77298623  0.43114460  0.87857666  1
  Al  Al20  1  0.88956184  0.53565892  0.62992471  1
  Al  Al21  1  0.43661054  0.42438183  0.37033909  1
  Al  Al22  1  0.55274632  0.53356064  0.12257248  1
  Al  Al23  1  0.11161192  0.43533998  0.86660059  1
  Al  Al24  1  0.22511294  0.53514382  0.62815500  1
  Al  Al25  1  0.89613151  0.54470541  0.11752289  1
  Al  Al26  1  0.44458416  0.42562798  0.87796115  1
  Al  Al27  1  0.11791926  0.75173713  0.37361721  1
  Al  Al28  1  0.78196795  0.75981081  0.87028453  1
  Al  Al29  1  0.44164922  0.76355490  0.37727593  1
  Al  Al30  1  0.10878212  0.75367025  0.87322211  1
  Al  Al31  1  0.22515318  0.86626788  0.62461575  1
  Al  Al32  1  0.77779900  0.75912156  0.37591923  1
  Al  Al33  1  0.88845896  0.87054615  0.12509430  1
  Al  Al34  1  0.45063041  0.75050701  0.86856485  1
  Al  Al35  1  0.55353962  0.87267471  0.62488973  1
  N  N36  1  0.23180965  0.21839914  0.35253647  1
  N  N37  1  0.09681819  0.10441261  0.09369045  1
  N  N38  1  0.86523431  0.21673169  0.83811251  1
  N  N39  1  0.76503949  0.11615933  0.57957571  1
  N  N40  1  0.55396133  0.20414313  0.33134660  1
  N  N41  1  0.45754762  0.10467136  0.07179046  1
  N  N42  1  0.23204364  0.21742236  0.83309072  1
  N  N43  1  0.10847587  0.09398774  0.60442273  1
  N  N44  1  0.87672317  0.19591086  0.32505250  1
  N  N45  1  0.77626062  0.09136183  0.08353355  1
  N  N46  1  0.55677979  0.20892931  0.83136194  1
  N  N47  1  0.45038595  0.09219922  0.59151896  1
  N  N48  1  0.22157111  0.53791480  0.32977498  1
  N  N49  1  0.10450736  0.44732350  0.07198730  1
  N  N50  1  0.88725757  0.53786835  0.83770572  1
  N  N51  1  0.79710633  0.41986740  0.58507749  1
  N  N52  1  0.53705963  0.54500827  0.34115035  1
  N  N53  1  0.44349971  0.42615544  0.08666179  1
  N  N54  1  0.22597740  0.53799405  0.83351951  1
  N  N55  1  0.10769140  0.43508040  0.59105083  1
  N  N56  1  0.90373049  0.54946853  0.32594813  1
  N  N57  1  0.77745982  0.42977464  0.09251087  1
  N  N58  1  0.55672378  0.53237064  0.84067162  1
  N  N59  1  0.43186645  0.41582708  0.57711742  1
  N  N60  1  0.22900828  0.85482699  0.34083925  1
  N  N61  1  0.09950615  0.75071987  0.08190809  1
  N  N62  1  0.88792774  0.87439116  0.83741192  1
  N  N63  1  0.76916640  0.74964974  0.58547685  1
  N  N64  1  0.55443568  0.87321843  0.34408211  1
  N  N65  1  0.45785201  0.73908990  0.07673563  1
  N  N66  1  0.22987542  0.85149431  0.84031464  1
  N  N67  1  0.13081080  0.74783227  0.58254375  1
  N  N68  1  0.88724449  0.87245129  0.34292454  1
  N  N69  1  0.79466623  0.75553647  0.07810187  1
  N  N70  1  0.55632232  0.87122060  0.83823721  1
  N  N71  1  0.43666698  0.77776457  0.58809421  1
