# generated using pymatgen
data_Sc2Al7N9
_symmetry_space_group_name_H-M   'P 1'
_cell_length_a   10.28624033
_cell_length_b   10.29644729
_cell_length_c   8.58620225
_cell_angle_alpha   89.99001062
_cell_angle_beta   90.00259898
_cell_angle_gamma   59.72590762
_symmetry_Int_Tables_number   1
_chemical_formula_structural   Sc2Al7N9
_chemical_formula_sum   'Sc8 Al28 N36'
_cell_volume   785.36161334
_cell_formula_units_Z   4
loop_
 _symmetry_equiv_pos_site_id
 _symmetry_equiv_pos_as_xyz
  1  'x, y, z'
loop_
 _atom_site_type_symbol
 _atom_site_label
 _atom_site_symmetry_multiplicity
 _atom_site_fract_x
 _atom_site_fract_y
 _atom_site_fract_z
 _atom_site_occupancy
  Sc  Sc0  1  0.10968132  0.09452009  0.35759249  1
  Sc  Sc1  1  0.22428594  0.21570460  0.10375974  1
  Sc  Sc2  1  0.10800379  0.09708211  0.84892272  1
  Sc  Sc3  1  0.77956607  0.43155327  0.34875213  1
  Sc  Sc4  1  0.55172831  0.53583568  0.60613318  1
  Sc  Sc5  1  0.22216113  0.86189457  0.10287894  1
  Sc  Sc6  1  0.88738936  0.87476364  0.60398378  1
  Sc  Sc7  1  0.56011171  0.87038287  0.10356413  1
  Al  Al8  1  0.77050044  0.09880520  0.85626490  1
  Al  Al9  1  0.88152791  0.20889488  0.60598808  1
  Al  Al10  1  0.45012959  0.09734965  0.35987039  1
  Al  Al11  1  0.55798796  0.20850498  0.10375945  1
  Al  Al12  1  0.22756521  0.21217564  0.60414038  1
  Al  Al13  1  0.77158103  0.09486844  0.34828607  1
  Al  Al14  1  0.88026354  0.20699034  0.09913824  1
  Al  Al15  1  0.45004176  0.09670788  0.84772724  1
  Al  Al16  1  0.55301423  0.20740274  0.60456368  1
  Al  Al17  1  0.11307847  0.43666856  0.36349157  1
  Al  Al18  1  0.22049489  0.53876536  0.10503902  1
  Al  Al19  1  0.77738058  0.42942254  0.85630152  1
  Al  Al20  1  0.89182308  0.53761722  0.61082891  1
  Al  Al21  1  0.43945048  0.42584560  0.35217173  1
  Al  Al22  1  0.55466884  0.53285472  0.09956603  1
  Al  Al23  1  0.11145484  0.43463673  0.85210338  1
  Al  Al24  1  0.22386051  0.53540690  0.60941222  1
  Al  Al25  1  0.89365210  0.54226058  0.09893705  1
  Al  Al26  1  0.44162136  0.42436433  0.85825770  1
  Al  Al27  1  0.11306296  0.75261070  0.35547819  1
  Al  Al28  1  0.77884872  0.75893150  0.85241578  1
  Al  Al29  1  0.44469611  0.75762786  0.35696166  1
  Al  Al30  1  0.11275155  0.75337961  0.85395233  1
  Al  Al31  1  0.22572981  0.86508823  0.60422054  1
  Al  Al32  1  0.78170170  0.75971829  0.35592914  1
  Al  Al33  1  0.88900957  0.87013321  0.10164521  1
  Al  Al34  1  0.44723752  0.75719221  0.85200216  1
  Al  Al35  1  0.55364554  0.87308152  0.60359370  1
  N  N36  1  0.23069630  0.21825837  0.36467016  1
  N  N37  1  0.09680134  0.10312511  0.10224589  1
  N  N38  1  0.86901263  0.21392128  0.85370669  1
  N  N39  1  0.76620288  0.11156765  0.60455798  1
  N  N40  1  0.55555503  0.20698390  0.35139517  1
  N  N41  1  0.45624350  0.10256669  0.10285587  1
  N  N42  1  0.23202717  0.21571487  0.84107833  1
  N  N43  1  0.10826409  0.09477534  0.60351784  1
  N  N44  1  0.87577939  0.19938067  0.35156304  1
  N  N45  1  0.77585635  0.09408491  0.10071986  1
  N  N46  1  0.55476692  0.20670042  0.85234147  1
  N  N47  1  0.45032976  0.09316045  0.60182726  1
  N  N48  1  0.22372543  0.53732243  0.34888366  1
  N  N49  1  0.10429862  0.44563659  0.09427600  1
  N  N50  1  0.88994448  0.53901458  0.85203741  1
  N  N51  1  0.79337452  0.42243223  0.60979120  1
  N  N52  1  0.54064149  0.54146916  0.34712828  1
  N  N53  1  0.44265406  0.42625919  0.09992981  1
  N  N54  1  0.22363682  0.53813577  0.85093167  1
  N  N55  1  0.10911269  0.43422326  0.60435260  1
  N  N56  1  0.90065894  0.54725940  0.34997134  1
  N  N57  1  0.77918297  0.42944072  0.09318075  1
  N  N58  1  0.55433745  0.53543430  0.85946270  1
  N  N59  1  0.43400026  0.41780922  0.60218211  1
  N  N60  1  0.22846999  0.85450055  0.36044239  1
  N  N61  1  0.10255763  0.75049023  0.10147196  1
  N  N62  1  0.88818970  0.87348549  0.85923668  1
  N  N63  1  0.77139004  0.75251996  0.60411635  1
  N  N64  1  0.55648390  0.87128585  0.36171152  1
  N  N65  1  0.45506997  0.74293929  0.10051766  1
  N  N66  1  0.22898453  0.85413927  0.84477613  1
  N  N67  1  0.12572949  0.74924858  0.60114266  1
  N  N68  1  0.88713134  0.87339441  0.34572620  1
  N  N69  1  0.79248523  0.75412882  0.09839971  1
  N  N70  1  0.55489154  0.87314821  0.84410719  1
  N  N71  1  0.43909415  0.77405410  0.60325040  1
