# generated using pymatgen
data_Sc2Al7N9
_symmetry_space_group_name_H-M   'P 1'
_cell_length_a   9.73917213
_cell_length_b   9.74067802
_cell_length_c   10.14032448
_cell_angle_alpha   90.04332874
_cell_angle_beta   89.92544082
_cell_angle_gamma   59.84387722
_symmetry_Int_Tables_number   1
_chemical_formula_structural   Sc2Al7N9
_chemical_formula_sum   'Sc8 Al28 N36'
_cell_volume   831.77791635
_cell_formula_units_Z   4
loop_
 _symmetry_equiv_pos_site_id
 _symmetry_equiv_pos_as_xyz
  1  'x, y, z'
loop_
 _atom_site_type_symbol
 _atom_site_label
 _atom_site_symmetry_multiplicity
 _atom_site_fract_x
 _atom_site_fract_y
 _atom_site_fract_z
 _atom_site_occupancy
  Sc  Sc0  1  0.10951319  0.09313719  0.41603628  1
  Sc  Sc1  1  0.22119161  0.21433972  0.14937187  1
  Sc  Sc2  1  0.10879880  0.09704495  0.88097190  1
  Sc  Sc3  1  0.77991688  0.42961046  0.38640750  1
  Sc  Sc4  1  0.55648919  0.53436215  0.64661739  1
  Sc  Sc5  1  0.21929109  0.86801794  0.14522540  1
  Sc  Sc6  1  0.88827469  0.87330532  0.64300118  1
  Sc  Sc7  1  0.56047097  0.87107502  0.14717197  1
  Al  Al8  1  0.77144563  0.09597857  0.90629350  1
  Al  Al9  1  0.87972018  0.21190963  0.66043640  1
  Al  Al10  1  0.44816458  0.09537681  0.41095185  1
  Al  Al11  1  0.55747350  0.20794681  0.15308985  1
  Al  Al12  1  0.22748442  0.21179184  0.65647897  1
  Al  Al13  1  0.77069269  0.09717317  0.39987092  1
  Al  Al14  1  0.88266982  0.20386475  0.14845612  1
  Al  Al15  1  0.45047230  0.09898586  0.89780982  1
  Al  Al16  1  0.55249950  0.20772033  0.65351367  1
  Al  Al17  1  0.11365236  0.43499344  0.40808424  1
  Al  Al18  1  0.21961682  0.53949636  0.15280097  1
  Al  Al19  1  0.77338981  0.43106696  0.91092211  1
  Al  Al20  1  0.89167938  0.53424861  0.65648502  1
  Al  Al21  1  0.43703040  0.42520167  0.40055514  1
  Al  Al22  1  0.55154018  0.53559156  0.15389700  1
  Al  Al23  1  0.11178689  0.43508590  0.90043586  1
  Al  Al24  1  0.22433841  0.53442777  0.65477199  1
  Al  Al25  1  0.89470890  0.54400341  0.14956699  1
  Al  Al26  1  0.44440335  0.42631635  0.90594020  1
  Al  Al27  1  0.11725687  0.75302443  0.40366379  1
  Al  Al28  1  0.78163073  0.75942297  0.90225897  1
  Al  Al29  1  0.44061358  0.76406806  0.40788333  1
  Al  Al30  1  0.11018032  0.75320139  0.90456022  1
  Al  Al31  1  0.22796541  0.86290735  0.66034795  1
  Al  Al32  1  0.77763264  0.76002275  0.40546594  1
  Al  Al33  1  0.88889415  0.87041352  0.15459353  1
  Al  Al34  1  0.45078823  0.75133310  0.90221365  1
  Al  Al35  1  0.55310685  0.87307990  0.65491794  1
  N  N36  1  0.22974546  0.21496370  0.36134461  1
  N  N37  1  0.09348585  0.10617030  0.09133779  1
  N  N38  1  0.86122280  0.21921254  0.84734729  1
  N  N39  1  0.76594567  0.11657585  0.58889464  1
  N  N40  1  0.55343078  0.20438854  0.34313624  1
  N  N41  1  0.45525097  0.10507416  0.08352802  1
  N  N42  1  0.23438843  0.21969072  0.84449567  1
  N  N43  1  0.11037519  0.09309763  0.63240122  1
  N  N44  1  0.88249035  0.19181190  0.33427135  1
  N  N45  1  0.77570910  0.09244371  0.09615451  1
  N  N46  1  0.55714480  0.20778874  0.84266721  1
  N  N47  1  0.44866103  0.09269221  0.60097238  1
  N  N48  1  0.22161709  0.53811066  0.34244462  1
  N  N49  1  0.10411414  0.44645995  0.08654606  1
  N  N50  1  0.88842994  0.53720474  0.84752687  1
  N  N51  1  0.79966979  0.41709202  0.59481278  1
  N  N52  1  0.53424438  0.54739700  0.34779212  1
  N  N53  1  0.44293466  0.42696357  0.09712810  1
  N  N54  1  0.22478528  0.53808681  0.84399721  1
  N  N55  1  0.10940643  0.43201876  0.59866512  1
  N  N56  1  0.90293113  0.55002125  0.33784306  1
  N  N57  1  0.77715809  0.43021278  0.10661938  1
  N  N58  1  0.55784536  0.53382593  0.85540474  1
  N  N59  1  0.43302097  0.41646584  0.58877086  1
  N  N60  1  0.22741574  0.85873241  0.35358686  1
  N  N61  1  0.10049926  0.75107731  0.09268228  1
  N  N62  1  0.88855529  0.87392888  0.85202133  1
  N  N63  1  0.76894144  0.74861494  0.59450904  1
  N  N64  1  0.55437692  0.87301908  0.35797530  1
  N  N65  1  0.45589166  0.74144839  0.08748005  1
  N  N66  1  0.23372842  0.84631056  0.84968239  1
  N  N67  1  0.13179989  0.74807591  0.59262585  1
  N  N68  1  0.88808764  0.87196961  0.35372259  1
  N  N69  1  0.79474182  0.75458510  0.08968986  1
  N  N70  1  0.55630966  0.87141237  0.84863136  1
  N  N71  1  0.43606701  0.77825555  0.59617385  1
