# generated using pymatgen
data_Sc2Al7N9
_symmetry_space_group_name_H-M   'P 1'
_cell_length_a   9.74085395
_cell_length_b   9.73945442
_cell_length_c   10.14126891
_cell_angle_alpha   89.90304784
_cell_angle_beta   89.92990217
_cell_angle_gamma   59.83107169
_symmetry_Int_Tables_number   1
_chemical_formula_structural   Sc2Al7N9
_chemical_formula_sum   'Sc8 Al28 N36'
_cell_volume   831.78702064
_cell_formula_units_Z   4
loop_
 _symmetry_equiv_pos_site_id
 _symmetry_equiv_pos_as_xyz
  1  'x, y, z'
loop_
 _atom_site_type_symbol
 _atom_site_label
 _atom_site_symmetry_multiplicity
 _atom_site_fract_x
 _atom_site_fract_y
 _atom_site_fract_z
 _atom_site_occupancy
  Sc  Sc0  1  0.10935582  0.09590793  0.31888219  1
  Sc  Sc1  1  0.22200960  0.21426213  0.05305585  1
  Sc  Sc2  1  0.10942655  0.09487542  0.78942600  1
  Sc  Sc3  1  0.77397186  0.43422463  0.29693701  1
  Sc  Sc4  1  0.55403399  0.53551043  0.56626119  1
  Sc  Sc5  1  0.22078001  0.86636833  0.05773842  1
  Sc  Sc6  1  0.88810432  0.87368322  0.55785139  1
  Sc  Sc7  1  0.56048858  0.87037128  0.05670564  1
  Al  Al8  1  0.76935712  0.10074256  0.80168627  1
  Al  Al9  1  0.88241746  0.20846909  0.54798772  1
  Al  Al10  1  0.45013424  0.09921946  0.30427447  1
  Al  Al11  1  0.55773483  0.20805887  0.04882149  1
  Al  Al12  1  0.22745509  0.21171478  0.54586359  1
  Al  Al13  1  0.77245931  0.09331257  0.29435609  1
  Al  Al14  1  0.88008191  0.20875224  0.04456799  1
  Al  Al15  1  0.44895419  0.09511281  0.79088119  1
  Al  Al16  1  0.55272688  0.20740932  0.54752947  1
  Al  Al17  1  0.11298145  0.43762508  0.30104488  1
  Al  Al18  1  0.21937865  0.53970485  0.04913150  1
  Al  Al19  1  0.78101060  0.42760920  0.80186786  1
  Al  Al20  1  0.89415471  0.53683966  0.55114794  1
  Al  Al21  1  0.44156368  0.42794895  0.29658148  1
  Al  Al22  1  0.55635559  0.53338336  0.03933685  1
  Al  Al23  1  0.11263703  0.43248660  0.79377792  1
  Al  Al24  1  0.22477427  0.53395640  0.54683343  1
  Al  Al25  1  0.89185702  0.54070566  0.04458082  1
  Al  Al26  1  0.43917913  0.42271933  0.80101270  1
  Al  Al27  1  0.10917052  0.75384923  0.29766415  1
  Al  Al28  1  0.77534872  0.75858265  0.79669079  1
  Al  Al29  1  0.44683387  0.75202507  0.30135981  1
  Al  Al30  1  0.11786253  0.75265844  0.79760337  1
  Al  Al31  1  0.22758846  0.86457260  0.54245548  1
  Al  Al32  1  0.78427291  0.76091524  0.29840626  1
  Al  Al33  1  0.88965297  0.86989155  0.04664839  1
  Al  Al34  1  0.44383388  0.76436017  0.79383335  1
  Al  Al35  1  0.55329583  0.87353507  0.54610850  1
  N  N36  1  0.23319721  0.22068716  0.35688010  1
  N  N37  1  0.09062068  0.10726558  0.10593095  1
  N  N38  1  0.87174709  0.21224548  0.85758462  1
  N  N39  1  0.76469112  0.11561055  0.61435020  1
  N  N40  1  0.55710811  0.20781101  0.35794619  1
  N  N41  1  0.45584151  0.10500772  0.11891484  1
  N  N42  1  0.23137592  0.21404762  0.84194814  1
  N  N43  1  0.11231424  0.09317476  0.57441304  1
  N  N44  1  0.86867652  0.20254163  0.36326921  1
  N  N45  1  0.77708593  0.09362538  0.10273391  1
  N  N46  1  0.55339701  0.20410699  0.85945433  1
  N  N47  1  0.44882291  0.09266143  0.60037970  1
  N  N48  1  0.22483467  0.53867831  0.35731031  1
  N  N49  1  0.10104798  0.44760415  0.11291161  1
  N  N50  1  0.89226505  0.53881108  0.85490217  1
  N  N51  1  0.80146024  0.41717519  0.61140602  1
  N  N52  1  0.53992751  0.54098373  0.35895305  1
  N  N53  1  0.44414177  0.42816362  0.10254068  1
  N  N54  1  0.22098645  0.53785294  0.85954306  1
  N  N55  1  0.11160829  0.43096871  0.60528286  1
  N  N56  1  0.89910496  0.54847936  0.36337649  1
  N  N57  1  0.77619242  0.43038066  0.08647354  1
  N  N58  1  0.55338279  0.53907074  0.84277798  1
  N  N59  1  0.43176565  0.41453067  0.61435281  1
  N  N60  1  0.23028254  0.84952237  0.35204335  1
  N  N61  1  0.10064658  0.75094883  0.10966467  1
  N  N62  1  0.88905743  0.87143068  0.84879128  1
  N  N63  1  0.76748393  0.75153572  0.60930138  1
  N  N64  1  0.55660912  0.87032180  0.35175172  1
  N  N65  1  0.45820840  0.73686923  0.11470055  1
  N  N66  1  0.22992109  0.85598281  0.84954925  1
  N  N67  1  0.13211669  0.74820418  0.60874686  1
  N  N68  1  0.88751309  0.87483398  0.34823773  1
  N  N69  1  0.79635170  0.75146232  0.10903971  1
  N  N70  1  0.55393102  0.87421680  0.84612199  1
  N  N71  1  0.43484702  0.78160619  0.60651952  1
