# generated using pymatgen
data_Sc2Al7N9
_symmetry_space_group_name_H-M   'P 1'
_cell_length_a   9.91676880
_cell_length_b   9.92163886
_cell_length_c   9.66657574
_cell_angle_alpha   90.03466703
_cell_angle_beta   90.00285099
_cell_angle_gamma   59.73416320
_symmetry_Int_Tables_number   1
_chemical_formula_structural   Sc2Al7N9
_chemical_formula_sum   'Sc8 Al28 N36'
_cell_volume   821.46144549
_cell_formula_units_Z   4
loop_
 _symmetry_equiv_pos_site_id
 _symmetry_equiv_pos_as_xyz
  1  'x, y, z'
loop_
 _atom_site_type_symbol
 _atom_site_label
 _atom_site_symmetry_multiplicity
 _atom_site_fract_x
 _atom_site_fract_y
 _atom_site_fract_z
 _atom_site_occupancy
  Sc  Sc0  1  0.11136815  0.09219256  0.37596300  1
  Sc  Sc1  1  0.22400143  0.21594952  0.11948702  1
  Sc  Sc2  1  0.10730552  0.09911389  0.85795847  1
  Sc  Sc3  1  0.78260902  0.42941733  0.35614841  1
  Sc  Sc4  1  0.55558384  0.53395484  0.61161707  1
  Sc  Sc5  1  0.22195670  0.86359810  0.11127303  1
  Sc  Sc6  1  0.88848263  0.87324136  0.61032640  1
  Sc  Sc7  1  0.56034155  0.87063007  0.11378710  1
  Al  Al8  1  0.77194055  0.09509631  0.88011462  1
  Al  Al9  1  0.87987594  0.21260081  0.63345502  1
  Al  Al10  1  0.44923415  0.09484822  0.38573334  1
  Al  Al11  1  0.55889389  0.20725340  0.12894055  1
  Al  Al12  1  0.22636607  0.21150792  0.62750622  1
  Al  Al13  1  0.76897146  0.09880090  0.37736035  1
  Al  Al14  1  0.88165533  0.20272980  0.12340223  1
  Al  Al15  1  0.45052367  0.10018146  0.87190779  1
  Al  Al16  1  0.55221675  0.20811583  0.63023990  1
  Al  Al17  1  0.11367338  0.43638928  0.38511053  1
  Al  Al18  1  0.21914546  0.53968412  0.12804177  1
  Al  Al19  1  0.77176598  0.43178554  0.88615532  1
  Al  Al20  1  0.88982557  0.53479169  0.63270585  1
  Al  Al21  1  0.43612702  0.42374177  0.37639106  1
  Al  Al22  1  0.55139824  0.53421042  0.13248263  1
  Al  Al23  1  0.11121445  0.43593603  0.87362566  1
  Al  Al24  1  0.22469448  0.53478780  0.63178557  1
  Al  Al25  1  0.89610250  0.54542539  0.12427033  1
  Al  Al26  1  0.44520995  0.42651099  0.88129478  1
  Al  Al27  1  0.11984890  0.75184661  0.37867021  1
  Al  Al28  1  0.78318261  0.75960099  0.87589201  1
  Al  Al29  1  0.44030860  0.76566939  0.38234390  1
  Al  Al30  1  0.10764547  0.75358432  0.87874558  1
  Al  Al31  1  0.22635029  0.86529028  0.63501158  1
  Al  Al32  1  0.77591607  0.75969848  0.38088489  1
  Al  Al33  1  0.88862992  0.87053073  0.13310068  1
  Al  Al34  1  0.45197787  0.74827770  0.87508885  1
  Al  Al35  1  0.55285567  0.87316956  0.63240309  1
  N  N36  1  0.23134819  0.21767468  0.34375510  1
  N  N37  1  0.09528166  0.10573915  0.08342529  1
  N  N38  1  0.86284019  0.21868950  0.83170443  1
  N  N39  1  0.76448384  0.11762450  0.57397086  1
  N  N40  1  0.55371541  0.20407199  0.32611054  1
  N  N41  1  0.45734764  0.10548357  0.06640039  1
  N  N42  1  0.23293678  0.21883424  0.82853109  1
  N  N43  1  0.10945605  0.09342903  0.60631009  1
  N  N44  1  0.87884308  0.19299661  0.31852625  1
  N  N45  1  0.77663913  0.09075740  0.07822797  1
  N  N46  1  0.55696763  0.20861554  0.82619731  1
  N  N47  1  0.44955442  0.09203618  0.58494753  1
  N  N48  1  0.22176575  0.53802345  0.32494980  1
  N  N49  1  0.10406095  0.44787726  0.06805424  1
  N  N50  1  0.88721416  0.53733192  0.83140887  1
  N  N51  1  0.79946589  0.41813447  0.57572531  1
  N  N52  1  0.53564747  0.54584109  0.33766834  1
  N  N53  1  0.44371922  0.42674146  0.08079959  1
  N  N54  1  0.22527287  0.53826057  0.82791579  1
  N  N55  1  0.10819448  0.43400199  0.58370597  1
  N  N56  1  0.90396802  0.55080979  0.32092177  1
  N  N57  1  0.77675167  0.43002361  0.09135153  1
  N  N58  1  0.55778522  0.53236543  0.83239871  1
  N  N59  1  0.43150965  0.41523056  0.57222886  1
  N  N60  1  0.22931969  0.85515843  0.33154368  1
  N  N61  1  0.09842480  0.75092058  0.07611959  1
  N  N62  1  0.88810117  0.87411890  0.82985776  1
  N  N63  1  0.76733161  0.74918579  0.57896047  1
  N  N64  1  0.55389879  0.87332613  0.33644125  1
  N  N65  1  0.45903294  0.73692997  0.07018775  1
  N  N66  1  0.23112107  0.84966829  0.83718496  1
  N  N67  1  0.13333135  0.74764662  0.57645518  1
  N  N68  1  0.88740939  0.87235433  0.34083350  1
  N  N69  1  0.79590101  0.75548660  0.07257920  1
  N  N70  1  0.55624198  0.87129926  0.83493030  1
  N  N71  1  0.43519905  0.78019357  0.58092700  1
