# generated using pymatgen
data_Sc2Al7N9
_symmetry_space_group_name_H-M   'P 1'
_cell_length_a   10.17884408
_cell_length_b   10.18684569
_cell_length_c   8.88873139
_cell_angle_alpha   89.93327572
_cell_angle_beta   89.97926975
_cell_angle_gamma   59.74676729
_symmetry_Int_Tables_number   1
_chemical_formula_structural   Sc2Al7N9
_chemical_formula_sum   'Sc8 Al28 N36'
_cell_volume   796.14912509
_cell_formula_units_Z   4
loop_
 _symmetry_equiv_pos_site_id
 _symmetry_equiv_pos_as_xyz
  1  'x, y, z'
loop_
 _atom_site_type_symbol
 _atom_site_label
 _atom_site_symmetry_multiplicity
 _atom_site_fract_x
 _atom_site_fract_y
 _atom_site_fract_z
 _atom_site_occupancy
  Sc  Sc0  1  0.10922137  0.09464427  0.35600881  1
  Sc  Sc1  1  0.22554458  0.21477331  0.10053300  1
  Sc  Sc2  1  0.10882938  0.09656554  0.84656482  1
  Sc  Sc3  1  0.77800977  0.43168310  0.34719913  1
  Sc  Sc4  1  0.55060314  0.53523838  0.60556110  1
  Sc  Sc5  1  0.22175843  0.86157374  0.10091228  1
  Sc  Sc6  1  0.88573336  0.87562078  0.60112056  1
  Sc  Sc7  1  0.55904612  0.87184951  0.10130891  1
  Al  Al8  1  0.76900164  0.10028961  0.84445995  1
  Al  Al9  1  0.88172324  0.20782040  0.59504848  1
  Al  Al10  1  0.44997646  0.09883694  0.35095017  1
  Al  Al11  1  0.55764873  0.20686304  0.08721393  1
  Al  Al12  1  0.22547139  0.21267260  0.59558970  1
  Al  Al13  1  0.77218147  0.09380648  0.33137908  1
  Al  Al14  1  0.87993829  0.20873266  0.08546765  1
  Al  Al15  1  0.45014496  0.09588449  0.82783524  1
  Al  Al16  1  0.55357412  0.20939630  0.58540554  1
  Al  Al17  1  0.11233299  0.43753543  0.34237693  1
  Al  Al18  1  0.21802087  0.54046266  0.08775528  1
  Al  Al19  1  0.77886656  0.42969407  0.84711318  1
  Al  Al20  1  0.89272113  0.53902239  0.59279009  1
  Al  Al21  1  0.44135048  0.42676973  0.32999178  1
  Al  Al22  1  0.55702969  0.53235994  0.08653333  1
  Al  Al23  1  0.11246370  0.43401838  0.83341764  1
  Al  Al24  1  0.22566927  0.53325198  0.58503694  1
  Al  Al25  1  0.89313261  0.54076885  0.08385592  1
  Al  Al26  1  0.43898485  0.42275041  0.84609176  1
  Al  Al27  1  0.11082247  0.75339743  0.34336260  1
  Al  Al28  1  0.77720394  0.75877747  0.84116907  1
  Al  Al29  1  0.44604545  0.75443261  0.34624134  1
  Al  Al30  1  0.11544524  0.75193834  0.83617662  1
  Al  Al31  1  0.22577939  0.86624134  0.59640194  1
  Al  Al32  1  0.78334696  0.76032122  0.33899886  1
  Al  Al33  1  0.89036723  0.86939497  0.09017346  1
  Al  Al34  1  0.44610845  0.76042880  0.84072126  1
  Al  Al35  1  0.55477498  0.87172598  0.59214176  1
  N  N36  1  0.22929574  0.21903472  0.36823381  1
  N  N37  1  0.09526636  0.10395164  0.10445701  1
  N  N38  1  0.86899686  0.21483307  0.86322456  1
  N  N39  1  0.76410272  0.11352880  0.62425463  1
  N  N40  1  0.55701979  0.20992664  0.36658498  1
  N  N41  1  0.45702935  0.10355676  0.12953000  1
  N  N42  1  0.23360339  0.21561604  0.84827500  1
  N  N43  1  0.10998233  0.09422373  0.60427018  1
  N  N44  1  0.87448541  0.19810860  0.36865583  1
  N  N45  1  0.77689670  0.09393541  0.10952260  1
  N  N46  1  0.55341900  0.20357532  0.86993224  1
  N  N47  1  0.45028924  0.09317495  0.60551673  1
  N  N48  1  0.22688002  0.53620832  0.36556161  1
  N  N49  1  0.10247979  0.44673072  0.11964400  1
  N  N50  1  0.89240164  0.53776448  0.86342514  1
  N  N51  1  0.79486868  0.42204924  0.61489950  1
  N  N52  1  0.54035270  0.53986419  0.35973545  1
  N  N53  1  0.44340841  0.42671135  0.10796534  1
  N  N54  1  0.22021836  0.53895932  0.86983818  1
  N  N55  1  0.11038920  0.43344701  0.61476420  1
  N  N56  1  0.89936564  0.54927903  0.37031129  1
  N  N57  1  0.77882042  0.42961083  0.09946168  1
  N  N58  1  0.55452321  0.53738979  0.86092031  1
  N  N59  1  0.43251812  0.41613074  0.62668576  1
  N  N60  1  0.22878382  0.85362049  0.36343682  1
  N  N61  1  0.10131211  0.75034466  0.11976500  1
  N  N62  1  0.89004429  0.87175407  0.86248589  1
  N  N63  1  0.76951278  0.75310204  0.61958220  1
  N  N64  1  0.55833975  0.86858937  0.36478164  1
  N  N65  1  0.45621325  0.74072982  0.11482074  1
  N  N66  1  0.22915422  0.85391138  0.85290897  1
  N  N67  1  0.12763297  0.74810654  0.61253640  1
  N  N68  1  0.88547875  0.87530745  0.35610135  1
  N  N69  1  0.79410596  0.75281501  0.11148369  1
  N  N70  1  0.55296224  0.87576319  0.85377442  1
  N  N71  1  0.43827897  0.77587367  0.61262188  1
