# generated using pymatgen
data_Sc2Al7N9
_symmetry_space_group_name_H-M   'P 1'
_cell_length_a   9.73922997
_cell_length_b   9.74063801
_cell_length_c   10.14037117
_cell_angle_alpha   90.04058120
_cell_angle_beta   89.92530284
_cell_angle_gamma   59.84352873
_symmetry_Int_Tables_number   1
_chemical_formula_structural   Sc2Al7N9
_chemical_formula_sum   'Sc8 Al28 N36'
_cell_volume   831.78039997
_cell_formula_units_Z   4
loop_
 _symmetry_equiv_pos_site_id
 _symmetry_equiv_pos_as_xyz
  1  'x, y, z'
loop_
 _atom_site_type_symbol
 _atom_site_label
 _atom_site_symmetry_multiplicity
 _atom_site_fract_x
 _atom_site_fract_y
 _atom_site_fract_z
 _atom_site_occupancy
  Sc  Sc0  1  0.10951780  0.09313964  0.41378808  1
  Sc  Sc1  1  0.22120112  0.21433379  0.14712191  1
  Sc  Sc2  1  0.10880255  0.09704795  0.87872202  1
  Sc  Sc3  1  0.77991773  0.42961499  0.38416053  1
  Sc  Sc4  1  0.55649215  0.53436451  0.64437094  1
  Sc  Sc5  1  0.21929493  0.86801620  0.14297859  1
  Sc  Sc6  1  0.88827665  0.87330858  0.64075245  1
  Sc  Sc7  1  0.56047822  0.87107208  0.14491993  1
  Al  Al8  1  0.77144908  0.09598204  0.90404314  1
  Al  Al9  1  0.87972364  0.21191386  0.65818814  1
  Al  Al10  1  0.44816721  0.09538077  0.40870519  1
  Al  Al11  1  0.55747835  0.20794797  0.15084419  1
  Al  Al12  1  0.22748769  0.21179555  0.65422723  1
  Al  Al13  1  0.77069500  0.09717824  0.39762143  1
  Al  Al14  1  0.88267504  0.20386607  0.14620696  1
  Al  Al15  1  0.45047757  0.09898802  0.89556044  1
  Al  Al16  1  0.55250284  0.20772379  0.65126714  1
  Al  Al17  1  0.11365350  0.43499808  0.40583250  1
  Al  Al18  1  0.21961934  0.53949711  0.15055580  1
  Al  Al19  1  0.77339341  0.43107012  0.90867411  1
  Al  Al20  1  0.89168191  0.53425255  0.65423334  1
  Al  Al21  1  0.43703187  0.42520729  0.39830737  1
  Al  Al22  1  0.55154362  0.53559244  0.15164828  1
  Al  Al23  1  0.11179177  0.43508601  0.89818430  1
  Al  Al24  1  0.22434084  0.53443138  0.65252389  1
  Al  Al25  1  0.89471555  0.54400238  0.14731492  1
  Al  Al26  1  0.44440535  0.42632043  0.90369186  1
  Al  Al27  1  0.11725823  0.75303072  0.40141979  1
  Al  Al28  1  0.78163557  0.75942517  0.90000977  1
  Al  Al29  1  0.44061472  0.76407395  0.40563248  1
  Al  Al30  1  0.11018184  0.75320374  0.90231350  1
  Al  Al31  1  0.22796862  0.86291124  0.65810442  1
  Al  Al32  1  0.77763334  0.76002764  0.40321573  1
  Al  Al33  1  0.88889756  0.87041535  0.15234407  1
  Al  Al34  1  0.45079138  0.75133581  0.89996622  1
  Al  Al35  1  0.55310942  0.87308224  0.65266946  1
  N  N36  1  0.22974780  0.21496943  0.35909359  1
  N  N37  1  0.09348886  0.10617288  0.08908680  1
  N  N38  1  0.86122582  0.21921738  0.84509657  1
  N  N39  1  0.76594739  0.11658309  0.58664472  1
  N  N40  1  0.55343213  0.20439476  0.34088857  1
  N  N41  1  0.45525895  0.10507633  0.08127703  1
  N  N42  1  0.23439349  0.21969228  0.84224278  1
  N  N43  1  0.11037718  0.09310421  0.63015159  1
  N  N44  1  0.88249342  0.19181670  0.33202134  1
  N  N45  1  0.77571209  0.09244847  0.09390442  1
  N  N46  1  0.55714788  0.20779433  0.84041756  1
  N  N47  1  0.44866385  0.09269766  0.59872337  1
  N  N48  1  0.22161744  0.53811854  0.34019721  1
  N  N49  1  0.10412030  0.44645959  0.08429512  1
  N  N50  1  0.88843457  0.53720745  0.84527501  1
  N  N51  1  0.79966963  0.41710101  0.59256298  1
  N  N52  1  0.53424594  0.54740251  0.34554086  1
  N  N53  1  0.44293597  0.42696793  0.09487905  1
  N  N54  1  0.22478731  0.53809064  0.84174704  1
  N  N55  1  0.10940752  0.43202591  0.59641256  1
  N  N56  1  0.90293117  0.55002697  0.33559029  1
  N  N57  1  0.77716084  0.43021666  0.10436776  1
  N  N58  1  0.55784790  0.53383042  0.85315636  1
  N  N59  1  0.43302100  0.41647296  0.58652151  1
  N  N60  1  0.22741675  0.85873796  0.35133691  1
  N  N61  1  0.10050011  0.75108018  0.09043260  1
  N  N62  1  0.88855714  0.87393440  0.84977002  1
  N  N63  1  0.76894121  0.74862223  0.59225696  1
  N  N64  1  0.55437697  0.87302623  0.35572232  1
  N  N65  1  0.45589316  0.74145258  0.08522991  1
  N  N66  1  0.23373081  0.84631311  0.84743533  1
  N  N67  1  0.13180083  0.74808460  0.59037895  1
  N  N68  1  0.88808910  0.87197446  0.35147284  1
  N  N69  1  0.79474745  0.75458782  0.08743777  1
  N  N70  1  0.55631409  0.87141467  0.84638127  1
  N  N71  1  0.43606730  0.77826164  0.59392311  1
