# generated using pymatgen
data_TaZn2N3
_symmetry_space_group_name_H-M   'P 1'
_cell_length_a   5.54276256
_cell_length_b   5.85596712
_cell_length_c   9.96316023
_cell_angle_alpha   89.98808509
_cell_angle_beta   90.63051838
_cell_angle_gamma   89.94907206
_symmetry_Int_Tables_number   1
_chemical_formula_structural   TaZn2N3
_chemical_formula_sum   'Ta4 Zn8 N12'
_cell_volume   323.36688238
_cell_formula_units_Z   4
loop_
 _symmetry_equiv_pos_site_id
 _symmetry_equiv_pos_as_xyz
  1  'x, y, z'
loop_
 _atom_site_type_symbol
 _atom_site_label
 _atom_site_symmetry_multiplicity
 _atom_site_fract_x
 _atom_site_fract_y
 _atom_site_fract_z
 _atom_site_occupancy
  Ta  Ta0  1  0.88747823  0.33222928  0.00247796  1
  Ta  Ta1  1  0.38680799  0.67107973  0.00369590  1
  Ta  Ta2  1  0.02739557  0.82924627  0.49993457  1
  Ta  Ta3  1  0.52791025  0.16885535  0.49986795  1
  Zn  Zn4  1  0.03948626  0.84573098  0.81902985  1
  Zn  Zn5  1  0.89504499  0.83902464  0.16820142  1
  Zn  Zn6  1  0.54014599  0.15427239  0.81838706  1
  Zn  Zn7  1  0.42665726  0.16323837  0.17074248  1
  Zn  Zn8  1  0.04550246  0.34000167  0.67270355  1
  Zn  Zn9  1  0.03014937  0.33884260  0.33188894  1
  Zn  Zn10  1  0.54637756  0.65869126  0.67370662  1
  Zn  Zn11  1  0.52878287  0.65949438  0.33589269  1
  N  N12  1  0.99346541  0.16439972  0.15814355  1
  N  N13  1  0.92966848  0.16628283  0.83525481  1
  N  N14  1  0.02434941  0.64957371  0.00568909  1
  N  N15  1  0.42976933  0.83372805  0.83589652  1
  N  N16  1  0.50826310  0.83550415  0.15884745  1
  N  N17  1  0.52247808  0.35385529  0.00326871  1
  N  N18  1  0.91004065  0.66243963  0.34521500  1
  N  N19  1  0.91739552  0.66641336  0.65927897  1
  N  N20  1  0.41738984  0.33290608  0.65831251  1
  N  N21  1  0.40980469  0.33566484  0.34429033  1
  N  N22  1  0.89143092  0.14884430  0.49933949  1
  N  N23  1  0.39181339  0.84968124  0.49993455  1
