# generated using pymatgen
data_TaZn2N3
_symmetry_space_group_name_H-M   'P 1'
_cell_length_a   5.53266628
_cell_length_b   5.86501437
_cell_length_c   9.98859195
_cell_angle_alpha   90.16933553
_cell_angle_beta   90.24539125
_cell_angle_gamma   90.00386464
_symmetry_Int_Tables_number   1
_chemical_formula_structural   TaZn2N3
_chemical_formula_sum   'Ta4 Zn8 N12'
_cell_volume   324.11710143
_cell_formula_units_Z   4
loop_
 _symmetry_equiv_pos_site_id
 _symmetry_equiv_pos_as_xyz
  1  'x, y, z'
loop_
 _atom_site_type_symbol
 _atom_site_label
 _atom_site_symmetry_multiplicity
 _atom_site_fract_x
 _atom_site_fract_y
 _atom_site_fract_z
 _atom_site_occupancy
  Ta  Ta0  1  0.87794793  0.33424522  0.00006386  1
  Ta  Ta1  1  0.38139207  0.67240972  0.00245260  1
  Ta  Ta2  1  0.02787128  0.82902517  0.50014962  1
  Ta  Ta3  1  0.52841855  0.16885804  0.50000372  1
  Zn  Zn4  1  0.03639029  0.84631585  0.81811735  1
  Zn  Zn5  1  0.93139068  0.83374254  0.17253661  1
  Zn  Zn6  1  0.53362044  0.15554475  0.81742985  1
  Zn  Zn7  1  0.51405685  0.16400889  0.17933376  1
  Zn  Zn8  1  0.04331607  0.34001428  0.67242007  1
  Zn  Zn9  1  0.03867333  0.33632524  0.32915676  1
  Zn  Zn10  1  0.54407964  0.66025281  0.67364789  1
  Zn  Zn11  1  0.53137307  0.65941768  0.33350223  1
  N  N12  1  0.93308247  0.16800896  0.16329270  1
  N  N13  1  0.92653676  0.16595038  0.83468694  1
  N  N14  1  0.01662401  0.65012048  0.00388583  1
  N  N15  1  0.42577914  0.83600056  0.83515727  1
  N  N16  1  0.48343857  0.83181885  0.16082677  1
  N  N17  1  0.51305799  0.35513305  0.99912914  1
  N  N18  1  0.91254680  0.66082719  0.34508363  1
  N  N19  1  0.91606452  0.66621077  0.65857278  1
  N  N20  1  0.41584931  0.33429195  0.65727124  1
  N  N21  1  0.41145764  0.33343102  0.34316630  1
  N  N22  1  0.89217326  0.14811715  0.49975699  1
  N  N23  1  0.39246694  0.84992957  0.50035610  1
