# generated using pymatgen
data_TaZn2N3
_symmetry_space_group_name_H-M   'P 1'
_cell_length_a   5.56631053
_cell_length_b   5.84060658
_cell_length_c   9.92758780
_cell_angle_alpha   90.00096368
_cell_angle_beta   90.34628239
_cell_angle_gamma   90.01938361
_symmetry_Int_Tables_number   1
_chemical_formula_structural   TaZn2N3
_chemical_formula_sum   'Ta4 Zn8 N12'
_cell_volume   322.74621973
_cell_formula_units_Z   4
loop_
 _symmetry_equiv_pos_site_id
 _symmetry_equiv_pos_as_xyz
  1  'x, y, z'
loop_
 _atom_site_type_symbol
 _atom_site_label
 _atom_site_symmetry_multiplicity
 _atom_site_fract_x
 _atom_site_fract_y
 _atom_site_fract_z
 _atom_site_occupancy
  Ta  Ta0  1  0.90448770  0.32930027  0.99985293  1
  Ta  Ta1  1  0.40479359  0.66753021  0.00109902  1
  Ta  Ta2  1  0.02867345  0.83201457  0.49982806  1
  Ta  Ta3  1  0.52829812  0.16983877  0.49963700  1
  Zn  Zn4  1  0.93479127  0.83886166  0.83154869  1
  Zn  Zn5  1  0.89732560  0.84281443  0.16637449  1
  Zn  Zn6  1  0.40762269  0.15915194  0.83302169  1
  Zn  Zn7  1  0.39944795  0.15671085  0.16594189  1
  Zn  Zn8  1  0.03595443  0.34307143  0.66477180  1
  Zn  Zn9  1  0.03255483  0.34337951  0.33338971  1
  Zn  Zn10  1  0.53728352  0.65871465  0.66842965  1
  Zn  Zn11  1  0.53133963  0.65787613  0.33457271  1
  N  N12  1  0.01939570  0.16508739  0.15678534  1
  N  N13  1  0.01940150  0.16897385  0.84216693  1
  N  N14  1  0.03957291  0.64973118  0.00221614  1
  N  N15  1  0.50583699  0.83118782  0.84311844  1
  N  N16  1  0.51934604  0.83434264  0.15765970  1
  N  N17  1  0.54113515  0.34696299  0.00029470  1
  N  N18  1  0.91264238  0.66631519  0.34393323  1
  N  N19  1  0.91544880  0.66708653  0.65714476  1
  N  N20  1  0.41580081  0.33506271  0.65614486  1
  N  N21  1  0.41246264  0.33434259  0.34290679  1
  N  N22  1  0.89221395  0.15193546  0.49925418  1
  N  N23  1  0.39187091  0.84970733  0.49990727  1
