# generated using pymatgen
data_TaZn2N3
_symmetry_space_group_name_H-M   'P 1'
_cell_length_a   5.45696679
_cell_length_b   5.80398773
_cell_length_c   9.93340660
_cell_angle_alpha   89.99998850
_cell_angle_beta   90.00001635
_cell_angle_gamma   89.99999547
_symmetry_Int_Tables_number   1
_chemical_formula_structural   TaZn2N3
_chemical_formula_sum   'Ta4 Zn8 N12'
_cell_volume   314.61252590
_cell_formula_units_Z   4
loop_
 _symmetry_equiv_pos_site_id
 _symmetry_equiv_pos_as_xyz
  1  'x, y, z'
loop_
 _atom_site_type_symbol
 _atom_site_label
 _atom_site_symmetry_multiplicity
 _atom_site_fract_x
 _atom_site_fract_y
 _atom_site_fract_z
 _atom_site_occupancy
  Ta  Ta0  1  0.99723432  0.32940004  0.99999991  1
  Ta  Ta1  1  0.49723460  0.67059992  0.99999992  1
  Ta  Ta2  1  0.99723449  0.82940015  0.50000000  1
  Ta  Ta3  1  0.49723452  0.17059973  0.50000001  1
  Zn  Zn4  1  0.00752432  0.83839033  0.82743829  1
  Zn  Zn5  1  0.00752427  0.83839024  0.17256154  1
  Zn  Zn6  1  0.50752390  0.16161022  0.82743910  1
  Zn  Zn7  1  0.50752412  0.16160999  0.17256120  1
  Zn  Zn8  1  0.00752429  0.33839029  0.67256156  1
  Zn  Zn9  1  0.00752436  0.33839014  0.32743849  1
  Zn  Zn10  1  0.50752411  0.66160986  0.67256133  1
  Zn  Zn11  1  0.50752408  0.66161022  0.32743904  1
  N  N12  1  0.88368554  0.16908197  0.16009897  1
  N  N13  1  0.88368439  0.16908220  0.83990106  1
  N  N14  1  0.86557860  0.65365145  0.00000020  1
  N  N15  1  0.38368476  0.83091790  0.83990100  1
  N  N16  1  0.38368460  0.83091659  0.16009912  1
  N  N17  1  0.36557812  0.34634893  0.99999942  1
  N  N18  1  0.88368471  0.66908300  0.33990087  1
  N  N19  1  0.88368535  0.66908286  0.66009916  1
  N  N20  1  0.38368521  0.33091661  0.66009916  1
  N  N21  1  0.38368533  0.33091788  0.33990108  1
  N  N22  1  0.86557795  0.15365071  0.50000009  1
  N  N23  1  0.36557814  0.84634893  0.49999948  1
