# generated using pymatgen
data_TaZn2N3
_symmetry_space_group_name_H-M   'P 1'
_cell_length_a   5.52761981
_cell_length_b   5.86215326
_cell_length_c   9.99514467
_cell_angle_alpha   90.13855705
_cell_angle_beta   90.12551854
_cell_angle_gamma   89.99304676
_symmetry_Int_Tables_number   1
_chemical_formula_structural   TaZn2N3
_chemical_formula_sum   'Ta4 Zn8 N12'
_cell_volume   323.87848725
_cell_formula_units_Z   4
loop_
 _symmetry_equiv_pos_site_id
 _symmetry_equiv_pos_as_xyz
  1  'x, y, z'
loop_
 _atom_site_type_symbol
 _atom_site_label
 _atom_site_symmetry_multiplicity
 _atom_site_fract_x
 _atom_site_fract_y
 _atom_site_fract_z
 _atom_site_occupancy
  Ta  Ta0  1  0.87528496  0.33271368  0.00001923  1
  Ta  Ta1  1  0.37734798  0.67097952  0.00148814  1
  Ta  Ta2  1  0.02799312  0.82924259  0.49991476  1
  Ta  Ta3  1  0.52817248  0.16939866  0.49999622  1
  Zn  Zn4  1  0.03463501  0.84614198  0.81750523  1
  Zn  Zn5  1  0.98266668  0.83679523  0.17665639  1
  Zn  Zn6  1  0.53224612  0.15578973  0.81727516  1
  Zn  Zn7  1  0.52094363  0.16033212  0.18064398  1
  Zn  Zn8  1  0.04282304  0.33991953  0.67232184  1
  Zn  Zn9  1  0.03959045  0.33652480  0.32887177  1
  Zn  Zn10  1  0.54302270  0.66084490  0.67333903  1
  Zn  Zn11  1  0.53488082  0.66052310  0.33071662  1
  N  N12  1  0.92718988  0.16612524  0.16433554  1
  N  N13  1  0.92513078  0.16583389  0.83452514  1
  N  N14  1  0.01174726  0.64856903  0.00172218  1
  N  N15  1  0.42451854  0.83641279  0.83507179  1
  N  N16  1  0.44812035  0.83377581  0.16342811  1
  N  N17  1  0.51137245  0.35436104  0.99963178  1
  N  N18  1  0.91225673  0.66216242  0.34373402  1
  N  N19  1  0.91537000  0.66618666  0.65791809  1
  N  N20  1  0.41528767  0.33474698  0.65735700  1
  N  N21  1  0.41223604  0.33395945  0.34317624  1
  N  N22  1  0.89246251  0.14840726  0.49987023  1
  N  N23  1  0.39230842  0.85025370  0.50048150  1
