# generated using pymatgen
data_TaZn2N3
_symmetry_space_group_name_H-M   'P 1'
_cell_length_a   5.47210669
_cell_length_b   5.79676320
_cell_length_c   9.92762304
_cell_angle_alpha   90.00000945
_cell_angle_beta   89.99997673
_cell_angle_gamma   89.99999308
_symmetry_Int_Tables_number   1
_chemical_formula_structural   TaZn2N3
_chemical_formula_sum   'Ta4 Zn8 N12'
_cell_volume   314.90923289
_cell_formula_units_Z   4
loop_
 _symmetry_equiv_pos_site_id
 _symmetry_equiv_pos_as_xyz
  1  'x, y, z'
loop_
 _atom_site_type_symbol
 _atom_site_label
 _atom_site_symmetry_multiplicity
 _atom_site_fract_x
 _atom_site_fract_y
 _atom_site_fract_z
 _atom_site_occupancy
  Ta  Ta0  1  0.01755298  0.32953469  0.00000007  1
  Ta  Ta1  1  0.51755295  0.67046555  0.00000010  1
  Ta  Ta2  1  0.01755296  0.82953464  0.49999989  1
  Ta  Ta3  1  0.51755297  0.17046552  0.49999988  1
  Zn  Zn4  1  0.02803208  0.83825489  0.82751519  1
  Zn  Zn5  1  0.02803217  0.83825499  0.17248485  1
  Zn  Zn6  1  0.52803218  0.16174515  0.82751515  1
  Zn  Zn7  1  0.52803216  0.16174530  0.17248481  1
  Zn  Zn8  1  0.02803215  0.33825503  0.67248483  1
  Zn  Zn9  1  0.02803219  0.33825491  0.32751517  1
  Zn  Zn10  1  0.52803212  0.66174529  0.67248480  1
  Zn  Zn11  1  0.52803222  0.66174517  0.32751514  1
  N  N12  1  0.90345730  0.16917513  0.16007806  1
  N  N13  1  0.90345738  0.16917514  0.83992202  1
  N  N14  1  0.88514941  0.65374615  0.00000001  1
  N  N15  1  0.40345730  0.83082503  0.83992203  1
  N  N16  1  0.40345730  0.83082515  0.16007812  1
  N  N17  1  0.38514946  0.34625408  0.00000003  1
  N  N18  1  0.90345731  0.66917503  0.33992190  1
  N  N19  1  0.90345730  0.66917524  0.66007798  1
  N  N20  1  0.40345735  0.33082505  0.66007800  1
  N  N21  1  0.40345726  0.33082516  0.33992193  1
  N  N22  1  0.88514944  0.15374614  0.49999997  1
  N  N23  1  0.38514942  0.84625403  0.50000001  1
