# generated using pymatgen
data_TaZn2N3
_symmetry_space_group_name_H-M   'P 1'
_cell_length_a   5.53771396
_cell_length_b   5.86338158
_cell_length_c   9.97482396
_cell_angle_alpha   90.05937914
_cell_angle_beta   90.48809325
_cell_angle_gamma   89.97302490
_symmetry_Int_Tables_number   1
_chemical_formula_structural   TaZn2N3
_chemical_formula_sum   'Ta4 Zn8 N12'
_cell_volume   323.86788035
_cell_formula_units_Z   4
loop_
 _symmetry_equiv_pos_site_id
 _symmetry_equiv_pos_as_xyz
  1  'x, y, z'
loop_
 _atom_site_type_symbol
 _atom_site_label
 _atom_site_symmetry_multiplicity
 _atom_site_fract_x
 _atom_site_fract_y
 _atom_site_fract_z
 _atom_site_occupancy
  Ta  Ta0  1  0.88340277  0.33412747  0.00102875  1
  Ta  Ta1  1  0.38451420  0.67252053  0.00326805  1
  Ta  Ta2  1  0.02730522  0.82884776  0.50014180  1
  Ta  Ta3  1  0.52820467  0.16848670  0.49989214  1
  Zn  Zn4  1  0.03822976  0.84597150  0.81875333  1
  Zn  Zn5  1  0.89988485  0.83488006  0.16911844  1
  Zn  Zn6  1  0.53788153  0.15451482  0.81770260  1
  Zn  Zn7  1  0.48006932  0.16626963  0.17516638  1
  Zn  Zn8  1  0.04445031  0.33972397  0.67265116  1
  Zn  Zn9  1  0.03399340  0.33731520  0.32994071  1
  Zn  Zn10  1  0.54582652  0.65896502  0.67387514  1
  Zn  Zn11  1  0.52901393  0.65928989  0.33610083  1
  N  N12  1  0.95656062  0.16713093  0.16069566  1
  N  N13  1  0.92853571  0.16560398  0.83492648  1
  N  N14  1  0.02200913  0.65080477  0.00554023  1
  N  N15  1  0.42838555  0.83458014  0.83556597  1
  N  N16  1  0.50374980  0.83302360  0.15961638  1
  N  N17  1  0.51696890  0.35529395  0.00033259  1
  N  N18  1  0.91113688  0.66118999  0.34570145  1
  N  N19  1  0.91704383  0.66598132  0.65923350  1
  N  N20  1  0.41688446  0.33327446  0.65754253  1
  N  N21  1  0.40996952  0.33434931  0.34333600  1
  N  N22  1  0.89140397  0.14818579  0.49964301  1
  N  N23  1  0.39218276  0.84966931  0.50022685  1
