# generated using pymatgen
data_TaZn2N3
_symmetry_space_group_name_H-M   'P 1'
_cell_length_a   5.48071672
_cell_length_b   5.81750107
_cell_length_c   9.93624189
_cell_angle_alpha   89.99996269
_cell_angle_beta   89.99951086
_cell_angle_gamma   89.51426085
_symmetry_Int_Tables_number   1
_chemical_formula_structural   TaZn2N3
_chemical_formula_sum   'Ta4 Zn8 N12'
_cell_volume   316.79650083
_cell_formula_units_Z   4
loop_
 _symmetry_equiv_pos_site_id
 _symmetry_equiv_pos_as_xyz
  1  'x, y, z'
loop_
 _atom_site_type_symbol
 _atom_site_label
 _atom_site_symmetry_multiplicity
 _atom_site_fract_x
 _atom_site_fract_y
 _atom_site_fract_z
 _atom_site_occupancy
  Ta  Ta0  1  0.02794580  0.32496372  0.99999969  1
  Ta  Ta1  1  0.52530314  0.66845242  -0.00000036  1
  Ta  Ta2  1  0.02416268  0.83073712  0.49999987  1
  Ta  Ta3  1  0.52334431  0.17127330  0.49999993  1
  Zn  Zn4  1  0.03129114  0.83663971  0.82692092  1
  Zn  Zn5  1  0.03129103  0.83663981  0.17307879  1
  Zn  Zn6  1  0.53705214  0.16217199  0.82605483  1
  Zn  Zn7  1  0.53705165  0.16217208  0.17394490  1
  Zn  Zn8  1  0.03469655  0.33903362  0.67182731  1
  Zn  Zn9  1  0.03469670  0.33903364  0.32817250  1
  Zn  Zn10  1  0.53436093  0.66241534  0.67127921  1
  Zn  Zn11  1  0.53436122  0.66241528  0.32872043  1
  N  N12  1  0.91212557  0.16921786  0.16119999  1
  N  N13  1  0.91212571  0.16921794  0.83880033  1
  N  N14  1  0.89788465  0.64977167  0.00000013  1
  N  N15  1  0.41343112  0.83146378  0.84010615  1
  N  N16  1  0.41343059  0.83146433  0.15989459  1
  N  N17  1  0.39532262  0.34389426  0.00000012  1
  N  N18  1  0.91008830  0.66952357  0.34092807  1
  N  N19  1  0.91008837  0.66952352  0.65907218  1
  N  N20  1  0.41017943  0.33342770  0.65947225  1
  N  N21  1  0.41017937  0.33342765  0.34052801  1
  N  N22  1  0.89039444  0.15424923  0.50000009  1
  N  N23  1  0.39096528  0.84887062  0.50000005  1
