# generated using pymatgen
data_TaZn2N3
_symmetry_space_group_name_H-M   'P 1'
_cell_length_a   5.51255530
_cell_length_b   5.87152588
_cell_length_c   10.02090546
_cell_angle_alpha   90.00000754
_cell_angle_beta   89.99997904
_cell_angle_gamma   89.70582075
_symmetry_Int_Tables_number   1
_chemical_formula_structural   TaZn2N3
_chemical_formula_sum   'Ta4 Zn8 N12'
_cell_volume   324.34348505
_cell_formula_units_Z   4
loop_
 _symmetry_equiv_pos_site_id
 _symmetry_equiv_pos_as_xyz
  1  'x, y, z'
loop_
 _atom_site_type_symbol
 _atom_site_label
 _atom_site_symmetry_multiplicity
 _atom_site_fract_x
 _atom_site_fract_y
 _atom_site_fract_z
 _atom_site_occupancy
  Ta  Ta0  1  0.95393607  0.32503528  -0.00000004  1
  Ta  Ta1  1  0.37395363  0.67617223  -0.00000007  1
  Ta  Ta2  1  0.02983953  0.82881653  0.50000004  1
  Ta  Ta3  1  0.52838317  0.16837558  0.50000004  1
  Zn  Zn4  1  0.02938031  0.84362026  0.81462579  1
  Zn  Zn5  1  0.02938039  0.84361993  0.18537418  1
  Zn  Zn6  1  0.52528363  0.16295986  0.82621736  1
  Zn  Zn7  1  0.52528346  0.16295992  0.17378253  1
  Zn  Zn8  1  0.04229304  0.33788303  0.66905164  1
  Zn  Zn9  1  0.04229311  0.33788265  0.33094851  1
  Zn  Zn10  1  0.54043358  0.65902029  0.67179138  1
  Zn  Zn11  1  0.54043374  0.65902035  0.32820861  1
  N  N12  1  0.92126021  0.16587032  0.16656916  1
  N  N13  1  0.92126009  0.16587058  0.83343076  1
  N  N14  1  0.00450776  0.66022752  0.99999994  1
  N  N15  1  0.42601681  0.83601569  0.83232720  1
  N  N16  1  0.42601681  0.83601565  0.16767274  1
  N  N17  1  0.43101340  0.34011033  0.99999996  1
  N  N18  1  0.91508892  0.66418356  0.34339546  1
  N  N19  1  0.91508878  0.66418370  0.65660462  1
  N  N20  1  0.41621304  0.33214189  0.65767940  1
  N  N21  1  0.41621316  0.33214186  0.34232067  1
  N  N22  1  0.89421853  0.14858520  0.50000005  1
  N  N23  1  0.39398158  0.84928796  0.50000004  1
