# generated using pymatgen
data_TaZn2N3
_symmetry_space_group_name_H-M   'P 1'
_cell_length_a   5.50424471
_cell_length_b   5.86003298
_cell_length_c   10.01148514
_cell_angle_alpha   89.99996036
_cell_angle_beta   90.00076439
_cell_angle_gamma   89.54671940
_symmetry_Int_Tables_number   1
_chemical_formula_structural   TaZn2N3
_chemical_formula_sum   'Ta4 Zn8 N12'
_cell_volume   322.91090413
_cell_formula_units_Z   4
loop_
 _symmetry_equiv_pos_site_id
 _symmetry_equiv_pos_as_xyz
  1  'x, y, z'
loop_
 _atom_site_type_symbol
 _atom_site_label
 _atom_site_symmetry_multiplicity
 _atom_site_fract_x
 _atom_site_fract_y
 _atom_site_fract_z
 _atom_site_occupancy
  Ta  Ta0  1  0.02487354  0.30809429  0.00000015  1
  Ta  Ta1  1  0.38072698  0.67961869  0.00000039  1
  Ta  Ta2  1  0.02842553  0.82987893  0.50000003  1
  Ta  Ta3  1  0.52619969  0.16997545  0.50000040  1
  Zn  Zn4  1  0.02411223  0.84440935  0.81608609  1
  Zn  Zn5  1  0.02411263  0.84440824  0.18391332  1
  Zn  Zn6  1  0.53599346  0.16428735  0.82542447  1
  Zn  Zn7  1  0.53599475  0.16428780  0.17457653  1
  Zn  Zn8  1  0.03935251  0.33761980  0.67029149  1
  Zn  Zn9  1  0.03935188  0.33761942  0.32970857  1
  Zn  Zn10  1  0.53818084  0.65979331  0.67115832  1
  Zn  Zn11  1  0.53818050  0.65979323  0.32884253  1
  N  N12  1  0.90993645  0.16978785  0.16540267  1
  N  N13  1  0.90993635  0.16978837  0.83459650  1
  N  N14  1  0.00714253  0.65021413  0.99999953  1
  N  N15  1  0.42346410  0.83911250  0.83245982  1
  N  N16  1  0.42346398  0.83911362  0.16754094  1
  N  N17  1  0.39207134  0.33314333  0.00000025  1
  N  N18  1  0.91330418  0.66619737  0.34295875  1
  N  N19  1  0.91330398  0.66619761  0.65704012  1
  N  N20  1  0.41389069  0.33329294  0.65806173  1
  N  N21  1  0.41389047  0.33329308  0.34193784  1
  N  N22  1  0.89273827  0.15023330  0.49999967  1
  N  N23  1  0.39312588  0.84984019  0.49999988  1
