# generated using pymatgen
data_TaZn2N3
_symmetry_space_group_name_H-M   'P 1'
_cell_length_a   5.49928364
_cell_length_b   5.85232741
_cell_length_c   9.98094683
_cell_angle_alpha   90.00001649
_cell_angle_beta   90.00016404
_cell_angle_gamma   89.44557232
_symmetry_Int_Tables_number   1
_chemical_formula_structural   TaZn2N3
_chemical_formula_sum   'Ta4 Zn8 N12'
_cell_volume   321.20784536
_cell_formula_units_Z   4
loop_
 _symmetry_equiv_pos_site_id
 _symmetry_equiv_pos_as_xyz
  1  'x, y, z'
loop_
 _atom_site_type_symbol
 _atom_site_label
 _atom_site_symmetry_multiplicity
 _atom_site_fract_x
 _atom_site_fract_y
 _atom_site_fract_z
 _atom_site_occupancy
  Ta  Ta0  1  0.03336902  0.30737737  0.00000011  1
  Ta  Ta1  1  0.40453240  0.67429901  0.00000003  1
  Ta  Ta2  1  0.02464434  0.83178960  0.49999999  1
  Ta  Ta3  1  0.52287021  0.17174364  0.50000000  1
  Zn  Zn4  1  0.01980052  0.83921574  0.82262203  1
  Zn  Zn5  1  0.01980053  0.83921579  0.17737801  1
  Zn  Zn6  1  0.53958949  0.16451457  0.82453305  1
  Zn  Zn7  1  0.53958965  0.16451474  0.17546706  1
  Zn  Zn8  1  0.03531454  0.33931605  0.67117042  1
  Zn  Zn9  1  0.03531446  0.33931599  0.32882968  1
  Zn  Zn10  1  0.53469795  0.66157532  0.66977879  1
  Zn  Zn11  1  0.53469785  0.66157522  0.33022122  1
  N  N12  1  0.91156548  0.16916571  0.16441651  1
  N  N13  1  0.91156567  0.16916588  0.83558351  1
  N  N14  1  0.00106447  0.64759983  1.00000000  1
  N  N15  1  0.42544824  0.83919612  0.83390429  1
  N  N16  1  0.42544824  0.83919657  0.16609603  1
  N  N17  1  0.40058162  0.32878361  0.00000008  1
  N  N18  1  0.91065536  0.66920272  0.34186195  1
  N  N19  1  0.91065551  0.66920285  0.65813769  1
  N  N20  1  0.41066662  0.33494805  0.65853738  1
  N  N21  1  0.41066652  0.33494822  0.34146238  1
  N  N22  1  0.88946422  0.15311786  0.49999990  1
  N  N23  1  0.38976984  0.85101968  0.49999988  1
