# generated using pymatgen
data_TaZn2N3
_symmetry_space_group_name_H-M   'P 1'
_cell_length_a   5.53434849
_cell_length_b   5.86514748
_cell_length_c   9.98526831
_cell_angle_alpha   90.15697921
_cell_angle_beta   90.31089145
_cell_angle_gamma   90.00415269
_symmetry_Int_Tables_number   1
_chemical_formula_structural   TaZn2N3
_chemical_formula_sum   'Ta4 Zn8 N12'
_cell_volume   324.11352440
_cell_formula_units_Z   4
loop_
 _symmetry_equiv_pos_site_id
 _symmetry_equiv_pos_as_xyz
  1  'x, y, z'
loop_
 _atom_site_type_symbol
 _atom_site_label
 _atom_site_symmetry_multiplicity
 _atom_site_fract_x
 _atom_site_fract_y
 _atom_site_fract_z
 _atom_site_occupancy
  Ta  Ta0  1  0.87932250  0.33473141  0.00016433  1
  Ta  Ta1  1  0.38261102  0.67286528  0.00280339  1
  Ta  Ta2  1  0.02766088  0.82887456  0.50018677  1
  Ta  Ta3  1  0.52842597  0.16862747  0.49997553  1
  Zn  Zn4  1  0.03699566  0.84624701  0.81835119  1
  Zn  Zn5  1  0.91447935  0.83309033  0.17093762  1
  Zn  Zn6  1  0.53462557  0.15534200  0.81744235  1
  Zn  Zn7  1  0.50993183  0.16547117  0.17856578  1
  Zn  Zn8  1  0.04351000  0.33992313  0.67244345  1
  Zn  Zn9  1  0.03778020  0.33645048  0.32917036  1
  Zn  Zn10  1  0.54462833  0.65987005  0.67374449  1
  Zn  Zn11  1  0.53019254  0.65905704  0.33476206  1
  N  N12  1  0.93621367  0.16830160  0.16274754  1
  N  N13  1  0.92717880  0.16583905  0.83478282  1
  N  N14  1  0.01879014  0.65058999  0.00464776  1
  N  N15  1  0.42653805  0.83562891  0.83529982  1
  N  N16  1  0.49468653  0.83158835  0.16021130  1
  N  N17  1  0.51383920  0.35565535  0.99896845  1
  N  N18  1  0.91242524  0.66064145  0.34550127  1
  N  N19  1  0.91634245  0.66611476  0.65887652  1
  N  N20  1  0.41609298  0.33399491  0.65726203  1
  N  N21  1  0.41096899  0.33329723  0.34308943  1
  N  N22  1  0.89190371  0.14805126  0.49973123  1
  N  N23  1  0.39246400  0.84974732  0.50033450  1
