# generated using pymatgen
data_TaZn2N3
_symmetry_space_group_name_H-M   'P 1'
_cell_length_a   5.48749017
_cell_length_b   5.83807040
_cell_length_c   9.96021910
_cell_angle_alpha   89.99995076
_cell_angle_beta   89.99991848
_cell_angle_gamma   89.46333124
_symmetry_Int_Tables_number   1
_chemical_formula_structural   TaZn2N3
_chemical_formula_sum   'Ta4 Zn8 N12'
_cell_volume   319.07510757
_cell_formula_units_Z   4
loop_
 _symmetry_equiv_pos_site_id
 _symmetry_equiv_pos_as_xyz
  1  'x, y, z'
loop_
 _atom_site_type_symbol
 _atom_site_label
 _atom_site_symmetry_multiplicity
 _atom_site_fract_x
 _atom_site_fract_y
 _atom_site_fract_z
 _atom_site_occupancy
  Ta  Ta0  1  0.02910458  0.31833035  -0.00000033  1
  Ta  Ta1  1  0.49409632  0.66886316  -0.00000045  1
  Ta  Ta2  1  0.02406070  0.83141950  0.50000015  1
  Ta  Ta3  1  0.52307544  0.17156789  0.50000029  1
  Zn  Zn4  1  0.02359466  0.83729246  0.82564524  1
  Zn  Zn5  1  0.02359482  0.83729272  0.17435496  1
  Zn  Zn6  1  0.53887056  0.16421677  0.82486985  1
  Zn  Zn7  1  0.53887051  0.16421661  0.17513038  1
  Zn  Zn8  1  0.03464241  0.33938028  0.67157185  1
  Zn  Zn9  1  0.03464244  0.33938037  0.32842799  1
  Zn  Zn10  1  0.53455766  0.66162019  0.66989898  1
  Zn  Zn11  1  0.53455772  0.66162005  0.33010064  1
  N  N12  1  0.91139663  0.16931893  0.16319309  1
  N  N13  1  0.91139695  0.16931934  0.83680747  1
  N  N14  1  0.93263714  0.64886240  0.00000022  1
  N  N15  1  0.41739613  0.83548113  0.83750712  1
  N  N16  1  0.41739556  0.83548188  0.16249355  1
  N  N17  1  0.39718822  0.33477883  0.00000020  1
  N  N18  1  0.91000872  0.66943477  0.34176327  1
  N  N19  1  0.91000900  0.66943520  0.65823633  1
  N  N20  1  0.41026643  0.33443526  0.65886357  1
  N  N21  1  0.41026609  0.33443574  0.34113595  1
  N  N22  1  0.88963366  0.15370784  0.49999984  1
  N  N23  1  0.39051039  0.85010851  0.49999983  1
