# generated using pymatgen
data_TaZn2N3
_symmetry_space_group_name_H-M   'P 1'
_cell_length_a   5.48917405
_cell_length_b   5.84079554
_cell_length_c   9.96365354
_cell_angle_alpha   89.99996976
_cell_angle_beta   89.99994652
_cell_angle_gamma   89.46174572
_symmetry_Int_Tables_number   1
_chemical_formula_structural   TaZn2N3
_chemical_formula_sum   'Ta4 Zn8 N12'
_cell_volume   319.43202830
_cell_formula_units_Z   4
loop_
 _symmetry_equiv_pos_site_id
 _symmetry_equiv_pos_as_xyz
  1  'x, y, z'
loop_
 _atom_site_type_symbol
 _atom_site_label
 _atom_site_symmetry_multiplicity
 _atom_site_fract_x
 _atom_site_fract_y
 _atom_site_fract_z
 _atom_site_occupancy
  Ta  Ta0  1  0.02962286  0.31709027  0.00000022  1
  Ta  Ta1  1  0.48299563  0.66926609  0.00000038  1
  Ta  Ta2  1  0.02409476  0.83149586  0.49999969  1
  Ta  Ta3  1  0.52305391  0.17160969  0.49999974  1
  Zn  Zn4  1  0.02275961  0.83750832  0.82538694  1
  Zn  Zn5  1  0.02275981  0.83750855  0.17461322  1
  Zn  Zn6  1  0.53906669  0.16439733  0.82479286  1
  Zn  Zn7  1  0.53906667  0.16439718  0.17520739  1
  Zn  Zn8  1  0.03467106  0.33937748  0.67154948  1
  Zn  Zn9  1  0.03467109  0.33937756  0.32845035  1
  Zn  Zn10  1  0.53458378  0.66154153  0.66977692  1
  Zn  Zn11  1  0.53458382  0.66154143  0.33022275  1
  N  N12  1  0.91134835  0.16930487  0.16343281  1
  N  N13  1  0.91134843  0.16930490  0.83656734  1
  N  N14  1  0.94209458  0.64875247  0.00000013  1
  N  N15  1  0.41834190  0.83632999  0.83684984  1
  N  N16  1  0.41834180  0.83633013  0.16315017  1
  N  N17  1  0.39765789  0.33302282  0.00000011  1
  N  N18  1  0.91004124  0.66945350  0.34179980  1
  N  N19  1  0.91004130  0.66945356  0.65820017  1
  N  N20  1  0.41031149  0.33453703  0.65880257  1
  N  N21  1  0.41031143  0.33453711  0.34119735  1
  N  N22  1  0.88958163  0.15362071  0.49999991  1
  N  N23  1  0.39042302  0.85024179  0.49999988  1
