# generated using pymatgen
data_TaZn2N3
_symmetry_space_group_name_H-M   'P 1'
_cell_length_a   5.45864900
_cell_length_b   5.80233704
_cell_length_c   9.93438169
_cell_angle_alpha   90.00001057
_cell_angle_beta   90.00001392
_cell_angle_gamma   89.99999920
_symmetry_Int_Tables_number   1
_chemical_formula_structural   TaZn2N3
_chemical_formula_sum   'Ta4 Zn8 N12'
_cell_volume   314.65088957
_cell_formula_units_Z   4
loop_
 _symmetry_equiv_pos_site_id
 _symmetry_equiv_pos_as_xyz
  1  'x, y, z'
loop_
 _atom_site_type_symbol
 _atom_site_label
 _atom_site_symmetry_multiplicity
 _atom_site_fract_x
 _atom_site_fract_y
 _atom_site_fract_z
 _atom_site_occupancy
  Ta  Ta0  1  0.99948028  0.32935633  1.00000000  1
  Ta  Ta1  1  0.49948029  0.67064369  1.00000000  1
  Ta  Ta2  1  0.99948029  0.82935632  0.50000001  1
  Ta  Ta3  1  0.49948028  0.17064369  0.50000001  1
  Zn  Zn4  1  0.00980715  0.83826102  0.82743498  1
  Zn  Zn5  1  0.00980710  0.83826114  0.17256505  1
  Zn  Zn6  1  0.50980715  0.16173885  0.82743495  1
  Zn  Zn7  1  0.50980706  0.16173901  0.17256502  1
  Zn  Zn8  1  0.00980707  0.33826117  0.67256506  1
  Zn  Zn9  1  0.00980717  0.33826101  0.32743500  1
  Zn  Zn10  1  0.50980706  0.66173898  0.67256502  1
  Zn  Zn11  1  0.50980719  0.66173892  0.32743496  1
  N  N12  1  0.88588324  0.16903974  0.16008796  1
  N  N13  1  0.88588322  0.16903965  0.83991192  1
  N  N14  1  0.86774833  0.65365691  0.99999996  1
  N  N15  1  0.38588324  0.83096034  0.83991195  1
  N  N16  1  0.38588329  0.83096030  0.16008798  1
  N  N17  1  0.36774834  0.34634309  0.99999996  1
  N  N18  1  0.88588333  0.66903969  0.33991200  1
  N  N19  1  0.88588316  0.66903967  0.66008802  1
  N  N20  1  0.38588318  0.33096040  0.66008807  1
  N  N21  1  0.38588328  0.33096028  0.33991204  1
  N  N22  1  0.86774835  0.15365696  0.50000003  1
  N  N23  1  0.36774833  0.84634309  0.50000004  1
