# generated using pymatgen
data_TaZn2N3
_symmetry_space_group_name_H-M   'P 1'
_cell_length_a   5.52930194
_cell_length_b   5.86356788
_cell_length_c   9.99299045
_cell_angle_alpha   90.15611320
_cell_angle_beta   90.16069026
_cell_angle_gamma   89.99684319
_symmetry_Int_Tables_number   1
_chemical_formula_structural   TaZn2N3
_chemical_formula_sum   'Ta4 Zn8 N12'
_cell_volume   323.98463601
_cell_formula_units_Z   4
loop_
 _symmetry_equiv_pos_site_id
 _symmetry_equiv_pos_as_xyz
  1  'x, y, z'
loop_
 _atom_site_type_symbol
 _atom_site_label
 _atom_site_symmetry_multiplicity
 _atom_site_fract_x
 _atom_site_fract_y
 _atom_site_fract_z
 _atom_site_occupancy
  Ta  Ta0  1  0.87606363  0.33323023  0.00000828  1
  Ta  Ta1  1  0.37879720  0.67148214  0.00182933  1
  Ta  Ta2  1  0.02802028  0.82919456  0.50001530  1
  Ta  Ta3  1  0.52827601  0.16922356  0.50000240  1
  Zn  Zn4  1  0.03530646  0.84626860  0.81771346  1
  Zn  Zn5  1  0.96562439  0.83557568  0.17528703  1
  Zn  Zn6  1  0.53259535  0.15572774  0.81734534  1
  Zn  Zn7  1  0.51879935  0.16153542  0.18022805  1
  Zn  Zn8  1  0.04303678  0.33999961  0.67236423  1
  Zn  Zn9  1  0.03943629  0.33636371  0.32902637  1
  Zn  Zn10  1  0.54334898  0.66068571  0.67347625  1
  Zn  Zn11  1  0.53365314  0.66017716  0.33154290  1
  N  N12  1  0.92902585  0.16684565  0.16403039  1
  N  N13  1  0.92560666  0.16594831  0.83456344  1
  N  N14  1  0.01311490  0.64913843  0.00245234  1
  N  N15  1  0.42486319  0.83637669  0.83506082  1
  N  N16  1  0.45976759  0.83302376  0.16246307  1
  N  N17  1  0.51194040  0.35450015  0.99948043  1
  N  N18  1  0.91236676  0.66158872  0.34418947  1
  N  N19  1  0.91562947  0.66623731  0.65811600  1
  N  N20  1  0.41550203  0.33463644  0.65732045  1
  N  N21  1  0.41203627  0.33379216  0.34320909  1
  N  N22  1  0.89243371  0.14827860  0.49982672  1
  N  N23  1  0.39236292  0.85016975  0.50044882  1
