# generated using pymatgen
data_TaZn2N3
_symmetry_space_group_name_H-M   'P 1'
_cell_length_a   5.57303945
_cell_length_b   5.82732131
_cell_length_c   9.92276806
_cell_angle_alpha   90.00000954
_cell_angle_beta   89.99999382
_cell_angle_gamma   89.99996243
_symmetry_Int_Tables_number   1
_chemical_formula_structural   TaZn2N3
_chemical_formula_sum   'Ta4 Zn8 N12'
_cell_volume   322.25073902
_cell_formula_units_Z   4
loop_
 _symmetry_equiv_pos_site_id
 _symmetry_equiv_pos_as_xyz
  1  'x, y, z'
loop_
 _atom_site_type_symbol
 _atom_site_label
 _atom_site_symmetry_multiplicity
 _atom_site_fract_x
 _atom_site_fract_y
 _atom_site_fract_z
 _atom_site_occupancy
  Ta  Ta0  1  0.91832379  0.33141359  0.00000003  1
  Ta  Ta1  1  0.41832374  0.66858676  1.00000000  1
  Ta  Ta2  1  0.03950963  0.83141373  0.50000000  1
  Ta  Ta3  1  0.53950956  0.16858650  0.49999997  1
  Zn  Zn4  1  0.91253341  0.84333395  0.83413480  1
  Zn  Zn5  1  0.91253343  0.84333378  0.16586519  1
  Zn  Zn6  1  0.41253350  0.15666650  0.83413482  1
  Zn  Zn7  1  0.41253341  0.15666651  0.16586515  1
  Zn  Zn8  1  0.04530230  0.34333405  0.66586541  1
  Zn  Zn9  1  0.04530232  0.34333406  0.33413460  1
  Zn  Zn10  1  0.54530238  0.65666608  0.66586542  1
  Zn  Zn11  1  0.54530231  0.65666625  0.33413458  1
  N  N12  1  0.03299595  0.16689411  0.15679985  1
  N  N13  1  0.03299600  0.16689420  0.84320013  1
  N  N14  1  0.05494302  0.65196845  0.99999999  1
  N  N15  1  0.53299600  0.83310605  0.84320016  1
  N  N16  1  0.53299600  0.83310606  0.15679983  1
  N  N17  1  0.55494308  0.34803187  -0.00000000  1
  N  N18  1  0.92483783  0.66689409  0.34320005  1
  N  N19  1  0.92483787  0.66689409  0.65679994  1
  N  N20  1  0.42483786  0.33310621  0.65679995  1
  N  N21  1  0.42483789  0.33310628  0.34320006  1
  N  N22  1  0.90289012  0.15196867  0.50000000  1
  N  N23  1  0.40289016  0.84803165  0.50000001  1
