# generated using pymatgen
data_TaZn2N3
_symmetry_space_group_name_H-M   'P 1'
_cell_length_a   5.53098410
_cell_length_b   5.86452206
_cell_length_c   9.99092598
_cell_angle_alpha   90.16770527
_cell_angle_beta   90.19880946
_cell_angle_gamma   90.00095162
_symmetry_Int_Tables_number   1
_chemical_formula_structural   TaZn2N3
_chemical_formula_sum   'Ta4 Zn8 N12'
_cell_volume   324.06811279
_cell_formula_units_Z   4
loop_
 _symmetry_equiv_pos_site_id
 _symmetry_equiv_pos_as_xyz
  1  'x, y, z'
loop_
 _atom_site_type_symbol
 _atom_site_label
 _atom_site_symmetry_multiplicity
 _atom_site_fract_x
 _atom_site_fract_y
 _atom_site_fract_z
 _atom_site_occupancy
  Ta  Ta0  1  0.87692332  0.33373930  0.00002176  1
  Ta  Ta1  1  0.38014304  0.67194745  0.00213540  1
  Ta  Ta2  1  0.02798415  0.82912573  0.50009403  1
  Ta  Ta3  1  0.52836358  0.16904844  0.50000724  1
  Zn  Zn4  1  0.03587576  0.84633214  0.81791418  1
  Zn  Zn5  1  0.94850244  0.83457658  0.17395329  1
  Zn  Zn6  1  0.53301490  0.15565853  0.81739851  1
  Zn  Zn7  1  0.51665130  0.16272519  0.17982302  1
  Zn  Zn8  1  0.04319223  0.34003887  0.67239762  1
  Zn  Zn9  1  0.03916605  0.33629354  0.32912110  1
  Zn  Zn10  1  0.54368657  0.66050346  0.67357205  1
  Zn  Zn11  1  0.53249235  0.65980357  0.33244599  1
  N  N12  1  0.93090726  0.16748417  0.16369603  1
  N  N13  1  0.92605751  0.16599270  0.83461588  1
  N  N14  1  0.01473928  0.64964962  0.00317070  1
  N  N15  1  0.42525980  0.83624936  0.83507998  1
  N  N16  1  0.47159480  0.83234640  0.16158197  1
  N  N17  1  0.51248239  0.35474123  0.99931254  1
  N  N18  1  0.91247861  0.66113899  0.34464229  1
  N  N19  1  0.91585272  0.66625049  0.65832956  1
  N  N20  1  0.41568057  0.33449457  0.65729119  1
  N  N21  1  0.41179266  0.33360913  0.34320652  1
  N  N22  1  0.89234544  0.14818428  0.49978913  1
  N  N23  1  0.39242089  0.85006638  0.50040000  1
