# generated using pymatgen
data_TaZn2N3
_symmetry_space_group_name_H-M   'P 1'
_cell_length_a   5.51759987
_cell_length_b   5.86719499
_cell_length_c   10.01703952
_cell_angle_alpha   90.00001196
_cell_angle_beta   89.99999032
_cell_angle_gamma   89.71061001
_symmetry_Int_Tables_number   1
_chemical_formula_structural   TaZn2N3
_chemical_formula_sum   'Ta4 Zn8 N12'
_cell_volume   324.27582415
_cell_formula_units_Z   4
loop_
 _symmetry_equiv_pos_site_id
 _symmetry_equiv_pos_as_xyz
  1  'x, y, z'
loop_
 _atom_site_type_symbol
 _atom_site_label
 _atom_site_symmetry_multiplicity
 _atom_site_fract_x
 _atom_site_fract_y
 _atom_site_fract_z
 _atom_site_occupancy
  Ta  Ta0  1  0.90653935  0.33057741  -0.00000009  1
  Ta  Ta1  1  0.37461785  0.67327853  -0.00000006  1
  Ta  Ta2  1  0.02984200  0.82869524  0.50000003  1
  Ta  Ta3  1  0.52871423  0.16828721  0.50000003  1
  Zn  Zn4  1  0.03022883  0.84384225  0.81483313  1
  Zn  Zn5  1  0.03022912  0.84384204  0.18516692  1
  Zn  Zn6  1  0.52402975  0.16194956  0.82515681  1
  Zn  Zn7  1  0.52402974  0.16194951  0.17484317  1
  Zn  Zn8  1  0.04261544  0.33781267  0.66935867  1
  Zn  Zn9  1  0.04261562  0.33781236  0.33064139  1
  Zn  Zn10  1  0.54071745  0.65911159  0.67185054  1
  Zn  Zn11  1  0.54071770  0.65911155  0.32814936  1
  N  N12  1  0.92519076  0.16578416  0.16588299  1
  N  N13  1  0.92519069  0.16578461  0.83411711  1
  N  N14  1  0.00694727  0.65695776  0.00000001  1
  N  N15  1  0.42604601  0.83576250  0.83298815  1
  N  N16  1  0.42604604  0.83576255  0.16701189  1
  N  N17  1  0.46672892  0.34321802  0.00000004  1
  N  N18  1  0.91501647  0.66411484  0.34334980  1
  N  N19  1  0.91501636  0.66411509  0.65665014  1
  N  N20  1  0.41627544  0.33223373  0.65766357  1
  N  N21  1  0.41627552  0.33223378  0.34233644  1
  N  N22  1  0.89416342  0.14851653  0.49999997  1
  N  N23  1  0.39397877  0.84924667  0.49999997  1
