# generated using pymatgen
data_TaZn2N3
_symmetry_space_group_name_H-M   'P 1'
_cell_length_a   5.51927979
_cell_length_b   5.86441952
_cell_length_c   10.01441922
_cell_angle_alpha   90.00001197
_cell_angle_beta   89.99997134
_cell_angle_gamma   89.71546871
_symmetry_Int_Tables_number   1
_chemical_formula_structural   TaZn2N3
_chemical_formula_sum   'Ta4 Zn8 N12'
_cell_volume   324.13643715
_cell_formula_units_Z   4
loop_
 _symmetry_equiv_pos_site_id
 _symmetry_equiv_pos_as_xyz
  1  'x, y, z'
loop_
 _atom_site_type_symbol
 _atom_site_label
 _atom_site_symmetry_multiplicity
 _atom_site_fract_x
 _atom_site_fract_y
 _atom_site_fract_z
 _atom_site_occupancy
  Ta  Ta0  1  0.89190053  0.33211538  0.99999996  1
  Ta  Ta1  1  0.37425431  0.67219767  0.99999990  1
  Ta  Ta2  1  0.02982432  0.82867262  0.50000005  1
  Ta  Ta3  1  0.52884664  0.16828575  0.50000006  1
  Zn  Zn4  1  0.03038498  0.84410778  0.81503189  1
  Zn  Zn5  1  0.03038535  0.84410756  0.18496823  1
  Zn  Zn6  1  0.52379422  0.16121965  0.82437364  1
  Zn  Zn7  1  0.52379448  0.16121954  0.17562642  1
  Zn  Zn8  1  0.04262866  0.33773924  0.66963686  1
  Zn  Zn9  1  0.04262885  0.33773911  0.33036302  1
  Zn  Zn10  1  0.54087302  0.65917188  0.67186172  1
  Zn  Zn11  1  0.54087336  0.65917170  0.32813811  1
  N  N12  1  0.92585956  0.16616378  0.16538887  1
  N  N13  1  0.92585955  0.16616394  0.83461100  1
  N  N14  1  0.00746624  0.65488190  0.00000004  1
  N  N15  1  0.42586858  0.83561029  0.83338337  1
  N  N16  1  0.42586860  0.83561022  0.16661661  1
  N  N17  1  0.48021215  0.34507921  0.00000007  1
  N  N18  1  0.91494896  0.66417564  0.34330529  1
  N  N19  1  0.91494882  0.66417586  0.65669480  1
  N  N20  1  0.41620456  0.33233069  0.65765943  1
  N  N21  1  0.41620469  0.33233070  0.34234067  1
  N  N22  1  0.89412448  0.14852075  0.49999998  1
  N  N23  1  0.39401785  0.84920930  0.49999997  1
