# generated using pymatgen
data_TaZn2N3
_symmetry_space_group_name_H-M   'P 1'
_cell_length_a   5.56967502
_cell_length_b   5.82869703
_cell_length_c   9.92420478
_cell_angle_alpha   90.00000863
_cell_angle_beta   90.00007630
_cell_angle_gamma   89.99995134
_symmetry_Int_Tables_number   1
_chemical_formula_structural   TaZn2N3
_chemical_formula_sum   'Ta4 Zn8 N12'
_cell_volume   322.17887054
_cell_formula_units_Z   4
loop_
 _symmetry_equiv_pos_site_id
 _symmetry_equiv_pos_as_xyz
  1  'x, y, z'
loop_
 _atom_site_type_symbol
 _atom_site_label
 _atom_site_symmetry_multiplicity
 _atom_site_fract_x
 _atom_site_fract_y
 _atom_site_fract_z
 _atom_site_occupancy
  Ta  Ta0  1  0.90894759  0.33136585  0.99999989  1
  Ta  Ta1  1  0.40894751  0.66863491  0.00000000  1
  Ta  Ta2  1  0.03007551  0.83136552  0.50000000  1
  Ta  Ta3  1  0.53007544  0.16863537  0.49999993  1
  Zn  Zn4  1  0.90324932  0.84331163  0.83410321  1
  Zn  Zn5  1  0.90324950  0.84331063  0.16589697  1
  Zn  Zn6  1  0.40324988  0.15668936  0.83410304  1
  Zn  Zn7  1  0.40324957  0.15668989  0.16589689  1
  Zn  Zn8  1  0.03577549  0.34331125  0.66589581  1
  Zn  Zn9  1  0.03577437  0.34331067  0.33410384  1
  Zn  Zn10  1  0.53577554  0.65668963  0.66589602  1
  Zn  Zn11  1  0.53577440  0.65669016  0.33410414  1
  N  N12  1  0.02350207  0.16687057  0.15681178  1
  N  N13  1  0.02350249  0.16687133  0.84318788  1
  N  N14  1  0.04541266  0.65194998  0.00000007  1
  N  N15  1  0.52350285  0.83312950  0.84318817  1
  N  N16  1  0.52350202  0.83312979  0.15681198  1
  N  N17  1  0.54541267  0.34805068  0.00000009  1
  N  N18  1  0.91551874  0.66687001  0.34318864  1
  N  N19  1  0.91551965  0.66687061  0.65681159  1
  N  N20  1  0.41551965  0.33313049  0.65681156  1
  N  N21  1  0.41551868  0.33313085  0.34318853  1
  N  N22  1  0.89361038  0.15194984  0.49999986  1
  N  N23  1  0.39361044  0.84805118  0.50000004  1
