# generated using pymatgen
data_ScAl17N18
_symmetry_space_group_name_H-M   'P 1'
_cell_length_a   9.69915640
_cell_length_b   9.69915709
_cell_length_c   9.41179737
_cell_angle_alpha   90.01732825
_cell_angle_beta   90.01732825
_cell_angle_gamma   60.02096947
_symmetry_Int_Tables_number   1
_chemical_formula_structural   ScAl17N18
_chemical_formula_sum   'Sc2 Al34 N36'
_cell_volume   766.94259459
_cell_formula_units_Z   2
loop_
 _symmetry_equiv_pos_site_id
 _symmetry_equiv_pos_as_xyz
  1  'x, y, z'
loop_
 _atom_site_type_symbol
 _atom_site_label
 _atom_site_symmetry_multiplicity
 _atom_site_fract_x
 _atom_site_fract_y
 _atom_site_fract_z
 _atom_site_occupancy
  Sc  Sc0  1  0.10743561  0.09077000  0.35230586  1
  Sc  Sc1  1  0.22347895  0.20681498  0.09348073  1
  Al  Al2  1  0.77735940  0.09222477  0.83163910  1
  Al  Al3  1  0.87907889  0.21045789  0.58686118  1
  Al  Al4  1  0.45374236  0.09173415  0.33365849  1
  Al  Al5  1  0.55917043  0.20537273  0.07886018  1
  Al  Al6  1  0.11064800  0.09398162  0.82692759  1
  Al  Al7  1  0.22555807  0.20889126  0.58489877  1
  Al  Al8  1  0.77302528  0.09677225  0.32900696  1
  Al  Al9  1  0.88592326  0.20493448  0.07610469  1
  Al  Al10  1  0.44706683  0.09304411  0.82814043  1
  Al  Al11  1  0.55682568  0.20569233  0.58154222  1
  Al  Al12  1  0.10840048  0.43707590  0.33365779  1
  Al  Al13  1  0.22203887  0.54250352  0.07886024  1
  Al  Al14  1  0.77581645  0.43027586  0.83228329  1
  Al  Al15  1  0.88693539  0.53974892  0.58163606  1
  Al  Al16  1  0.44414214  0.42747569  0.33200024  1
  Al  Al17  1  0.55497259  0.53830539  0.08190798  1
  Al  Al18  1  0.10971052  0.43040037  0.82814100  1
  Al  Al19  1  0.22235908  0.54015898  0.58154218  1
  Al  Al20  1  0.77422035  0.43034947  0.32900278  1
  Al  Al21  1  0.88579167  0.54372868  0.07935271  1
  Al  Al22  1  0.44487331  0.42820694  0.82967029  1
  Al  Al23  1  0.55593171  0.53926489  0.57880485  1
  Al  Al24  1  0.11343881  0.75635833  0.32900678  1
  Al  Al25  1  0.22160057  0.86925663  0.07610473  1
  Al  Al26  1  0.77843098  0.76176379  0.82915559  1
  Al  Al27  1  0.88895083  0.87228414  0.57886078  1
  Al  Al28  1  0.44701614  0.75755341  0.32900297  1
  Al  Al29  1  0.56039616  0.86912422  0.07935272  1
  Al  Al30  1  0.10889142  0.76069252  0.83163922  1
  Al  Al31  1  0.22712452  0.86241222  0.58686129  1
  Al  Al32  1  0.77726382  0.76059669  0.33155955  1
  Al  Al33  1  0.88862567  0.87195857  0.08303447  1
  Al  Al34  1  0.44694247  0.75914955  0.83228314  1
  Al  Al35  1  0.55641563  0.87026878  0.58163617  1
  N  N36  1  0.23237702  0.21570983  0.37230074  1
  N  N37  1  0.10113822  0.08447095  0.12310870  1
  N  N38  1  0.88787156  0.20600709  0.87138571  1
  N  N39  1  0.77702658  0.09168155  0.63016460  1
  N  N40  1  0.55630292  0.20660117  0.37971619  1
  N  N41  1  0.46754461  0.08304621  0.13078886  1
  N  N42  1  0.22248390  0.20581679  0.86294875  1
  N  N43  1  0.11047432  0.09380755  0.61613491  1
  N  N44  1  0.86362469  0.21834922  0.38514803  1
  N  N45  1  0.77772087  0.09522894  0.12537402  1
  N  N46  1  0.55508519  0.20648597  0.87571901  1
  N  N47  1  0.44757796  0.09267129  0.62541916  1
  N  N48  1  0.22326803  0.53963633  0.37971642  1
  N  N49  1  0.09971373  0.45087678  0.13078888  1
  N  N50  1  0.88829125  0.54028341  0.87603113  1
  N  N51  1  0.77514455  0.43123071  0.63062398  1
  N  N52  1  0.55568866  0.53902222  0.37515894  1
  N  N53  1  0.44373281  0.42706592  0.12781531  1
  N  N54  1  0.22315286  0.53841854  0.87571881  1
  N  N55  1  0.10933796  0.43091132  0.62541901  1
  N  N56  1  0.88676318  0.53896383  0.37908366  1
  N  N57  1  0.77888899  0.42731068  0.12454858  1
  N  N58  1  0.55498279  0.53831631  0.87965804  1
  N  N59  1  0.44507101  0.42840431  0.62667510  1
  N  N60  1  0.23501630  0.84695768  0.38514803  1
  N  N61  1  0.11189568  0.76105460  0.12537403  1
  N  N62  1  0.88832956  0.87166306  0.87995110  1
  N  N63  1  0.77837059  0.76170402  0.62621448  1
  N  N64  1  0.55563032  0.87009669  0.37908340  1
  N  N65  1  0.44397725  0.76222270  0.12454856  1
  N  N66  1  0.22267394  0.87120490  0.87138577  1
  N  N67  1  0.10834820  0.76036001  0.63016453  1
  N  N68  1  0.88954077  0.87287424  0.37466844  1
  N  N69  1  0.77760710  0.76094129  0.12876247  1
  N  N70  1  0.55694984  0.87162484  0.87603137  1
  N  N71  1  0.44789730  0.75847798  0.63062398  1
