# generated using pymatgen
data_ScAl17N18
_symmetry_space_group_name_H-M   'P 1'
_cell_length_a   9.49703620
_cell_length_b   9.49703644
_cell_length_c   9.99181322
_cell_angle_alpha   89.98575016
_cell_angle_beta   89.98575325
_cell_angle_gamma   60.02349995
_symmetry_Int_Tables_number   1
_chemical_formula_structural   ScAl17N18
_chemical_formula_sum   'Sc2 Al34 N36'
_cell_volume   780.64559092
_cell_formula_units_Z   2
loop_
 _symmetry_equiv_pos_site_id
 _symmetry_equiv_pos_as_xyz
  1  'x, y, z'
loop_
 _atom_site_type_symbol
 _atom_site_label
 _atom_site_symmetry_multiplicity
 _atom_site_fract_x
 _atom_site_fract_y
 _atom_site_fract_z
 _atom_site_occupancy
  Sc  Sc0  1  0.10987949  0.09321208  0.39965519  1
  Sc  Sc1  1  0.22469451  0.20802771  0.13708102  1
  Al  Al2  1  0.77663614  0.09414515  0.90228430  1
  Al  Al3  1  0.88616474  0.20709479  0.65631030  1
  Al  Al4  1  0.44744394  0.09495303  0.40550144  1
  Al  Al5  1  0.55992270  0.20396323  0.15287433  1
  Al  Al6  1  0.10780460  0.09113793  0.90000145  1
  Al  Al7  1  0.22316174  0.20649518  0.65902914  1
  Al  Al8  1  0.77400727  0.09519734  0.40223346  1
  Al  Al9  1  0.88110808  0.20723250  0.14913068  1
  Al  Al10  1  0.45271090  0.09034174  0.89904862  1
  Al  Al11  1  0.55622423  0.20658313  0.65161157  1
  Al  Al12  1  0.11161966  0.43077739  0.40550140  1
  Al  Al13  1  0.22062979  0.54325603  0.15287422  1
  Al  Al14  1  0.77662655  0.42941519  0.90193341  1
  Al  Al15  1  0.88746133  0.53986733  0.65140923  1
  Al  Al16  1  0.44438070  0.42771424  0.40110058  1
  Al  Al17  1  0.55564089  0.53897406  0.15208268  1
  Al  Al18  1  0.10700830  0.43604428  0.89904868  1
  Al  Al19  1  0.22324965  0.53955764  0.65161159  1
  Al  Al20  1  0.77362764  0.43049401  0.40201008  1
  Al  Al21  1  0.88584016  0.54309539  0.15255540  1
  Al  Al22  1  0.44446340  0.42779683  0.90205087  1
  Al  Al23  1  0.55532747  0.53866090  0.65213693  1
  Al  Al24  1  0.11186392  0.75734058  0.40223346  1
  Al  Al25  1  0.22389905  0.86444144  0.14913076  1
  Al  Al26  1  0.77761631  0.76094955  0.90242842  1
  Al  Al27  1  0.88889479  0.87222817  0.65204506  1
  Al  Al28  1  0.44716059  0.75696093  0.40201007  1
  Al  Al29  1  0.55976222  0.86917335  0.15255545  1
  Al  Al30  1  0.11081179  0.75996943  0.90228434  1
  Al  Al31  1  0.22376138  0.86949813  0.65631016  1
  Al  Al32  1  0.77804472  0.76137792  0.40200228  1
  Al  Al33  1  0.88892374  0.87225703  0.15108966  1
  Al  Al34  1  0.44608189  0.75995986  0.90193336  1
  Al  Al35  1  0.55653400  0.87079466  0.65140912  1
  N  N36  1  0.23142465  0.21475791  0.34913481  1
  N  N37  1  0.10037090  0.08370395  0.09387344  1
  N  N38  1  0.88512480  0.20749435  0.84685785  1
  N  N39  1  0.77838588  0.09423303  0.59467546  1
  N  N40  1  0.55515874  0.20538831  0.34532593  1
  N  N41  1  0.46900080  0.08200384  0.08766480  1
  N  N42  1  0.22302552  0.20635867  0.85633168  1
  N  N43  1  0.11118605  0.09451934  0.61314067  1
  N  N44  1  0.86792258  0.21599490  0.33914604  1
  N  N45  1  0.77710838  0.09328172  0.09300535  1
  N  N46  1  0.55633046  0.20712205  0.84238914  1
  N  N47  1  0.44507427  0.09422153  0.59856778  1
  N  N48  1  0.22205510  0.53849192  0.34532604  1
  N  N49  1  0.09867045  0.45233435  0.08766480  1
  N  N50  1  0.88647894  0.54033766  0.84232463  1
  N  N51  1  0.77740401  0.42773256  0.59458639  1
  N  N52  1  0.55534624  0.53867975  0.34396077  1
  N  N53  1  0.44395262  0.42728582  0.09540950  1
  N  N54  1  0.22378877  0.53966382  0.84238911  1
  N  N55  1  0.11088823  0.42840758  0.59856764  1
  N  N56  1  0.88915159  0.53835619  0.34594022  1
  N  N57  1  0.77739967  0.42963713  0.09358508  1
  N  N58  1  0.55529982  0.53863321  0.84432204  1
  N  N59  1  0.44467019  0.42800338  0.59339135  1
  N  N60  1  0.23266161  0.85125608  0.33914608  1
  N  N61  1  0.10994840  0.76044171  0.09300528  1
  N  N62  1  0.88869570  0.87202942  0.84437490  1
  N  N63  1  0.77809740  0.76143076  0.59364773  1
  N  N64  1  0.55502291  0.87248482  0.34594022  1
  N  N65  1  0.44630385  0.76073303  0.09358540  1
  N  N66  1  0.22416102  0.86845812  0.84685790  1
  N  N67  1  0.11089957  0.76171930  0.59467534  1
  N  N68  1  0.88925662  0.87259021  0.34447165  1
  N  N69  1  0.77785755  0.76119101  0.09478764  1
  N  N70  1  0.55700432  0.86981223  0.84232481  1
  N  N71  1  0.44439916  0.76073736  0.59458663  1
