# generated using pymatgen
data_ScAl17N18
_symmetry_space_group_name_H-M   'P 1'
_cell_length_a   9.49704176
_cell_length_b   9.49704227
_cell_length_c   9.99178996
_cell_angle_alpha   89.98579600
_cell_angle_beta   89.98578975
_cell_angle_gamma   60.02346163
_symmetry_Int_Tables_number   1
_chemical_formula_structural   ScAl17N18
_chemical_formula_sum   'Sc2 Al34 N36'
_cell_volume   780.64440922
_cell_formula_units_Z   2
loop_
 _symmetry_equiv_pos_site_id
 _symmetry_equiv_pos_as_xyz
  1  'x, y, z'
loop_
 _atom_site_type_symbol
 _atom_site_label
 _atom_site_symmetry_multiplicity
 _atom_site_fract_x
 _atom_site_fract_y
 _atom_site_fract_z
 _atom_site_occupancy
  Sc  Sc0  1  0.10861166  0.09194493  0.32512758  1
  Sc  Sc1  1  0.22342689  0.20676023  0.06255140  1
  Al  Al2  1  0.77708301  0.09339067  0.81058494  1
  Al  Al3  1  0.88059504  0.20963244  0.56315535  1
  Al  Al4  1  0.45219921  0.09274055  0.31307040  1
  Al  Al5  1  0.55929998  0.20477597  0.05996325  1
  Al  Al6  1  0.11014535  0.09347864  0.80317225  1
  Al  Al7  1  0.22550337  0.20883668  0.56219960  1
  Al  Al8  1  0.77338440  0.09600978  0.30932501  1
  Al  Al9  1  0.88586286  0.20501996  0.05670545  1
  Al  Al10  1  0.44714151  0.09287893  0.80589567  1
  Al  Al11  1  0.55666969  0.20582833  0.55991204  1
  Al  Al12  1  0.10940723  0.43553253  0.31307044  1
  Al  Al13  1  0.22144263  0.54263333  0.05996325  1
  Al  Al14  1  0.77677326  0.42917820  0.81078734  1
  Al  Al15  1  0.88722581  0.54001344  0.56026316  1
  Al  Al16  1  0.44438329  0.42771665  0.31110468  1
  Al  Al17  1  0.55526222  0.53859559  0.06019246  1
  Al  Al18  1  0.10954562  0.43047480  0.80589569  1
  Al  Al19  1  0.22249499  0.54000303  0.55991207  1
  Al  Al20  1  0.77354410  0.43079999  0.30964368  1
  Al  Al21  1  0.88614553  0.54301231  0.06018652  1
  Al  Al22  1  0.44441199  0.42774533  0.81015023  1
  Al  Al23  1  0.55569040  0.53902376  0.55976745  1
  Al  Al24  1  0.11267645  0.75671772  0.30932502  1
  Al  Al25  1  0.22168663  0.86919618  0.05670542  1
  Al  Al26  1  0.77797925  0.76131260  0.81005774  1
  Al  Al27  1  0.88884305  0.87217640  0.56014534  1
  Al  Al28  1  0.44746668  0.75687744  0.30964364  1
  Al  Al29  1  0.55967896  0.86947886  0.06018649  1
  Al  Al30  1  0.11005734  0.76041635  0.81058493  1
  Al  Al31  1  0.22629912  0.86392836  0.56315533  1
  Al  Al32  1  0.77766611  0.76099947  0.31011158  1
  Al  Al33  1  0.88892608  0.87225942  0.06109480  1
  Al  Al34  1  0.44584486  0.76010661  0.81078733  1
  Al  Al35  1  0.55668010  0.87055915  0.56026313  1
  N  N36  1  0.23293672  0.21627004  0.36832828  1
  N  N37  1  0.10188116  0.08521445  0.11307460  1
  N  N38  1  0.88823293  0.20575202  0.86363521  1
  N  N39  1  0.77697593  0.09285096  0.61980864  1
  N  N40  1  0.55619757  0.20669244  0.36919314  1
  N  N41  1  0.46538519  0.08397762  0.12305380  1
  N  N42  1  0.22212048  0.20545379  0.84906578  1
  N  N43  1  0.11028183  0.09361510  0.60587017  1
  N  N44  1  0.86430381  0.21797053  0.37453825  1
  N  N45  1  0.77814799  0.09458405  0.11687400  1
  N  N46  1  0.55492158  0.20574118  0.86752324  1
  N  N47  1  0.44818180  0.09247935  0.61534546  1
  N  N48  1  0.22335910  0.53953092  0.36919311  1
  N  N49  1  0.10064429  0.44871853  0.12305379  1
  N  N50  1  0.88890641  0.53923675  0.86761150  1
  N  N51  1  0.77630222  0.43016219  0.61987290  1
  N  N52  1  0.55544881  0.53878218  0.36741008  1
  N  N53  1  0.44405026  0.42738361  0.11772495  1
  N  N54  1  0.22240783  0.53825495  0.86752316  1
  N  N55  1  0.10914602  0.43151512  0.61534541  1
  N  N56  1  0.88700273  0.53924098  0.36861258  1
  N  N57  1  0.77828325  0.42748949  0.11625932  1
  N  N58  1  0.55520954  0.53854292  0.86854811  1
  N  N59  1  0.44461083  0.42794416  0.61782221  1
  N  N60  1  0.23463724  0.84763706  0.37453826  1
  N  N61  1  0.11125071  0.76148133  0.11687398  1
  N  N62  1  0.88863647  0.87196982  0.86880412  1
  N  N63  1  0.77800704  0.76134040  0.61787467  1
  N  N64  1  0.55590760  0.87033610  0.36861252  1
  N  N65  1  0.44415614  0.76161660  0.11625927  1
  N  N66  1  0.22241869  0.87156626  0.86363515  1
  N  N67  1  0.10951762  0.76030927  0.61980862  1
  N  N68  1  0.88935389  0.87268722  0.36678842  1
  N  N69  1  0.77796052  0.76129386  0.11823550  1
  N  N70  1  0.55590340  0.87223974  0.86761148  1
  N  N71  1  0.44682886  0.75963557  0.61987283  1
