# generated using pymatgen
data_ScAl17N18
_symmetry_space_group_name_H-M   'P 1'
_cell_length_a   9.49929484
_cell_length_b   9.49930453
_cell_length_c   9.98570166
_cell_angle_alpha   89.98819295
_cell_angle_beta   89.98815402
_cell_angle_gamma   60.02386388
_symmetry_Int_Tables_number   1
_chemical_formula_structural   ScAl17N18
_chemical_formula_sum   'Sc2 Al34 N36'
_cell_volume   780.54288259
_cell_formula_units_Z   2
loop_
 _symmetry_equiv_pos_site_id
 _symmetry_equiv_pos_as_xyz
  1  'x, y, z'
loop_
 _atom_site_type_symbol
 _atom_site_label
 _atom_site_symmetry_multiplicity
 _atom_site_fract_x
 _atom_site_fract_y
 _atom_site_fract_z
 _atom_site_occupancy
  Sc  Sc0  1  0.10855602  0.09188879  0.33748994  1
  Sc  Sc1  1  0.22338209  0.20671563  0.07495591  1
  Al  Al2  1  0.77709200  0.09337701  0.82272937  1
  Al  Al3  1  0.88052232  0.20966749  0.57530906  1
  Al  Al4  1  0.45224406  0.09270158  0.32516574  1
  Al  Al5  1  0.55928767  0.20478518  0.07205227  1
  Al  Al6  1  0.11016551  0.09349854  0.81530025  1
  Al  Al7  1  0.22552069  0.20885391  0.57424927  1
  Al  Al8  1  0.77335166  0.09601938  0.32142782  1
  Al  Al9  1  0.88587641  0.20499299  0.06885240  1
  Al  Al10  1  0.44709768  0.09290233  0.81807770  1
  Al  Al11  1  0.55666146  0.20582083  0.57206004  1
  Al  Al12  1  0.10936848  0.43557729  0.32516579  1
  Al  Al13  1  0.22145190  0.54262112  0.07205230  1
  Al  Al14  1  0.77676833  0.42918506  0.82293871  1
  Al  Al15  1  0.88722805  0.54000103  0.57241056  1
  Al  Al16  1  0.44437272  0.42770596  0.32323773  1
  Al  Al17  1  0.55525428  0.53858788  0.07232780  1
  Al  Al18  1  0.10956920  0.43043089  0.81807774  1
  Al  Al19  1  0.22248753  0.53999488  0.57206002  1
  Al  Al20  1  0.77353727  0.43079914  0.32174689  1
  Al  Al21  1  0.88613101  0.54302645  0.07228208  1
  Al  Al22  1  0.44441927  0.42775255  0.82225757  1
  Al  Al23  1  0.55569274  0.53902630  0.57187550  1
  Al  Al24  1  0.11268621  0.75668497  0.32142777  1
  Al  Al25  1  0.22165975  0.86920965  0.06885235  1
  Al  Al26  1  0.77798593  0.76131935  0.82216150  1
  Al  Al27  1  0.88884379  0.87217710  0.57225310  1
  Al  Al28  1  0.44746584  0.75687067  0.32174680  1
  Al  Al29  1  0.55969294  0.86946438  0.07228206  1
  Al  Al30  1  0.11004386  0.76042526  0.82272939  1
  Al  Al31  1  0.22633427  0.86385561  0.57530896  1
  Al  Al32  1  0.77765681  0.76099029  0.32224892  1
  Al  Al33  1  0.88891641  0.87224975  0.07323301  1
  Al  Al34  1  0.44585170  0.76010173  0.82293868  1
  Al  Al35  1  0.55666751  0.87056149  0.57241054  1
  N  N36  1  0.23293285  0.21626630  0.38020797  1
  N  N37  1  0.10182058  0.08515379  0.12529117  1
  N  N38  1  0.88825887  0.20574170  0.87566572  1
  N  N39  1  0.77696868  0.09283514  0.63186237  1
  N  N40  1  0.55618357  0.20668089  0.38124345  1
  N  N41  1  0.46544467  0.08394248  0.13505220  1
  N  N42  1  0.22211123  0.20544475  0.86129630  1
  N  N43  1  0.11028954  0.09362262  0.61781405  1
  N  N44  1  0.86420647  0.21801103  0.38659209  1
  N  N45  1  0.77812255  0.09458811  0.12888501  1
  N  N46  1  0.55492367  0.20575645  0.87952980  1
  N  N47  1  0.44813860  0.09249775  0.62740246  1
  N  N48  1  0.22334747  0.53951706  0.38124346  1
  N  N49  1  0.10060924  0.44877801  0.13505227  1
  N  N50  1  0.88889889  0.53925499  0.87962358  1
  N  N51  1  0.77628318  0.43017803  0.63193251  1
  N  N52  1  0.55544868  0.53878224  0.37942206  1
  N  N53  1  0.44404253  0.42737569  0.12976348  1
  N  N54  1  0.22242304  0.53825713  0.87952980  1
  N  N55  1  0.10916456  0.43147181  0.62740250  1
  N  N56  1  0.88699631  0.53923335  0.38066236  1
  N  N57  1  0.77829043  0.42748492  0.12827111  1
  N  N58  1  0.55520758  0.53854118  0.88059691  1
  N  N59  1  0.44461629  0.42794948  0.62984189  1
  N  N60  1  0.23467759  0.84753992  0.38659202  1
  N  N61  1  0.11125487  0.76145580  0.12888504  1
  N  N62  1  0.88863301  0.87196642  0.88085327  1
  N  N63  1  0.77801118  0.76134451  0.62989065  1
  N  N64  1  0.55589981  0.87032980  0.38066233  1
  N  N65  1  0.44415164  0.76162371  0.12827109  1
  N  N66  1  0.22240831  0.87159229  0.87566570  1
  N  N67  1  0.10950194  0.76030195  0.63186235  1
  N  N68  1  0.88935653  0.87268992  0.37880231  1
  N  N69  1  0.77795124  0.76128456  0.13027819  1
  N  N70  1  0.55592152  0.87223234  0.87962354  1
  N  N71  1  0.44684475  0.75961646  0.63193255  1
