# generated using pymatgen
data_ScAl17N18
_symmetry_space_group_name_H-M   'P 1'
_cell_length_a   9.49704071
_cell_length_b   9.49704061
_cell_length_c   9.99180908
_cell_angle_alpha   89.98578621
_cell_angle_beta   89.98580568
_cell_angle_gamma   60.02346768
_symmetry_Int_Tables_number   1
_chemical_formula_structural   ScAl17N18
_chemical_formula_sum   'Sc2 Al34 N36'
_cell_volume   780.64572734
_cell_formula_units_Z   2
loop_
 _symmetry_equiv_pos_site_id
 _symmetry_equiv_pos_as_xyz
  1  'x, y, z'
loop_
 _atom_site_type_symbol
 _atom_site_label
 _atom_site_symmetry_multiplicity
 _atom_site_fract_x
 _atom_site_fract_y
 _atom_site_fract_z
 _atom_site_occupancy
  Sc  Sc0  1  0.10861021  0.09194365  0.32904678  1
  Sc  Sc1  1  0.22342606  0.20675994  0.06647368  1
  Al  Al2  1  0.77708135  0.09338829  0.81451547  1
  Al  Al3  1  0.88059396  0.20963008  0.56707993  1
  Al  Al4  1  0.45219674  0.09273943  0.31699829  1
  Al  Al5  1  0.55929766  0.20477451  0.06389255  1
  Al  Al6  1  0.11014333  0.09347674  0.80709848  1
  Al  Al7  1  0.22550036  0.20883385  0.56612695  1
  Al  Al8  1  0.77338247  0.09600886  0.31325174  1
  Al  Al9  1  0.88586156  0.20501824  0.06062570  1
  Al  Al10  1  0.44713989  0.09287718  0.80981723  1
  Al  Al11  1  0.55666922  0.20582642  0.56384239  1
  Al  Al12  1  0.10940597  0.43553028  0.31699819  1
  Al  Al13  1  0.22144107  0.54263103  0.06389254  1
  Al  Al14  1  0.77677118  0.42917665  0.81471818  1
  Al  Al15  1  0.88722315  0.54001154  0.56419369  1
  Al  Al16  1  0.44438124  0.42771470  0.31503720  1
  Al  Al17  1  0.55526025  0.53859348  0.06412423  1
  Al  Al18  1  0.10954377  0.43047328  0.80981720  1
  Al  Al19  1  0.22249301  0.54000254  0.56384233  1
  Al  Al20  1  0.77354310  0.43079776  0.31357090  1
  Al  Al21  1  0.88614483  0.54301040  0.06411637  1
  Al  Al22  1  0.44441030  0.42774371  0.81408050  1
  Al  Al23  1  0.55568905  0.53902227  0.56369751  1
  Al  Al24  1  0.11267550  0.75671576  0.31325164  1
  Al  Al25  1  0.22168484  0.86919488  0.06062580  1
  Al  Al26  1  0.77797800  0.76131110  0.81398901  1
  Al  Al27  1  0.88884193  0.87217522  0.56407508  1
  Al  Al28  1  0.44746436  0.75687638  0.31357093  1
  Al  Al29  1  0.55967716  0.86947809  0.06411647  1
  Al  Al30  1  0.11005497  0.76041457  0.81451550  1
  Al  Al31  1  0.22629666  0.86392733  0.56707983  1
  Al  Al32  1  0.77766430  0.76099749  0.31404397  1
  Al  Al33  1  0.88892444  0.87225761  0.06502682  1
  Al  Al34  1  0.44584334  0.76010438  0.81471824  1
  Al  Al35  1  0.55667831  0.87055641  0.56419375  1
  N  N36  1  0.23293433  0.21626765  0.37225402  1
  N  N37  1  0.10188012  0.08521345  0.11699242  1
  N  N38  1  0.88823096  0.20575028  0.86755855  1
  N  N39  1  0.77697477  0.09284902  0.62373708  1
  N  N40  1  0.55619681  0.20669010  0.37312117  1
  N  N41  1  0.46538300  0.08397638  0.12698063  1
  N  N42  1  0.22211925  0.20545244  0.85298717  1
  N  N43  1  0.11027967  0.09361297  0.60979538  1
  N  N44  1  0.86430323  0.21796839  0.37846166  1
  N  N45  1  0.77814621  0.09458344  0.12079892  1
  N  N46  1  0.55491887  0.20573916  0.87145018  1
  N  N47  1  0.44818014  0.09247741  0.61926879  1
  N  N48  1  0.22335681  0.53953010  0.37312120  1
  N  N49  1  0.10064308  0.44871629  0.12698055  1
  N  N50  1  0.88890586  0.53923459  0.87153890  1
  N  N51  1  0.77630042  0.43015994  0.62380146  1
  N  N52  1  0.55544753  0.53878089  0.37133698  1
  N  N53  1  0.44404830  0.42738154  0.12165423  1
  N  N54  1  0.22240594  0.53825211  0.87145015  1
  N  N55  1  0.10914409  0.43151347  0.61926874  1
  N  N56  1  0.88700074  0.53923891  0.37254088  1
  N  N57  1  0.77828237  0.42748707  0.12018469  1
  N  N58  1  0.55520755  0.53854084  0.87247800  1
  N  N59  1  0.44460926  0.42794258  0.62175043  1
  N  N60  1  0.23463498  0.84763681  0.37846167  1
  N  N61  1  0.11125010  0.76147961  0.12079896  1
  N  N62  1  0.88863451  0.87196789  0.87273437  1
  N  N63  1  0.77800550  0.76133883  0.62180341  1
  N  N64  1  0.55590557  0.87033413  0.37254091  1
  N  N65  1  0.44415384  0.76161566  0.12018462  1
  N  N66  1  0.22241700  0.87156431  0.86755854  1
  N  N67  1  0.10951574  0.76030809  0.62373711  1
  N  N68  1  0.88935255  0.87268594  0.37071490  1
  N  N69  1  0.77795853  0.76129197  0.12216510  1
  N  N70  1  0.55590131  0.87223917  0.87153897  1
  N  N71  1  0.44682662  0.75963373  0.62380147  1
