# generated using pymatgen
data_ScAl17N18
_symmetry_space_group_name_H-M   'P 1'
_cell_length_a   9.49703791
_cell_length_b   9.49703995
_cell_length_c   9.99183325
_cell_angle_alpha   89.98573530
_cell_angle_beta   89.98577855
_cell_angle_gamma   60.02334715
_symmetry_Int_Tables_number   1
_chemical_formula_structural   ScAl17N18
_chemical_formula_sum   'Sc2 Al34 N36'
_cell_volume   780.64638395
_cell_formula_units_Z   2
loop_
 _symmetry_equiv_pos_site_id
 _symmetry_equiv_pos_as_xyz
  1  'x, y, z'
loop_
 _atom_site_type_symbol
 _atom_site_label
 _atom_site_symmetry_multiplicity
 _atom_site_fract_x
 _atom_site_fract_y
 _atom_site_fract_z
 _atom_site_occupancy
  Sc  Sc0  1  0.10988162  0.09321514  0.39199739  1
  Sc  Sc1  1  0.22469781  0.20803148  0.12942430  1
  Al  Al2  1  0.77663936  0.09414867  0.89462873  1
  Al  Al3  1  0.88616824  0.20709805  0.64865377  1
  Al  Al4  1  0.44744688  0.09495656  0.39784510  1
  Al  Al5  1  0.55992588  0.20396629  0.14521955  1
  Al  Al6  1  0.10780799  0.09114125  0.89234386  1
  Al  Al7  1  0.22316482  0.20649816  0.65137246  1
  Al  Al8  1  0.77401074  0.09520057  0.39457847  1
  Al  Al9  1  0.88111148  0.20723577  0.14147270  1
  Al  Al10  1  0.45271458  0.09034487  0.89139107  1
  Al  Al11  1  0.55622736  0.20658668  0.64395520  1
  Al  Al12  1  0.11162324  0.43078023  0.39784508  1
  Al  Al13  1  0.22063293  0.54325917  0.14521950  1
  Al  Al14  1  0.77662989  0.42941876  0.89427759  1
  Al  Al15  1  0.88746466  0.53987086  0.64375273  1
  Al  Al16  1  0.44438426  0.42771755  0.39344375  1
  Al  Al17  1  0.55564405  0.53897745  0.14442725  1
  Al  Al18  1  0.10701157  0.43604790  0.89139101  1
  Al  Al19  1  0.22325345  0.53956057  0.64395514  1
  Al  Al20  1  0.77363095  0.43049709  0.39435474  1
  Al  Al21  1  0.88584358  0.54309878  0.14490028  1
  Al  Al22  1  0.44446667  0.42779995  0.89439581  1
  Al  Al23  1  0.55533047  0.53866382  0.64448194  1
  Al  Al24  1  0.11186725  0.75734401  0.39457853  1
  Al  Al25  1  0.22390241  0.86444481  0.14147266  1
  Al  Al26  1  0.77761941  0.76095265  0.89477350  1
  Al  Al27  1  0.88889798  0.87223128  0.64439019  1
  Al  Al28  1  0.44716382  0.75696427  0.39435469  1
  Al  Al29  1  0.55976551  0.86917689  0.14490022  1
  Al  Al30  1  0.11081538  0.75997259  0.89462875  1
  Al  Al31  1  0.22376471  0.86950161  0.64865381  1
  Al  Al32  1  0.77804820  0.76138156  0.39434650  1
  Al  Al33  1  0.88892688  0.87226026  0.14343383  1
  Al  Al34  1  0.44608553  0.75996316  0.89427759  1
  Al  Al35  1  0.55653757  0.87079794  0.64375277  1
  N  N36  1  0.23142781  0.21476116  0.34147865  1
  N  N37  1  0.10037427  0.08370749  0.08621624  1
  N  N38  1  0.88512824  0.20749756  0.83920197  1
  N  N39  1  0.77838958  0.09423589  0.58702056  1
  N  N40  1  0.55516164  0.20539143  0.33767191  1
  N  N41  1  0.46900492  0.08200701  0.08000897  1
  N  N42  1  0.22302874  0.20636200  0.84867472  1
  N  N43  1  0.11118935  0.09452260  0.60548375  1
  N  N44  1  0.86792547  0.21599847  0.33148995  1
  N  N45  1  0.77711179  0.09328496  0.08534953  1
  N  N46  1  0.55633358  0.20712586  0.83473344  1
  N  N47  1  0.44507746  0.09422480  0.59091211  1
  N  N48  1  0.22205809  0.53849509  0.33767187  1
  N  N49  1  0.09867369  0.45233821  0.08000904  1
  N  N50  1  0.88648172  0.54034133  0.83466909  1
  N  N51  1  0.77740710  0.42773603  0.58693182  1
  N  N52  1  0.55534961  0.53868317  0.33630583  1
  N  N53  1  0.44395579  0.42728913  0.08775568  1
  N  N54  1  0.22379254  0.53966698  0.83473334  1
  N  N55  1  0.11089157  0.42841074  0.59091210  1
  N  N56  1  0.88915451  0.53835932  0.33828616  1
  N  N57  1  0.77740295  0.42964085  0.08592996  1
  N  N58  1  0.55530270  0.53863615  0.83666716  1
  N  N59  1  0.44467386  0.42800710  0.58573597  1
  N  N60  1  0.23266522  0.85125865  0.33148993  1
  N  N61  1  0.10995159  0.76044518  0.08534963  1
  N  N62  1  0.88869900  0.87203237  0.83672017  1
  N  N63  1  0.77810085  0.76143428  0.58599252  1
  N  N64  1  0.55502584  0.87248799  0.33828611  1
  N  N65  1  0.44630750  0.76073638  0.08593004  1
  N  N66  1  0.22416430  0.86846152  0.83920208  1
  N  N67  1  0.11090261  0.76172291  0.58702058  1
  N  N68  1  0.88926002  0.87259340  0.33681636  1
  N  N69  1  0.77786084  0.76119430  0.08713367  1
  N  N70  1  0.55700795  0.86981510  0.83466917  1
  N  N71  1  0.44440265  0.76074055  0.58693178  1
