# generated using pymatgen
data_ScAl17N18
_symmetry_space_group_name_H-M   'P 1'
_cell_length_a   9.47056834
_cell_length_b   9.47056802
_cell_length_c   10.06112749
_cell_angle_alpha   89.97349376
_cell_angle_beta   89.97349281
_cell_angle_gamma   60.02302601
_symmetry_Int_Tables_number   1
_chemical_formula_structural   ScAl17N18
_chemical_formula_sum   'Sc2 Al34 N36'
_cell_volume   781.68182192
_cell_formula_units_Z   2
loop_
 _symmetry_equiv_pos_site_id
 _symmetry_equiv_pos_as_xyz
  1  'x, y, z'
loop_
 _atom_site_type_symbol
 _atom_site_label
 _atom_site_symmetry_multiplicity
 _atom_site_fract_x
 _atom_site_fract_y
 _atom_site_fract_z
 _atom_site_occupancy
  Sc  Sc0  1  0.10898211  0.09231572  0.30796741  1
  Sc  Sc1  1  0.22367837  0.20701128  0.04608810  1
  Al  Al2  1  0.77706040  0.09345079  0.79590643  1
  Al  Al3  1  0.88129691  0.20926516  0.54834378  1
  Al  Al4  1  0.45183892  0.09303696  0.29862297  1
  Al  Al5  1  0.55941887  0.20467021  0.04577523  1
  Al  Al6  1  0.10998568  0.09331937  0.78871716  1
  Al  Al7  1  0.22521341  0.20854637  0.54747882  1
  Al  Al8  1  0.77350382  0.09599939  0.29511367  1
  Al  Al9  1  0.88554067  0.20516737  0.04217339  1
  Al  Al10  1  0.44729670  0.09275622  0.79121010  1
  Al  Al11  1  0.55655691  0.20588495  0.54529341  1
  Al  Al12  1  0.10970381  0.43517201  0.29862291  1
  Al  Al13  1  0.22133688  0.54275211  0.04577520  1
  Al  Al14  1  0.77683900  0.42907528  0.79609249  1
  Al  Al15  1  0.88728569  0.53995077  0.54556237  1
  Al  Al16  1  0.44442304  0.42775648  0.29655307  1
  Al  Al17  1  0.55531624  0.53864993  0.04571831  1
  Al  Al18  1  0.10942289  0.43062989  0.79121015  1
  Al  Al19  1  0.22255163  0.53989014  0.54529345  1
  Al  Al20  1  0.77353923  0.43077924  0.29535600  1
  Al  Al21  1  0.88620630  0.54298294  0.04599039  1
  Al  Al22  1  0.44437619  0.42770979  0.79577116  1
  Al  Al23  1  0.55564860  0.53898207  0.54529799  1
  Al  Al24  1  0.11266607  0.75683716  0.29511368  1
  Al  Al25  1  0.22183375  0.86887428  0.04217349  1
  Al  Al26  1  0.77792494  0.76125813  0.79563396  1
  Al  Al27  1  0.88882113  0.87215426  0.54563194  1
  Al  Al28  1  0.44744586  0.75687272  0.29535597  1
  Al  Al29  1  0.55964989  0.86953947  0.04599039  1
  Al  Al30  1  0.11011732  0.76039388  0.79590645  1
  Al  Al31  1  0.22593188  0.86463028  0.54834373  1
  Al  Al32  1  0.77771566  0.76104873  0.29562314  1
  Al  Al33  1  0.88896123  0.87229448  0.04663869  1
  Al  Al34  1  0.44574156  0.76017280  0.79609256  1
  Al  Al35  1  0.55661784  0.87061873  0.54556242  1
  N  N36  1  0.23282710  0.21616018  0.35581623  1
  N  N37  1  0.10206313  0.08539685  0.09888616  1
  N  N38  1  0.88822118  0.20569424  0.85058499  1
  N  N39  1  0.77693324  0.09296727  0.60640980  1
  N  N40  1  0.55623468  0.20675027  0.35595789  1
  N  N41  1  0.46483616  0.08430268  0.11007659  1
  N  N42  1  0.22208011  0.20541329  0.83587140  1
  N  N43  1  0.11025089  0.09358424  0.59395560  1
  N  N44  1  0.86521514  0.21757666  0.36107968  1
  N  N45  1  0.77820352  0.09455275  0.10400581  1
  N  N46  1  0.55492615  0.20559565  0.85455486  1
  N  N47  1  0.44795678  0.09256062  0.60206008  1
  N  N48  1  0.22341684  0.53956800  0.35595791  1
  N  N49  1  0.10096958  0.44816908  0.11007652  1
  N  N50  1  0.88896432  0.53911225  0.85459572  1
  N  N51  1  0.77639968  0.43002443  0.60643231  1
  N  N52  1  0.55542620  0.53875969  0.35440825  1
  N  N53  1  0.44415511  0.42748850  0.10460769  1
  N  N54  1  0.22226208  0.53825961  0.85455486  1
  N  N55  1  0.10922753  0.43128974  0.60206012  1
  N  N56  1  0.88701335  0.53939888  0.35534876  1
  N  N57  1  0.77811790  0.42754971  0.10337774  1
  N  N58  1  0.55524045  0.53857428  0.85532728  1
  N  N59  1  0.44456248  0.42789582  0.60481448  1
  N  N60  1  0.23424324  0.84854865  0.36107960  1
  N  N61  1  0.11121947  0.76153677  0.10400584  1
  N  N62  1  0.88865055  0.87198399  0.85556617  1
  N  N63  1  0.77793657  0.76126947  0.60480380  1
  N  N64  1  0.55606585  0.87034646  0.35534881  1
  N  N65  1  0.44421613  0.76145160  0.10337773  1
  N  N66  1  0.22236050  0.87155492  0.85058509  1
  N  N67  1  0.10963411  0.76026649  0.60640981  1
  N  N68  1  0.88925720  0.87259051  0.35386470  1
  N  N69  1  0.77799328  0.76132632  0.10510930  1
  N  N70  1  0.55577902  0.87229768  0.85459570  1
  N  N71  1  0.44669110  0.75973312  0.60643235  1
