# generated using pymatgen
data_ScAl17N18
_symmetry_space_group_name_H-M   'P 1'
_cell_length_a   9.53572454
_cell_length_b   9.53573221
_cell_length_c   9.88649159
_cell_angle_alpha   90.00105177
_cell_angle_beta   90.00109582
_cell_angle_gamma   60.02362751
_symmetry_Int_Tables_number   1
_chemical_formula_structural   ScAl17N18
_chemical_formula_sum   'Sc2 Al34 N36'
_cell_volume   778.72465713
_cell_formula_units_Z   2
loop_
 _symmetry_equiv_pos_site_id
 _symmetry_equiv_pos_as_xyz
  1  'x, y, z'
loop_
 _atom_site_type_symbol
 _atom_site_label
 _atom_site_symmetry_multiplicity
 _atom_site_fract_x
 _atom_site_fract_y
 _atom_site_fract_z
 _atom_site_occupancy
  Sc  Sc0  1  0.10802006  0.09135311  0.34417187  1
  Sc  Sc1  1  0.22310337  0.20643649  0.08247812  1
  Al  Al2  1  0.77723810  0.09317657  0.82678804  1
  Al  Al3  1  0.87974593  0.21010593  0.57970081  1
  Al  Al4  1  0.45297144  0.09227136  0.32876431  1
  Al  Al5  1  0.55930027  0.20493659  0.07546494  1
  Al  Al6  1  0.11047128  0.09380452  0.81939518  1
  Al  Al7  1  0.22577372  0.20910711  0.57737436  1
  Al  Al8  1  0.77312546  0.09622170  0.32503530  1
  Al  Al9  1  0.88613746  0.20477501  0.07286615  1
  Al  Al10  1  0.44667587  0.09317844  0.82269384  1
  Al  Al11  1  0.55663948  0.20577986  0.57621973  1
  Al  Al12  1  0.10893816  0.43630466  0.32876431  1
  Al  Al13  1  0.22160315  0.54263376  0.07546495  1
  Al  Al14  1  0.77666718  0.42936098  0.82708952  1
  Al  Al15  1  0.88725233  0.53990538  0.57654225  1
  Al  Al16  1  0.44431611  0.42764939  0.32716270  1
  Al  Al17  1  0.55520748  0.53854104  0.07635888  1
  Al  Al18  1  0.10984519  0.43000914  0.82269385  1
  Al  Al19  1  0.22244641  0.53997298  0.57621972  1
  Al  Al20  1  0.77357529  0.43079633  0.32533311  1
  Al  Al21  1  0.88599733  0.54327131  0.07575933  1
  Al  Al22  1  0.44454398  0.42787730  0.82589453  1
  Al  Al23  1  0.55575684  0.53909040  0.57545009  1
  Al  Al24  1  0.11288842  0.75645881  0.32503531  1
  Al  Al25  1  0.22144167  0.86947080  0.07286611  1
  Al  Al26  1  0.77810441  0.76143780  0.82571933  1
  Al  Al27  1  0.88887524  0.87220869  0.57580182  1
  Al  Al28  1  0.44746300  0.75690865  0.32533306  1
  Al  Al29  1  0.55993779  0.86933076  0.07575930  1
  Al  Al30  1  0.10984326  0.76057144  0.82678806  1
  Al  Al31  1  0.22677252  0.86307933  0.57970079  1
  Al  Al32  1  0.77758663  0.76092005  0.32625420  1
  Al  Al33  1  0.88885910  0.87219254  0.07730211  1
  Al  Al34  1  0.44602765  0.76000054  0.82708952  1
  Al  Al35  1  0.55657186  0.87058581  0.57654223  1
  N  N36  1  0.23295666  0.21629025  0.38055421  1
  N  N37  1  0.10129057  0.08462376  0.12948897  1
  N  N38  1  0.88852073  0.20567621  0.87783573  1
  N  N39  1  0.77694462  0.09261107  0.63442543  1
  N  N40  1  0.55615613  0.20662698  0.38381523  1
  N  N41  1  0.46638503  0.08351761  0.13697346  1
  N  N42  1  0.22208924  0.20542277  0.86605315  1
  N  N43  1  0.11044651  0.09377984  0.61928191  1
  N  N44  1  0.86330847  0.21846599  0.38923238  1
  N  N45  1  0.77797687  0.09472610  0.13094861  1
  N  N46  1  0.55499871  0.20596299  0.88152589  1
  N  N47  1  0.44771456  0.09272383  0.63003324  1
  N  N48  1  0.22329349  0.53948952  0.38381525  1
  N  N49  1  0.10018443  0.44971809  0.13697347  1
  N  N50  1  0.88879054  0.53951711  0.88167157  1
  N  N51  1  0.77602699  0.43045310  0.63457757  1
  N  N52  1  0.55550774  0.53884100  0.38142161  1
  N  N53  1  0.44398843  0.42732160  0.13216600  1
  N  N54  1  0.22262949  0.53833212  0.88152589  1
  N  N55  1  0.10939053  0.43104783  0.63003323  1
  N  N56  1  0.88694415  0.53919607  0.38322809  1
  N  N57  1  0.77845263  0.42747188  0.13032983  1
  N  N58  1  0.55519219  0.53852552  0.88317356  1
  N  N59  1  0.44472991  0.42806314  0.63201047  1
  N  N60  1  0.23513248  0.84664190  0.38923244  1
  N  N61  1  0.11139285  0.76131001  0.13094859  1
  N  N62  1  0.88859333  0.87192677  0.88343062  1
  N  N63  1  0.77810167  0.76143472  0.63197977  1
  N  N64  1  0.55586268  0.87027756  0.38322809  1
  N  N65  1  0.44413874  0.76178573  0.13032981  1
  N  N66  1  0.22234268  0.87185421  0.87783569  1
  N  N67  1  0.10927782  0.76027774  0.63442543  1
  N  N68  1  0.88942927  0.87276272  0.38083342  1
  N  N69  1  0.77788512  0.76121816  0.13274441  1
  N  N70  1  0.55618375  0.87212396  0.88167158  1
  N  N71  1  0.44711994  0.75936010  0.63457759  1
