# generated using pymatgen
data_ScAl17N18
_symmetry_space_group_name_H-M   'P 1'
_cell_length_a   9.64664523
_cell_length_b   9.64664341
_cell_length_c   9.56841543
_cell_angle_alpha   90.01409669
_cell_angle_beta   90.01409457
_cell_angle_gamma   60.02197558
_symmetry_Int_Tables_number   1
_chemical_formula_structural   ScAl17N18
_chemical_formula_sum   'Sc2 Al34 N36'
_cell_volume   771.29283442
_cell_formula_units_Z   2
loop_
 _symmetry_equiv_pos_site_id
 _symmetry_equiv_pos_as_xyz
  1  'x, y, z'
loop_
 _atom_site_type_symbol
 _atom_site_label
 _atom_site_symmetry_multiplicity
 _atom_site_fract_x
 _atom_site_fract_y
 _atom_site_fract_z
 _atom_site_occupancy
  Sc  Sc0  1  0.11006231  0.09339357  0.36758431  1
  Sc  Sc1  1  0.22586158  0.20919173  0.10807924  1
  Al  Al2  1  0.77656021  0.09426115  0.87884288  1
  Al  Al3  1  0.88663067  0.20675047  0.63210456  1
  Al  Al4  1  0.44711635  0.09522213  0.38352840  1
  Al  Al5  1  0.56030909  0.20332771  0.13106224  1
  Al  Al6  1  0.10752777  0.09086097  0.87709561  1
  Al  Al7  1  0.22257362  0.20590704  0.63458525  1
  Al  Al8  1  0.77405178  0.09474272  0.38101854  1
  Al  Al9  1  0.87948288  0.20823479  0.12681404  1
  Al  Al10  1  0.45434414  0.08945248  0.87421251  1
  Al  Al11  1  0.55595352  0.20746752  0.62857692  1
  Al  Al12  1  0.11188904  0.43044957  0.38352880  1
  Al  Al13  1  0.21999476  0.54364260  0.13106234  1
  Al  Al14  1  0.77685272  0.42959674  0.87866779  1
  Al  Al15  1  0.88666012  0.54053481  0.62804050  1
  Al  Al16  1  0.44460569  0.42793896  0.37753961  1
  Al  Al17  1  0.55594811  0.53928175  0.12889827  1
  Al  Al18  1  0.10611925  0.43767746  0.87421175  1
  Al  Al19  1  0.22413412  0.53928685  0.62857689  1
  Al  Al20  1  0.77300137  0.43081886  0.38058892  1
  Al  Al21  1  0.88613340  0.54266525  0.13094862  1
  Al  Al22  1  0.44438980  0.42772299  0.88084327  1
  Al  Al23  1  0.55497095  0.53830434  0.63066109  1
  Al  Al24  1  0.11140958  0.75738531  0.38101854  1
  Al  Al25  1  0.22490179  0.86281618  0.12681460  1
  Al  Al26  1  0.77742706  0.76076062  0.88101101  1
  Al  Al27  1  0.88853118  0.87186447  0.63025635  1
  Al  Al28  1  0.44748524  0.75633501  0.38058885  1
  Al  Al29  1  0.55933143  0.86946726  0.13094862  1
  Al  Al30  1  0.11092782  0.75989358  0.87884283  1
  Al  Al31  1  0.22341716  0.86996400  0.63210425  1
  Al  Al32  1  0.77826239  0.76159598  0.37860881  1
  Al  Al33  1  0.88911062  0.87244412  0.12829626  1
  Al  Al34  1  0.44626346  0.76018614  0.87866787  1
  Al  Al35  1  0.55720150  0.86999334  0.62804054  1
  N  N36  1  0.23231610  0.21565008  0.33203659  1
  N  N37  1  0.10067030  0.08400419  0.08395892  1
  N  N38  1  0.88584325  0.20720121  0.83123529  1
  N  N39  1  0.77824358  0.09364039  0.58067839  1
  N  N40  1  0.55550851  0.20487749  0.33111055  1
  N  N41  1  0.47018557  0.08138502  0.07168764  1
  N  N42  1  0.22277443  0.20610801  0.84178250  1
  N  N43  1  0.11100191  0.09433545  0.59326439  1
  N  N44  1  0.86576169  0.21695835  0.32544944  1
  N  N45  1  0.77705115  0.09337004  0.07715873  1
  N  N46  1  0.55633408  0.20802869  0.82664978  1
  N  N47  1  0.44504350  0.09415552  0.58472501  1
  N  N48  1  0.22154402  0.53884164  0.33111026  1
  N  N49  1  0.09805061  0.45352046  0.07168768  1
  N  N50  1  0.88560093  0.54126259  0.82628526  1
  N  N51  1  0.77658295  0.42818546  0.58041999  1
  N  N52  1  0.55561880  0.53895179  0.32821486  1
  N  N53  1  0.44378755  0.42712108  0.08157409  1
  N  N54  1  0.22469519  0.53966738  0.82664980  1
  N  N55  1  0.11082214  0.42837684  0.58472494  1
  N  N56  1  0.88929367  0.53785744  0.33184836  1
  N  N57  1  0.77759448  0.42984483  0.07777390  1
  N  N58  1  0.55501762  0.53835082  0.83014919  1
  N  N59  1  0.44489837  0.42823176  0.57717453  1
  N  N60  1  0.23362422  0.84909626  0.32544948  1
  N  N61  1  0.11003662  0.76038420  0.07715855  1
  N  N62  1  0.88833612  0.87166943  0.82983830  1
  N  N63  1  0.77825713  0.76159051  0.57745624  1
  N  N64  1  0.55452434  0.87262679  0.33184854  1
  N  N65  1  0.44651169  0.76092750  0.07777381  1
  N  N66  1  0.22386787  0.86917656  0.83123549  1
  N  N67  1  0.11030705  0.76157679  0.58067833  1
  N  N68  1  0.88950163  0.87283496  0.32903069  1
  N  N69  1  0.77766845  0.76100133  0.08105446  1
  N  N70  1  0.55792933  0.86893415  0.82628496  1
  N  N71  1  0.44485223  0.75991619  0.58042020  1
