# generated using pymatgen
data_ScAl17N18
_symmetry_space_group_name_H-M   'P 1'
_cell_length_a   9.53557907
_cell_length_b   9.53557883
_cell_length_c   9.88690297
_cell_angle_alpha   90.00103967
_cell_angle_beta   90.00104151
_cell_angle_gamma   60.02365332
_symmetry_Int_Tables_number   1
_chemical_formula_structural   ScAl17N18
_chemical_formula_sum   'Sc2 Al34 N36'
_cell_volume   778.73285659
_cell_formula_units_Z   2
loop_
 _symmetry_equiv_pos_site_id
 _symmetry_equiv_pos_as_xyz
  1  'x, y, z'
loop_
 _atom_site_type_symbol
 _atom_site_label
 _atom_site_symmetry_multiplicity
 _atom_site_fract_x
 _atom_site_fract_y
 _atom_site_fract_z
 _atom_site_occupancy
  Sc  Sc0  1  0.11020703  0.09354070  0.37595061  1
  Sc  Sc1  1  0.22529606  0.20862995  0.11427419  1
  Al  Al2  1  0.77666997  0.09419730  0.88223672  1
  Al  Al3  1  0.88664189  0.20679027  0.63575660  1
  Al  Al4  1  0.44716668  0.09520379  0.38559394  1
  Al  Al5  1  0.56018718  0.20374863  0.13342816  1
  Al  Al6  1  0.10753177  0.09086544  0.88110913  1
  Al  Al7  1  0.22283097  0.20616456  0.63906537  1
  Al  Al8  1  0.77400744  0.09503698  0.38300093  1
  Al  Al9  1  0.88032707  0.20770872  0.12969931  1
  Al  Al10  1  0.45356874  0.08986583  0.87875129  1
  Al  Al11  1  0.55606876  0.20680099  0.63167010  1
  Al  Al12  1  0.11186997  0.43050022  0.38559404  1
  Al  Al13  1  0.22041521  0.54352022  0.13342810  1
  Al  Al14  1  0.77673952  0.42938613  0.88191411  1
  Al  Al15  1  0.88727855  0.53997626  0.63136740  1
  Al  Al16  1  0.44444996  0.42778315  0.38115394  1
  Al  Al17  1  0.55572292  0.53905574  0.13220479  1
  Al  Al18  1  0.10653230  0.43690209  0.87875139  1
  Al  Al19  1  0.22346761  0.53940189  0.63167007  1
  Al  Al20  1  0.77336708  0.43064507  0.38270590  1
  Al  Al21  1  0.88584648  0.54306483  0.13313043  1
  Al  Al22  1  0.44443233  0.42776558  0.88266538  1
  Al  Al23  1  0.55520224  0.53853514  0.63274710  1
  Al  Al24  1  0.11170336  0.75734061  0.38300098  1
  Al  Al25  1  0.22437500  0.86366069  0.12969911  1
  Al  Al26  1  0.77755080  0.76088394  0.88301762  1
  Al  Al27  1  0.88876264  0.87209618  0.63257027  1
  Al  Al28  1  0.44731199  0.75669996  0.38270585  1
  Al  Al29  1  0.55973185  0.86917979  0.13313026  1
  Al  Al30  1  0.11086381  0.76000328  0.88223671  1
  Al  Al31  1  0.22345668  0.86997546  0.63575666  1
  Al  Al32  1  0.77810193  0.76143477  0.38209819  1
  Al  Al33  1  0.88899409  0.87232758  0.13129633  1
  Al  Al34  1  0.44605291  0.76007271  0.88191398  1
  Al  Al35  1  0.55664316  0.87061186  0.63136747  1
  N  N36  1  0.23202516  0.21535804  0.32892949  1
  N  N37  1  0.10035130  0.08368425  0.07790910  1
  N  N38  1  0.88560358  0.20724653  0.82840767  1
  N  N39  1  0.77830935  0.09400977  0.57692603  1
  N  N40  1  0.55533305  0.20524495  0.32750216  1
  N  N41  1  0.47001385  0.08150145  0.06920472  1
  N  N42  1  0.22285882  0.20619207  0.83916686  1
  N  N43  1  0.11122020  0.09455314  0.59235451  1
  N  N44  1  0.86691059  0.21646335  0.32147510  1
  N  N45  1  0.77715180  0.09335103  0.07462876  1
  N  N46  1  0.55636340  0.20736698  0.82401940  1
  N  N47  1  0.44478270  0.09430041  0.58061100  1
  N  N48  1  0.22191170  0.53866664  0.32750212  1
  N  N49  1  0.09816851  0.45334692  0.06920479  1
  N  N50  1  0.88618542  0.54061892  0.82386636  1
  N  N51  1  0.77712163  0.42785153  0.57677976  1
  N  N52  1  0.55542491  0.53875880  0.32570184  1
  N  N53  1  0.44387726  0.42721072  0.07761922  1
  N  N54  1  0.22403366  0.53969684  0.82401940  1
  N  N55  1  0.11096722  0.42811604  0.58061106  1
  N  N56  1  0.88917138  0.53818546  0.32812006  1
  N  N57  1  0.77744683  0.42969751  0.07521504  1
  N  N58  1  0.55520559  0.53853917  0.82647182  1
  N  N59  1  0.44471556  0.42804904  0.57501304  1
  N  N60  1  0.23313040  0.85024358  0.32147501  1
  N  N61  1  0.11001787  0.76048518  0.07462882  1
  N  N62  1  0.88857657  0.87190984  0.82644036  1
  N  N63  1  0.77811621  0.76144975  0.57527100  1
  N  N64  1  0.55485190  0.87250478  0.32812006  1
  N  N65  1  0.44636399  0.76078037  0.07521513  1
  N  N66  1  0.22391328  0.86893685  0.82840763  1
  N  N67  1  0.11067656  0.76164271  0.57692600  1
  N  N68  1  0.88932127  0.87265454  0.32627951  1
  N  N69  1  0.77779900  0.76113263  0.07703201  1
  N  N70  1  0.55728548  0.86951877  0.82386632  1
  N  N71  1  0.44451803  0.76045514  0.57677970  1
