# generated using pymatgen
data_ScAl17N18
_symmetry_space_group_name_H-M   'P 1'
_cell_length_a   10.01262088
_cell_length_b   10.01262677
_cell_length_c   8.45052545
_cell_angle_alpha   90.02584836
_cell_angle_beta   90.02584896
_cell_angle_gamma   60.01505038
_symmetry_Int_Tables_number   1
_chemical_formula_structural   ScAl17N18
_chemical_formula_sum   'Sc2 Al34 N36'
_cell_volume   733.79699878
_cell_formula_units_Z   2
loop_
 _symmetry_equiv_pos_site_id
 _symmetry_equiv_pos_as_xyz
  1  'x, y, z'
loop_
 _atom_site_type_symbol
 _atom_site_label
 _atom_site_symmetry_multiplicity
 _atom_site_fract_x
 _atom_site_fract_y
 _atom_site_fract_z
 _atom_site_occupancy
  Sc  Sc0  1  0.10850345  0.09183627  0.35761115  1
  Sc  Sc1  1  0.22493278  0.20826668  0.10062293  1
  Al  Al2  1  0.77701480  0.09371547  0.85608886  1
  Al  Al3  1  0.88331653  0.20832621  0.61033476  1
  Al  Al4  1  0.45041664  0.09306909  0.36116322  1
  Al  Al5  1  0.55942573  0.20490011  0.10674200  1
  Al  Al6  1  0.10897141  0.09230470  0.85243131  1
  Al  Al7  1  0.22420040  0.20753377  0.60783854  1
  Al  Al8  1  0.77418729  0.09446985  0.35861056  1
  Al  Al9  1  0.88227462  0.20722135  0.10289006  1
  Al  Al10  1  0.45071552  0.09127772  0.85201761  1
  Al  Al11  1  0.55605356  0.20686857  0.60767787  1
  Al  Al12  1  0.10973570  0.43375001  0.36116322  1
  Al  Al13  1  0.22156671  0.54275909  0.10674201  1
  Al  Al14  1  0.77677271  0.42955768  0.85637289  1
  Al  Al15  1  0.88685835  0.54034434  0.60713932  1
  Al  Al16  1  0.44463938  0.42797269  0.35704389  1
  Al  Al17  1  0.55560594  0.53893920  0.10595074  1
  Al  Al18  1  0.10794432  0.43404892  0.85201762  1
  Al  Al19  1  0.22353523  0.53938690  0.60767788  1
  Al  Al20  1  0.77357036  0.43105491  0.35807282  1
  Al  Al21  1  0.88571581  0.54261299  0.10714584  1
  Al  Al22  1  0.44448995  0.42782329  0.85735389  1
  Al  Al23  1  0.55520647  0.53853975  0.60881547  1
  Al  Al24  1  0.11113651  0.75752056  0.35861057  1
  Al  Al25  1  0.22388804  0.86560787  0.10289002  1
  Al  Al26  1  0.77777412  0.76110748  0.85681460  1
  Al  Al27  1  0.88861112  0.87194451  0.60825359  1
  Al  Al28  1  0.44772167  0.75690357  0.35807283  1
  Al  Al29  1  0.55927959  0.86904920  0.10714583  1
  Al  Al30  1  0.11038210  0.76034812  0.85608886  1
  Al  Al31  1  0.22499292  0.86664979  0.61033481  1
  Al  Al32  1  0.77804339  0.76137676  0.35764558  1
  Al  Al33  1  0.88887906  0.87221243  0.10619746  1
  Al  Al34  1  0.44622441  0.76010598  0.85637290  1
  Al  Al35  1  0.55701094  0.87019176  0.60713933  1
  N  N36  1  0.23071346  0.21404690  0.36134716  1
  N  N37  1  0.10260840  0.08594158  0.09548105  1
  N  N38  1  0.88552441  0.20742778  0.85101944  1
  N  N39  1  0.77746240  0.09299664  0.60351681  1
  N  N40  1  0.55576962  0.20603864  0.35326938  1
  N  N41  1  0.46442490  0.08445186  0.09867876  1
  N  N42  1  0.22326875  0.20660220  0.84422513  1
  N  N43  1  0.10999159  0.09332476  0.61289134  1
  N  N44  1  0.86892446  0.21536539  0.35278241  1
  N  N45  1  0.77749000  0.09349791  0.09949614  1
  N  N46  1  0.55600222  0.20738350  0.84948969  1
  N  N47  1  0.44780073  0.09264750  0.60429639  1
  N  N48  1  0.22270524  0.53910301  0.35326940  1
  N  N49  1  0.10111852  0.44775825  0.09867873  1
  N  N50  1  0.88658406  0.54087335  0.84925470  1
  N  N51  1  0.77595734  0.42953806  0.60340146  1
  N  N52  1  0.55548684  0.53882015  0.35020956  1
  N  N53  1  0.44404863  0.42738194  0.10245279  1
  N  N54  1  0.22405010  0.53933563  0.84948967  1
  N  N55  1  0.10931418  0.43113404  0.60429640  1
  N  N56  1  0.88795286  0.53876746  0.35369280  1
  N  N57  1  0.77765441  0.42917063  0.09962038  1
  N  N58  1  0.55506287  0.53839620  0.85260259  1
  N  N59  1  0.44489663  0.42822991  0.60041167  1
  N  N60  1  0.23203208  0.85225772  0.35278236  1
  N  N61  1  0.11016459  0.76082328  0.09949612  1
  N  N62  1  0.88836800  0.87170145  0.85197743  1
  N  N63  1  0.77822289  0.76155623  0.60015025  1
  N  N64  1  0.55543399  0.87128630  0.35369277  1
  N  N65  1  0.44583742  0.76098760  0.09962032  1
  N  N66  1  0.22409442  0.86885775  0.85101946  1
  N  N67  1  0.10966333  0.76079567  0.60351685  1
  N  N68  1  0.88929683  0.87263022  0.35114292  1
  N  N69  1  0.77783112  0.76116447  0.10288271  1
  N  N70  1  0.55753989  0.86991754  0.84925470  1
  N  N71  1  0.44620485  0.75929054  0.60340143  1
