# generated using pymatgen
data_ScAl17N18
_symmetry_space_group_name_H-M   'P 1'
_cell_length_a   9.89039408
_cell_length_b   9.89039467
_cell_length_c   8.81832618
_cell_angle_alpha   90.02394001
_cell_angle_beta   90.02394079
_cell_angle_gamma   60.01620798
_symmetry_Int_Tables_number   1
_chemical_formula_structural   ScAl17N18
_chemical_formula_sum   'Sc2 Al34 N36'
_cell_volume   747.16215398
_cell_formula_units_Z   2
loop_
 _symmetry_equiv_pos_site_id
 _symmetry_equiv_pos_as_xyz
  1  'x, y, z'
loop_
 _atom_site_type_symbol
 _atom_site_label
 _atom_site_symmetry_multiplicity
 _atom_site_fract_x
 _atom_site_fract_y
 _atom_site_fract_z
 _atom_site_occupancy
  Sc  Sc0  1  0.10879910  0.09213205  0.35884678  1
  Sc  Sc1  1  0.22538326  0.20871668  0.10136775  1
  Al  Al2  1  0.77645494  0.09422044  0.86660609  1
  Al  Al3  1  0.88444189  0.20777049  0.62065038  1
  Al  Al4  1  0.44911715  0.09388113  0.37381006  1
  Al  Al5  1  0.55997475  0.20355045  0.11946283  1
  Al  Al6  1  0.10881847  0.09215179  0.85776040  1
  Al  Al7  1  0.22347161  0.20680496  0.61590079  1
  Al  Al8  1  0.77443629  0.09414885  0.37063638  1
  Al  Al9  1  0.88112119  0.20769847  0.11326821  1
  Al  Al10  1  0.45226584  0.09051068  0.85972268  1
  Al  Al11  1  0.55591210  0.20803734  0.61759154  1
  Al  Al12  1  0.11054778  0.43245049  0.37381006  1
  Al  Al13  1  0.22021710  0.54330811  0.11946283  1
  Al  Al14  1  0.77707274  0.42977229  0.86679243  1
  Al  Al15  1  0.88598942  0.54131238  0.61669310  1
  Al  Al16  1  0.44487602  0.42820937  0.36548672  1
  Al  Al17  1  0.55612556  0.53945891  0.11629682  1
  Al  Al18  1  0.10717734  0.43559919  0.85972268  1
  Al  Al19  1  0.22470399  0.53924546  0.61759154  1
  Al  Al20  1  0.77295491  0.43097165  0.36993015  1
  Al  Al21  1  0.88637180  0.54189058  0.11984977  1
  Al  Al22  1  0.44426206  0.42759541  0.87072035  1
  Al  Al23  1  0.55475775  0.53809112  0.62078671  1
  Al  Al24  1  0.11081550  0.75776960  0.37063638  1
  Al  Al25  1  0.22436514  0.86445450  0.11326814  1
  Al  Al26  1  0.77736729  0.76070063  0.87033394  1
  Al  Al27  1  0.88825847  0.87159181  0.61993919  1
  Al  Al28  1  0.44763835  0.75628821  0.36993014  1
  Al  Al29  1  0.55855721  0.86970516  0.11984978  1
  Al  Al30  1  0.11088710  0.75978827  0.86660610  1
  Al  Al31  1  0.22443716  0.86777520  0.62065045  1
  Al  Al32  1  0.77842352  0.76175687  0.36660096  1
  Al  Al33  1  0.88923728  0.87257062  0.11639140  1
  Al  Al34  1  0.44643896  0.76040607  0.86679245  1
  Al  Al35  1  0.55797902  0.86932276  0.61669309  1
  N  N36  1  0.23122772  0.21456105  0.35263512  1
  N  N37  1  0.10206651  0.08539978  0.09299360  1
  N  N38  1  0.88560074  0.20746032  0.84252924  1
  N  N39  1  0.77798391  0.09304684  0.59319501  1
  N  N40  1  0.55582591  0.20488890  0.34300586  1
  N  N41  1  0.46653402  0.08324717  0.08412125  1
  N  N42  1  0.22307116  0.20640454  0.84325960  1
  N  N43  1  0.11020685  0.09354011  0.60716487  1
  N  N44  1  0.86732917  0.21605941  0.33975048  1
  N  N45  1  0.77709249  0.09344046  0.08786060  1
  N  N46  1  0.55599619  0.20850942  0.83777293  1
  N  N47  1  0.44712469  0.09309776  0.59739811  1
  N  N48  1  0.22155554  0.53915929  0.34300586  1
  N  N49  1  0.09991384  0.44986738  0.08412125  1
  N  N50  1  0.88550457  0.54172176  0.83714425  1
  N  N51  1  0.77579408  0.42900920  0.59277287  1
  N  N52  1  0.55579820  0.53913159  0.33841220  1
  N  N53  1  0.44380416  0.42713752  0.09400064  1
  N  N54  1  0.22517606  0.53932955  0.83777292  1
  N  N55  1  0.10976443  0.43045803  0.59739811  1
  N  N56  1  0.88898862  0.53782850  0.34402089  1
  N  N57  1  0.77788522  0.42966759  0.08848398  1
  N  N58  1  0.55479469  0.53812806  0.84270015  1
  N  N59  1  0.44511651  0.42844986  0.58731648  1
  N  N60  1  0.23272615  0.85066237  0.33975044  1
  N  N61  1  0.11010714  0.76042581  0.08786061  1
  N  N62  1  0.88805562  0.87138896  0.84177011  1
  N  N63  1  0.77843645  0.76176979  0.58748015  1
  N  N64  1  0.55449512  0.87232198  0.34402092  1
  N  N65  1  0.44633424  0.76121855  0.08848401  1
  N  N66  1  0.22412699  0.86893407  0.84252925  1
  N  N67  1  0.10971352  0.76131724  0.59319498  1
  N  N68  1  0.88964225  0.87297558  0.33979808  1
  N  N69  1  0.77758452  0.76091787  0.09379860  1
  N  N70  1  0.55838840  0.86883791  0.83714423  1
  N  N71  1  0.44567584  0.75912742  0.59277282  1
