# generated using pymatgen
data_ScAl17N18
_symmetry_space_group_name_H-M   'P 1'
_cell_length_a   9.93244537
_cell_length_b   9.93245955
_cell_length_c   8.68703227
_cell_angle_alpha   90.02467373
_cell_angle_beta   90.02467407
_cell_angle_gamma   60.01531860
_symmetry_Int_Tables_number   1
_chemical_formula_structural   ScAl17N18
_chemical_formula_sum   'Sc2 Al34 N36'
_cell_volume   742.30437517
_cell_formula_units_Z   2
loop_
 _symmetry_equiv_pos_site_id
 _symmetry_equiv_pos_as_xyz
  1  'x, y, z'
loop_
 _atom_site_type_symbol
 _atom_site_label
 _atom_site_symmetry_multiplicity
 _atom_site_fract_x
 _atom_site_fract_y
 _atom_site_fract_z
 _atom_site_occupancy
  Sc  Sc0  1  0.10806855  0.09140039  0.35758121  1
  Sc  Sc1  1  0.22467000  0.20799981  0.10030377  1
  Al  Al2  1  0.77739723  0.09217612  0.84378324  1
  Al  Al3  1  0.88160728  0.20918619  0.60148165  1
  Al  Al4  1  0.45175573  0.09244051  0.34866151  1
  Al  Al5  1  0.55888816  0.20582411  0.09112198  1
  Al  Al6  1  0.10961286  0.09294585  0.84583127  1
  Al  Al7  1  0.22435379  0.20768736  0.60311548  1
  Al  Al8  1  0.77346826  0.09607799  0.34257256  1
  Al  Al9  1  0.88379894  0.20636222  0.08816450  1
  Al  Al10  1  0.44918235  0.09205513  0.84101402  1
  Al  Al11  1  0.55673558  0.20585332  0.59508486  1
  Al  Al12  1  0.10910742  0.43508902  0.34866194  1
  Al  Al13  1  0.22249090  0.54222190  0.09112192  1
  Al  Al14  1  0.77550880  0.43045519  0.84464242  1
  Al  Al15  1  0.88693592  0.53958758  0.59486626  1
  Al  Al16  1  0.44413695  0.42747000  0.34520011  1
  Al  Al17  1  0.55495293  0.53828662  0.09459384  1
  Al  Al18  1  0.10872198  0.43251563  0.84101355  1
  Al  Al19  1  0.22251986  0.54006907  0.59508489  1
  Al  Al20  1  0.77464202  0.43043885  0.34215791  1
  Al  Al21  1  0.88563492  0.54355017  0.09183194  1
  Al  Al22  1  0.44499262  0.42832558  0.84172120  1
  Al  Al23  1  0.55585796  0.53919147  0.59181141  1
  Al  Al24  1  0.11274486  0.75680158  0.34257259  1
  Al  Al25  1  0.22302901  0.86713240  0.08816459  1
  Al  Al26  1  0.77847052  0.76180405  0.84088485  1
  Al  Al27  1  0.88901687  0.87235050  0.59133669  1
  Al  Al28  1  0.44710568  0.75797529  0.34215779  1
  Al  Al29  1  0.56021610  0.86896897  0.09183191  1
  Al  Al30  1  0.10884289  0.76073056  0.84378321  1
  Al  Al31  1  0.22585279  0.86494070  0.60148153  1
  Al  Al32  1  0.77728438  0.76061796  0.34535086  1
  Al  Al33  1  0.88845785  0.87179156  0.09559652  1
  Al  Al34  1  0.44712207  0.75884205  0.84464252  1
  Al  Al35  1  0.55625396  0.87026948  0.59486629  1
  N  N36  1  0.23101573  0.21434984  0.36439585  1
  N  N37  1  0.10228218  0.08561536  0.10224711  1
  N  N38  1  0.88593082  0.20702984  0.85863421  1
  N  N39  1  0.77735866  0.09170962  0.61733146  1
  N  N40  1  0.55610498  0.20651295  0.36732614  1
  N  N41  1  0.46542982  0.08418405  0.11469636  1
  N  N42  1  0.22318328  0.20651721  0.84908371  1
  N  N43  1  0.11019912  0.09353217  0.61493665  1
  N  N44  1  0.86756379  0.21629650  0.37016945  1
  N  N45  1  0.77747222  0.09482110  0.11235580  1
  N  N46  1  0.55545289  0.20696890  0.86203057  1
  N  N47  1  0.44764501  0.09255258  0.61313146  1
  N  N48  1  0.22317926  0.53943859  0.36732611  1
  N  N49  1  0.10085024  0.44876421  0.11469635  1
  N  N50  1  0.88747367  0.54085669  0.86240785  1
  N  N51  1  0.77510305  0.43085613  0.61789930  1
  N  N52  1  0.55567350  0.53900697  0.36177946  1
  N  N53  1  0.44373568  0.42706874  0.11540055  1
  N  N54  1  0.22363520  0.53878652  0.86203064  1
  N  N55  1  0.10921949  0.43097813  0.61313158  1
  N  N56  1  0.88711900  0.53877922  0.36678380  1
  N  N57  1  0.77860627  0.42791034  0.11142617  1
  N  N58  1  0.55491094  0.53824450  0.86749809  1
  N  N59  1  0.44520556  0.42853857  0.61358562  1
  N  N60  1  0.23296267  0.85089750  0.37016947  1
  N  N61  1  0.11148797  0.76080518  0.11235575  1
  N  N62  1  0.88822808  0.87156178  0.86756423  1
  N  N63  1  0.77847097  0.76180400  0.61266054  1
  N  N64  1  0.55544550  0.87045264  0.36678392  1
  N  N65  1  0.44457743  0.76193903  0.11142611  1
  N  N66  1  0.22369615  0.86926446  0.85863417  1
  N  N67  1  0.10837658  0.76069161  0.61733151  1
  N  N68  1  0.88944946  0.87278312  0.36174438  1
  N  N69  1  0.77757357  0.76090651  0.11678147  1
  N  N70  1  0.55752301  0.87080730  0.86240769  1
  N  N71  1  0.44752317  0.75843592  0.61789934  1
