# generated using pymatgen
data_ScAl17N18
_symmetry_space_group_name_H-M   'P 1'
_cell_length_a   9.49702991
_cell_length_b   9.49702487
_cell_length_c   9.99183506
_cell_angle_alpha   89.98576136
_cell_angle_beta   89.98574455
_cell_angle_gamma   60.02355839
_symmetry_Int_Tables_number   1
_chemical_formula_structural   ScAl17N18
_chemical_formula_sum   'Sc2 Al34 N36'
_cell_volume   780.64628922
_cell_formula_units_Z   2
loop_
 _symmetry_equiv_pos_site_id
 _symmetry_equiv_pos_as_xyz
  1  'x, y, z'
loop_
 _atom_site_type_symbol
 _atom_site_label
 _atom_site_symmetry_multiplicity
 _atom_site_fract_x
 _atom_site_fract_y
 _atom_site_fract_z
 _atom_site_occupancy
  Sc  Sc0  1  0.10861449  0.09194776  0.32137078  1
  Sc  Sc1  1  0.22342879  0.20676203  0.05879612  1
  Al  Al2  1  0.77708411  0.09339207  0.80684191  1
  Al  Al3  1  0.88059754  0.20963325  0.55940445  1
  Al  Al4  1  0.45219992  0.09274291  0.30932201  1
  Al  Al5  1  0.55930120  0.20477771  0.05622009  1
  Al  Al6  1  0.11014640  0.09347962  0.79942434  1
  Al  Al7  1  0.22550367  0.20883693  0.55845217  1
  Al  Al8  1  0.77338561  0.09601161  0.30557950  1
  Al  Al9  1  0.88586414  0.20502190  0.05295176  1
  Al  Al10  1  0.44714420  0.09288021  0.80214264  1
  Al  Al11  1  0.55667241  0.20583012  0.55616903  1
  Al  Al12  1  0.10940953  0.43553329  0.30932198  1
  Al  Al13  1  0.22144430  0.54263455  0.05622017  1
  Al  Al14  1  0.77677425  0.42918022  0.80704407  1
  Al  Al15  1  0.88722624  0.54001542  0.55651986  1
  Al  Al16  1  0.44438464  0.42771791  0.30736371  1
  Al  Al17  1  0.55526357  0.53859690  0.05645134  1
  Al  Al18  1  0.10954691  0.43047747  0.80214260  1
  Al  Al19  1  0.22249688  0.54000551  0.55616891  1
  Al  Al20  1  0.77354595  0.43080185  0.30589844  1
  Al  Al21  1  0.88614783  0.54301422  0.05644360  1
  Al  Al22  1  0.44441353  0.42774680  0.80640882  1
  Al  Al23  1  0.55569211  0.53902528  0.55602560  1
  Al  Al24  1  0.11267840  0.75671878  0.30557937  1
  Al  Al25  1  0.22168864  0.86919739  0.05295193  1
  Al  Al26  1  0.77798090  0.76131427  0.80631673  1
  Al  Al27  1  0.88884496  0.87217835  0.55640300  1
  Al  Al28  1  0.44746848  0.75687940  0.30589844  1
  Al  Al29  1  0.55968090  0.86948114  0.05644369  1
  Al  Al30  1  0.11005868  0.76041743  0.80684169  1
  Al  Al31  1  0.22630014  0.86393075  0.55940428  1
  Al  Al32  1  0.77766785  0.76100104  0.30637096  1
  Al  Al33  1  0.88892760  0.87226099  0.05735309  1
  Al  Al34  1  0.44584681  0.76010762  0.80704420  1
  Al  Al35  1  0.55668207  0.87055962  0.55651985  1
  N  N36  1  0.23293731  0.21627040  0.36457977  1
  N  N37  1  0.10188391  0.08521764  0.10931633  1
  N  N38  1  0.88823430  0.20575343  0.85988659  1
  N  N39  1  0.77697827  0.09285277  0.61606486  1
  N  N40  1  0.55619947  0.20669316  0.36544880  1
  N  N41  1  0.46538551  0.08397996  0.11930739  1
  N  N42  1  0.22212237  0.20545568  0.84530990  1
  N  N43  1  0.11028273  0.09361632  0.60212272  1
  N  N44  1  0.86430747  0.21797131  0.37078925  1
  N  N45  1  0.77814984  0.09458698  0.11312852  1
  N  N46  1  0.55492233  0.20574209  0.86377913  1
  N  N47  1  0.44818345  0.09248060  0.61159605  1
  N  N48  1  0.22335988  0.53953276  0.36544887  1
  N  N49  1  0.10064662  0.44871883  0.11930738  1
  N  N50  1  0.88890908  0.53923806  0.86386798  1
  N  N51  1  0.77630407  0.43016271  0.61613001  1
  N  N52  1  0.55545092  0.53878408  0.36366582  1
  N  N53  1  0.44405173  0.42738510  0.11398312  1
  N  N54  1  0.22240871  0.53825581  0.86377889  1
  N  N55  1  0.10914733  0.43151685  0.61159612  1
  N  N56  1  0.88700472  0.53924203  0.36486900  1
  N  N57  1  0.77828523  0.42749008  0.11251413  1
  N  N58  1  0.55521111  0.53854466  0.86480681  1
  N  N59  1  0.44461215  0.42794574  0.61407914  1
  N  N60  1  0.23463803  0.84764095  0.37078918  1
  N  N61  1  0.11125356  0.76148314  0.11312893  1
  N  N62  1  0.88863825  0.87197137  0.86506275  1
  N  N63  1  0.77800848  0.76134181  0.61413200  1
  N  N64  1  0.55590878  0.87033804  0.36486890  1
  N  N65  1  0.44415670  0.76161877  0.11251394  1
  N  N66  1  0.22242028  0.87156763  0.85988588  1
  N  N67  1  0.10951934  0.76031170  0.61606541  1
  N  N68  1  0.88935584  0.87268923  0.36304421  1
  N  N69  1  0.77796168  0.76129517  0.11449364  1
  N  N70  1  0.55590482  0.87224245  0.86386778  1
  N  N71  1  0.44682918  0.75963757  0.61612988  1
