# generated using pymatgen
data_ScAl17N18
_symmetry_space_group_name_H-M   'P 1'
_cell_length_a   9.49939753
_cell_length_b   9.49941637
_cell_length_c   9.98533360
_cell_angle_alpha   89.98801524
_cell_angle_beta   89.98803602
_cell_angle_gamma   60.02396291
_symmetry_Int_Tables_number   1
_chemical_formula_structural   ScAl17N18
_chemical_formula_sum   'Sc2 Al34 N36'
_cell_volume   780.53251762
_cell_formula_units_Z   2
loop_
 _symmetry_equiv_pos_site_id
 _symmetry_equiv_pos_as_xyz
  1  'x, y, z'
loop_
 _atom_site_type_symbol
 _atom_site_label
 _atom_site_symmetry_multiplicity
 _atom_site_fract_x
 _atom_site_fract_y
 _atom_site_fract_z
 _atom_site_occupancy
  Sc  Sc0  1  0.10992202  0.09325483  0.38353011  1
  Sc  Sc1  1  0.22474882  0.20808240  0.12099210  1
  Al  Al2  1  0.77664576  0.09415328  0.88641307  1
  Al  Al3  1  0.88620589  0.20707642  0.64039796  1
  Al  Al4  1  0.44743334  0.09498026  0.38962183  1
  Al  Al5  1  0.55995396  0.20395736  0.13704339  1
  Al  Al6  1  0.10778862  0.09112181  0.88421283  1
  Al  Al7  1  0.22314559  0.20647909  0.64317095  1
  Al  Al8  1  0.77401951  0.09519075  0.38641719  1
  Al  Al9  1  0.88106581  0.20727171  0.13330276  1
  Al  Al10  1  0.45278360  0.09030912  0.88316418  1
  Al  Al11  1  0.55621794  0.20659865  0.63574322  1
  Al  Al12  1  0.11164717  0.43076648  0.38962177  1
  Al  Al13  1  0.22062393  0.54328746  0.13704342  1
  Al  Al14  1  0.77663915  0.42941576  0.88606275  1
  Al  Al15  1  0.88745669  0.53987461  0.63553408  1
  Al  Al16  1  0.44439223  0.42772536  0.38523922  1
  Al  Al17  1  0.55565155  0.53898504  0.13622341  1
  Al  Al18  1  0.10697594  0.43611687  0.88316419  1
  Al  Al19  1  0.22326521  0.53955143  0.63574320  1
  Al  Al20  1  0.77361631  0.43051062  0.38618757  1
  Al  Al21  1  0.88584282  0.54310496  0.13672435  1
  Al  Al22  1  0.44446559  0.42779879  0.88621718  1
  Al  Al23  1  0.55532364  0.53865711  0.63630801  1
  Al  Al24  1  0.11185759  0.75735270  0.38641720  1
  Al  Al25  1  0.22393824  0.86439931  0.13330287  1
  Al  Al26  1  0.77761590  0.76094910  0.88659432  1
  Al  Al27  1  0.88889004  0.87222347  0.63621191  1
  Al  Al28  1  0.44717741  0.75694954  0.38618760  1
  Al  Al29  1  0.55977142  0.86917630  0.13672437  1
  Al  Al30  1  0.11082011  0.75997895  0.88641311  1
  Al  Al31  1  0.22374298  0.86953934  0.64039796  1
  Al  Al32  1  0.77805390  0.76138710  0.38614435  1
  Al  Al33  1  0.88893456  0.87226807  0.13523452  1
  Al  Al34  1  0.44608253  0.75997234  0.88606280  1
  Al  Al35  1  0.55654114  0.87079012  0.63553414  1
  N  N36  1  0.23148338  0.21481696  0.33319800  1
  N  N37  1  0.10037445  0.08370756  0.07825946  1
  N  N38  1  0.88516488  0.20748022  0.83107516  1
  N  N39  1  0.77838532  0.09422000  0.57894347  1
  N  N40  1  0.55518379  0.20538822  0.32958976  1
  N  N41  1  0.46909542  0.08196717  0.07188603  1
  N  N42  1  0.22302013  0.20635371  0.84065790  1
  N  N43  1  0.11119665  0.09452977  0.59719418  1
  N  N44  1  0.86786561  0.21603176  0.32342141  1
  N  N45  1  0.77712311  0.09329281  0.07723282  1
  N  N46  1  0.55633952  0.20714023  0.82661392  1
  N  N47  1  0.44505298  0.09423284  0.58281109  1
  N  N48  1  0.22205474  0.53851736  0.32958971  1
  N  N49  1  0.09863402  0.45242869  0.07188596  1
  N  N50  1  0.88646422  0.54035835  0.82654347  1
  N  N51  1  0.77738825  0.42774357  0.57884971  1
  N  N52  1  0.55535702  0.53869061  0.32819711  1
  N  N53  1  0.44395300  0.42728613  0.07967132  1
  N  N54  1  0.22380670  0.53967312  0.82661377  1
  N  N55  1  0.11089974  0.42838614  0.58281102  1
  N  N56  1  0.88915668  0.53835262  0.33020339  1
  N  N57  1  0.77740821  0.42964614  0.07781372  1
  N  N58  1  0.55529783  0.53863145  0.82858240  1
  N  N59  1  0.44467629  0.42800941  0.57762226  1
  N  N60  1  0.23269817  0.85119920  0.32342147  1
  N  N61  1  0.10995969  0.76045627  0.07723285  1
  N  N62  1  0.88869262  0.87202613  0.82863111  1
  N  N63  1  0.77810125  0.76143443  0.57787858  1
  N  N64  1  0.55501906  0.87249021  0.33020340  1
  N  N65  1  0.44631295  0.76074133  0.07781372  1
  N  N66  1  0.22414669  0.86849841  0.83107510  1
  N  N67  1  0.11088686  0.76171846  0.57894347  1
  N  N68  1  0.88926563  0.87259916  0.32871186  1
  N  N69  1  0.77785977  0.76119301  0.07905121  1
  N  N70  1  0.55702476  0.86979776  0.82654351  1
  N  N71  1  0.44441045  0.76072139  0.57884966  1
