# generated using pymatgen
data_ScAl17N18
_symmetry_space_group_name_H-M   'P 1'
_cell_length_a   10.01206483
_cell_length_b   10.01207437
_cell_length_c   8.45195159
_cell_angle_alpha   90.02585854
_cell_angle_beta   90.02585866
_cell_angle_gamma   60.01504686
_symmetry_Int_Tables_number   1
_chemical_formula_structural   ScAl17N18
_chemical_formula_sum   'Sc2 Al34 N36'
_cell_volume   733.83956386
_cell_formula_units_Z   2
loop_
 _symmetry_equiv_pos_site_id
 _symmetry_equiv_pos_as_xyz
  1  'x, y, z'
loop_
 _atom_site_type_symbol
 _atom_site_label
 _atom_site_symmetry_multiplicity
 _atom_site_fract_x
 _atom_site_fract_y
 _atom_site_fract_z
 _atom_site_occupancy
  Sc  Sc0  1  0.10837312  0.09170817  0.35782429  1
  Sc  Sc1  1  0.22480265  0.20813917  0.10083456  1
  Al  Al2  1  0.77725513  0.09310219  0.85073463  1
  Al  Al3  1  0.88259051  0.20869822  0.60640767  1
  Al  Al4  1  0.45103489  0.09275297  0.35552571  1
  Al  Al5  1  0.55912029  0.20550761  0.09979498  1
  Al  Al6  1  0.10911150  0.09244480  0.85058749  1
  Al  Al7  1  0.22433615  0.20766928  0.60600411  1
  Al  Al8  1  0.77388137  0.09507877  0.35165972  1
  Al  Al9  1  0.88289757  0.20690330  0.09723704  1
  Al  Al10  1  0.44998644  0.09165173  0.84808191  1
  Al  Al11  1  0.55629528  0.20625746  0.60232096  1
  Al  Al12  1  0.10941939  0.43436828  0.35552509  1
  Al  Al13  1  0.22217383  0.54245347  0.09979490  1
  Al  Al14  1  0.77629363  0.42978674  0.85127316  1
  Al  Al15  1  0.88708401  0.53986756  0.60203832  1
  Al  Al16  1  0.44442797  0.42776114  0.35221415  1
  Al  Al17  1  0.55526394  0.53859680  0.10077185  1
  Al  Al18  1  0.10831831  0.43331985  0.84808257  1
  Al  Al19  1  0.22292430  0.53962863  0.60232104  1
  Al  Al20  1  0.77403264  0.43092303  0.35125751  1
  Al  Al21  1  0.88558669  0.54307283  0.10033275  1
  Al  Al22  1  0.44469855  0.42803196  0.85015306  1
  Al  Al23  1  0.55553573  0.53886891  0.60158424  1
  Al  Al24  1  0.11174530  0.75721443  0.35165957  1
  Al  Al25  1  0.22356955  0.86623094  0.09723675  1
  Al  Al26  1  0.77810367  0.76143664  0.84958952  1
  Al  Al27  1  0.88881916  0.87215272  0.60104663  1
  Al  Al28  1  0.44759007  0.75736549  0.35125761  1
  Al  Al29  1  0.55973994  0.86891957  0.10033271  1
  Al  Al30  1  0.10976899  0.76058825  0.85073479  1
  Al  Al31  1  0.22536489  0.86592385  0.60640798  1
  Al  Al32  1  0.77770084  0.76103377  0.35245873  1
  Al  Al33  1  0.88866822  0.87200137  0.10137255  1
  Al  Al34  1  0.44645345  0.75962670  0.85127304  1
  Al  Al35  1  0.55653413  0.87041764  0.60203837  1
  N  N36  1  0.23070178  0.21403499  0.36296459  1
  N  N37  1  0.10259339  0.08592617  0.09712127  1
  N  N38  1  0.88551169  0.20732527  0.85416812  1
  N  N39  1  0.77730673  0.09258691  0.60899855  1
  N  N40  1  0.55581944  0.20647626  0.35899048  1
  N  N41  1  0.46438927  0.08460731  0.10570176  1
  N  N42  1  0.22331541  0.20664875  0.84557118  1
  N  N43  1  0.11004160  0.09337467  0.61422115  1
  N  N44  1  0.86887767  0.21552626  0.35981932  1
  N  N45  1  0.77753887  0.09394127  0.10520993  1
  N  N46  1  0.55584330  0.20697902  0.85496175  1
  N  N47  1  0.44778063  0.09254866  0.60745235  1
  N  N48  1  0.22314299  0.53915298  0.35899065  1
  N  N49  1  0.10127458  0.44772196  0.10570184  1
  N  N50  1  0.88710528  0.54068574  0.85507816  1
  N  N51  1  0.77576519  0.43006122  0.60923439  1
  N  N52  1  0.55547843  0.53881206  0.35559169  1
  N  N53  1  0.44401021  0.42734328  0.10734410  1
  N  N54  1  0.22364574  0.53917677  0.85496164  1
  N  N55  1  0.10921549  0.43111385  0.60745230  1
  N  N56  1  0.88747032  0.53898542  0.35886441  1
  N  N57  1  0.77787891  0.42868378  0.10478397  1
  N  N58  1  0.55508432  0.53841780  0.85834209  1
  N  N59  1  0.44494196  0.42827508  0.60650063  1
  N  N60  1  0.23219325  0.85221060  0.35981930  1
  N  N61  1  0.11060817  0.76087229  0.10520994  1
  N  N62  1  0.88841035  0.87174384  0.85808236  1
  N  N63  1  0.77824679  0.76158004  0.60587404  1
  N  N64  1  0.55565175  0.87080392  0.35886429  1
  N  N65  1  0.44535055  0.76121226  0.10478401  1
  N  N66  1  0.22399195  0.86884509  0.85416811  1
  N  N67  1  0.10925375  0.76063993  0.60899851  1
  N  N68  1  0.88926091  0.87259434  0.35602001  1
  N  N69  1  0.77781988  0.76115365  0.10828054  1
  N  N70  1  0.55735215  0.87043888  0.85507829  1
  N  N71  1  0.44672804  0.75909836  0.60923434  1
