# generated using pymatgen
data_ScAl17N18
_symmetry_space_group_name_H-M   'P 1'
_cell_length_a   9.64631275
_cell_length_b   9.64630468
_cell_length_c   9.56962493
_cell_angle_alpha   90.01403676
_cell_angle_beta   90.01392555
_cell_angle_gamma   60.02235754
_symmetry_Int_Tables_number   1
_chemical_formula_structural   ScAl17N18
_chemical_formula_sum   'Sc2 Al34 N36'
_cell_volume   771.33962486
_cell_formula_units_Z   2
loop_
 _symmetry_equiv_pos_site_id
 _symmetry_equiv_pos_as_xyz
  1  'x, y, z'
loop_
 _atom_site_type_symbol
 _atom_site_label
 _atom_site_symmetry_multiplicity
 _atom_site_fract_x
 _atom_site_fract_y
 _atom_site_fract_z
 _atom_site_occupancy
  Sc  Sc0  1  0.10744765  0.09078237  0.35034499  1
  Sc  Sc1  1  0.22324295  0.20657748  0.09082840  1
  Al  Al2  1  0.77735538  0.09251172  0.82985340  1
  Al  Al3  1  0.87896133  0.21052443  0.58420375  1
  Al  Al4  1  0.45382648  0.09174109  0.33161399  1
  Al  Al5  1  0.55925848  0.20522922  0.07741624  1
  Al  Al6  1  0.11073509  0.09406878  0.82381966  1
  Al  Al7  1  0.22578478  0.20911844  0.58130221  1
  Al  Al8  1  0.77299848  0.09664638  0.32736944  1
  Al  Al9  1  0.88619604  0.20474987  0.07491089  1
  Al  Al10  1  0.44667254  0.09322690  0.82632381  1
  Al  Al11  1  0.55674756  0.20571396  0.57958480  1
  Al  Al12  1  0.10840712  0.43716000  0.33161365  1
  Al  Al13  1  0.22189563  0.54259132  0.07741631  1
  Al  Al14  1  0.77611186  0.42997633  0.83038867  1
  Al  Al15  1  0.88704655  0.53978923  0.57976074  1
  Al  Al16  1  0.44419861  0.42753196  0.33013139  1
  Al  Al17  1  0.55504731  0.53837979  0.07981668  1
  Al  Al18  1  0.10989327  0.43000604  0.82632396  1
  Al  Al19  1  0.22238058  0.54008069  0.57958486  1
  Al  Al20  1  0.77397225  0.43051059  0.32748372  1
  Al  Al21  1  0.88582429  0.54363877  0.07784443  1
  Al  Al22  1  0.44477552  0.42810898  0.82817638  1
  Al  Al23  1  0.55588098  0.53921383  0.57742395  1
  Al  Al24  1  0.11331276  0.75633146  0.32736935  1
  Al  Al25  1  0.22141573  0.86952993  0.07491095  1
  Al  Al26  1  0.77833639  0.76166923  0.82777390  1
  Al  Al27  1  0.88891837  0.87225176  0.57759236  1
  Al  Al28  1  0.44717748  0.75730492  0.32748401  1
  Al  Al29  1  0.56030626  0.86915732  0.07784444  1
  Al  Al30  1  0.10917831  0.76068853  0.82985343  1
  Al  Al31  1  0.22719085  0.86229476  0.58420404  1
  Al  Al32  1  0.77736169  0.76069424  0.32952778  1
  Al  Al33  1  0.88870394  0.87203728  0.08088542  1
  Al  Al34  1  0.44664306  0.75944490  0.83038859  1
  Al  Al35  1  0.55645621  0.87037976  0.57976096  1
  N  N36  1  0.23264185  0.21597448  0.37451451  1
  N  N37  1  0.10099127  0.08432354  0.12645050  1
  N  N38  1  0.88827198  0.20581622  0.87374709  1
  N  N39  1  0.77697342  0.09195036  0.63180824  1
  N  N40  1  0.55625669  0.20660473  0.38129780  1
  N  N41  1  0.46754518  0.08301666  0.13301631  1
  N  N42  1  0.22230371  0.20563662  0.86520602  1
  N  N43  1  0.11053462  0.09386783  0.61666706  1
  N  N44  1  0.86311514  0.21859373  0.38676718  1
  N  N45  1  0.77780046  0.09509564  0.12735314  1
  N  N46  1  0.55506422  0.20633254  0.87778629  1
  N  N47  1  0.44746303  0.09277557  0.62722551  1
  N  N48  1  0.22327171  0.53959034  0.38129790  1
  N  N49  1  0.09968415  0.45087785  0.13301607  1
  N  N50  1  0.88845905  0.54005535  0.87804345  1
  N  N51  1  0.77538205  0.43103778  0.63217222  1
  N  N52  1  0.55563934  0.53897364  0.37741308  1
  N  N53  1  0.44380725  0.42714083  0.12942873  1
  N  N54  1  0.22299942  0.53839764  0.87778618  1
  N  N55  1  0.10944235  0.43079635  0.62722555  1
  N  N56  1  0.88679697  0.53904903  0.38068465  1
  N  N57  1  0.77878245  0.42734902  0.12661697  1
  N  N58  1  0.55505200  0.53838564  0.88099691  1
  N  N59  1  0.44497065  0.42830408  0.62862452  1
  N  N60  1  0.23526125  0.84644771  0.38676684  1
  N  N61  1  0.11176251  0.76113409  0.12735324  1
  N  N62  1  0.88841126  0.87174469  0.88127948  1
  N  N63  1  0.77828948  0.76162322  0.62831642  1
  N  N64  1  0.55571540  0.87013049  0.38068457  1
  N  N65  1  0.44401530  0.76211632  0.12661700  1
  N  N66  1  0.22248317  0.87160518  0.87374718  1
  N  N67  1  0.10861709  0.76030701  0.63180807  1
  N  N68  1  0.88952058  0.87285394  0.37689302  1
  N  N69  1  0.77769010  0.76102432  0.13024062  1
  N  N70  1  0.55672176  0.87179257  0.87804369  1
  N  N71  1  0.44770421  0.75871568  0.63217196  1
