# generated using pymatgen
data_ScAl17N18
_symmetry_space_group_name_H-M   'P 1'
_cell_length_a   9.75015140
_cell_length_b   9.75015158
_cell_length_c   9.25622380
_cell_angle_alpha   90.01999680
_cell_angle_beta   90.01999604
_cell_angle_gamma   60.01987630
_symmetry_Int_Tables_number   1
_chemical_formula_structural   ScAl17N18
_chemical_formula_sum   'Sc2 Al34 N36'
_cell_volume   762.20908063
_cell_formula_units_Z   2
loop_
 _symmetry_equiv_pos_site_id
 _symmetry_equiv_pos_as_xyz
  1  'x, y, z'
loop_
 _atom_site_type_symbol
 _atom_site_label
 _atom_site_symmetry_multiplicity
 _atom_site_fract_x
 _atom_site_fract_y
 _atom_site_fract_z
 _atom_site_occupancy
  Sc  Sc0  1  0.10955533  0.09288881  0.36287081  1
  Sc  Sc1  1  0.22579506  0.20912879  0.10454826  1
  Al  Al2  1  0.77641860  0.09429774  0.87473301  1
  Al  Al3  1  0.88574675  0.20716299  0.62833258  1
  Al  Al4  1  0.44777763  0.09478047  0.38089071  1
  Al  Al5  1  0.56023267  0.20314737  0.12750815  1
  Al  Al6  1  0.10804273  0.09137603  0.86932769  1
  Al  Al7  1  0.22282425  0.20615752  0.62787039  1
  Al  Al8  1  0.77423872  0.09445584  0.37787420  1
  Al  Al9  1  0.87984211  0.20815748  0.12240018  1
  Al  Al10  1  0.45389370  0.08969392  0.86872316  1
  Al  Al11  1  0.55594858  0.20797548  0.62484510  1
  Al  Al12  1  0.11144713  0.43111096  0.38089070  1
  Al  Al13  1  0.21981403  0.54356601  0.12750814  1
  Al  Al14  1  0.77694230  0.42978359  0.87472220  1
  Al  Al15  1  0.88611743  0.54108561  0.62410213  1
  Al  Al16  1  0.44475736  0.42809072  0.37309683  1
  Al  Al17  1  0.55612100  0.53945434  0.12461048  1
  Al  Al18  1  0.10636056  0.43722704  0.86872318  1
  Al  Al19  1  0.22464215  0.53928193  0.62484513  1
  Al  Al20  1  0.77285869  0.43087824  0.37731604  1
  Al  Al21  1  0.88641711  0.54218780  0.12763143  1
  Al  Al22  1  0.44432010  0.42765344  0.87803057  1
  Al  Al23  1  0.55480017  0.53813349  0.62768015  1
  Al  Al24  1  0.11112249  0.75757204  0.37787419  1
  Al  Al25  1  0.22482416  0.86317544  0.12240011  1
  Al  Al26  1  0.77733731  0.76067063  0.87797179  1
  Al  Al27  1  0.88834849  0.87168184  0.62705332  1
  Al  Al28  1  0.44754494  0.75619202  0.37731605  1
  Al  Al29  1  0.55885443  0.86975047  0.12763142  1
  Al  Al30  1  0.11096439  0.75975194  0.87473301  1
  Al  Al31  1  0.22382966  0.86908007  0.62833263  1
  Al  Al32  1  0.77839694  0.76173028  0.37426479  1
  Al  Al33  1  0.88921691  0.87255024  0.12432990  1
  Al  Al34  1  0.44645024  0.76027563  0.87472219  1
  Al  Al35  1  0.55775225  0.86945081  0.62410209  1
  N  N36  1  0.23195047  0.21528374  0.33940645  1
  N  N37  1  0.10122248  0.08455575  0.08814910  1
  N  N38  1  0.88560593  0.20740675  0.83506532  1
  N  N39  1  0.77819294  0.09334645  0.58497798  1
  N  N40  1  0.55566517  0.20466537  0.33521826  1
  N  N41  1  0.46899412  0.08196702  0.07524685  1
  N  N42  1  0.22291268  0.20624600  0.84262038  1
  N  N43  1  0.11063569  0.09396900  0.59839201  1
  N  N44  1  0.86597787  0.21679279  0.33014004  1
  N  N45  1  0.77697984  0.09338376  0.08053536  1
  N  N46  1  0.55621481  0.20849775  0.83016053  1
  N  N47  1  0.44590649  0.09373814  0.58957203  1
  N  N48  1  0.22133207  0.53899850  0.33521826  1
  N  N49  1  0.09863370  0.45232740  0.07524677  1
  N  N50  1  0.88529065  0.54167524  0.82961896  1
  N  N51  1  0.77615449  0.42851990  0.58461346  1
  N  N52  1  0.55576700  0.53910036  0.33136511  1
  N  N53  1  0.44375624  0.42708956  0.08615974  1
  N  N54  1  0.22516443  0.53954814  0.83016051  1
  N  N55  1  0.11040479  0.42923982  0.58957207  1
  N  N56  1  0.88933285  0.53768388  0.33613331  1
  N  N57  1  0.77775915  0.42987932  0.08118911  1
  N  N58  1  0.55486866  0.53820199  0.83453085  1
  N  N59  1  0.44504670  0.42838004  0.58007141  1
  N  N60  1  0.23345963  0.84931091  0.33014010  1
  N  N61  1  0.11005046  0.76031322  0.08053542  1
  N  N62  1  0.88815203  0.87148535  0.83391551  1
  N  N63  1  0.77838390  0.76171723  0.58036135  1
  N  N64  1  0.55435054  0.87266619  0.33613327  1
  N  N65  1  0.44654597  0.76109250  0.08118913  1
  N  N66  1  0.22407343  0.86893923  0.83506529  1
  N  N67  1  0.11001311  0.76152628  0.58497794  1
  N  N68  1  0.88963346  0.87296678  0.33245192  1
  N  N69  1  0.77758297  0.76091640  0.08570559  1
  N  N70  1  0.55834191  0.86862400  0.82961901  1
  N  N71  1  0.44518656  0.75948783  0.58461348  1
