# generated using pymatgen
data_LiGaSe2
_symmetry_space_group_name_H-M   'P 1'
_cell_length_a   6.65464658
_cell_length_b   7.03717766
_cell_length_c   8.48359314
_cell_angle_alpha   90.12051610
_cell_angle_beta   89.27453562
_cell_angle_gamma   89.90036477
_symmetry_Int_Tables_number   1
_chemical_formula_structural   LiGaSe2
_chemical_formula_sum   'Li4 Ga4 Se8'
_cell_volume   397.25273125
_cell_formula_units_Z   4
loop_
 _symmetry_equiv_pos_site_id
 _symmetry_equiv_pos_as_xyz
  1  'x, y, z'
loop_
 _atom_site_type_symbol
 _atom_site_label
 _atom_site_symmetry_multiplicity
 _atom_site_fract_x
 _atom_site_fract_y
 _atom_site_fract_z
 _atom_site_occupancy
  Se  Se0  1  0.93134674  0.92548308  0.87147431  1
  Se  Se1  1  0.96439982  0.40781326  0.12171262  1
  Se  Se2  1  0.96122558  0.90180653  0.36576161  1
  Se  Se3  1  0.40746237  0.06713635  0.10477128  1
  Se  Se4  1  0.98353626  0.43233761  0.60674594  1
  Se  Se5  1  0.47023333  0.58102950  0.84861853  1
  Se  Se6  1  0.46983886  0.09413535  0.60920693  1
  Se  Se7  1  0.48934315  0.55707972  0.36856912  1
  Ga  Ga8  1  0.02761386  0.05994304  0.11357820  1
  Ga  Ga9  1  0.42693812  0.92225285  0.85141726  1
  Ga  Ga10  1  0.86049271  0.56717749  0.36208297  1
  Ga  Ga11  1  0.34901354  0.42643340  0.60949091  1
  Li  Li12  1  0.85875076  0.57849731  0.86958115  1
  Li  Li13  1  0.86006060  0.09324358  0.61597414  1
  Li  Li14  1  0.34810328  0.42834981  0.10794009  1
  Li  Li15  1  0.34853455  0.89059438  0.37306163  1
