# generated using pymatgen
data_LiGaSe2
_symmetry_space_group_name_H-M   'P 1'
_cell_length_a   6.65465399
_cell_length_b   6.99591032
_cell_length_c   8.56977594
_cell_angle_alpha   90.00860799
_cell_angle_beta   90.20774977
_cell_angle_gamma   89.86873688
_symmetry_Int_Tables_number   1
_chemical_formula_structural   LiGaSe2
_chemical_formula_sum   'Li4 Ga4 Se8'
_cell_volume   398.96535204
_cell_formula_units_Z   4
loop_
 _symmetry_equiv_pos_site_id
 _symmetry_equiv_pos_as_xyz
  1  'x, y, z'
loop_
 _atom_site_type_symbol
 _atom_site_label
 _atom_site_symmetry_multiplicity
 _atom_site_fract_x
 _atom_site_fract_y
 _atom_site_fract_z
 _atom_site_occupancy
  Se  Se0  1  0.87458886  0.93101694  0.87214467  1
  Se  Se1  1  0.95472074  0.40871726  0.12199270  1
  Se  Se2  1  0.89917622  0.90748539  0.35234146  1
  Se  Se3  1  0.37665399  0.05829431  0.10232780  1
  Se  Se4  1  0.97542269  0.44096340  0.60497519  1
  Se  Se5  1  0.45441382  0.58016946  0.85452450  1
  Se  Se6  1  0.38730509  0.07806282  0.61985495  1
  Se  Se7  1  0.47364382  0.55748268  0.37239760  1
  Ga  Ga8  1  0.00746181  0.05879255  0.11339971  1
  Ga  Ga9  1  0.50465854  0.93117324  0.85961514  1
  Ga  Ga10  1  0.84223677  0.55830010  0.36086879  1
  Ga  Ga11  1  0.34570865  0.42845206  0.61468874  1
  Li  Li12  1  0.83991399  0.56506178  0.86604979  1
  Li  Li13  1  0.96885729  0.07882779  0.61062137  1
  Li  Li14  1  0.34008067  0.42581635  0.11165370  1
  Li  Li15  1  0.51205059  0.92469711  0.36253056  1
