# generated using pymatgen
data_LiGaSe2
_symmetry_space_group_name_H-M   'P 1'
_cell_length_a   6.65463655
_cell_length_b   6.97800145
_cell_length_c   8.38903207
_cell_angle_alpha   90.09394899
_cell_angle_beta   89.13153690
_cell_angle_gamma   90.00414293
_symmetry_Int_Tables_number   1
_chemical_formula_structural   LiGaSe2
_chemical_formula_sum   'Li4 Ga4 Se8'
_cell_volume   389.50835209
_cell_formula_units_Z   4
loop_
 _symmetry_equiv_pos_site_id
 _symmetry_equiv_pos_as_xyz
  1  'x, y, z'
loop_
 _atom_site_type_symbol
 _atom_site_label
 _atom_site_symmetry_multiplicity
 _atom_site_fract_x
 _atom_site_fract_y
 _atom_site_fract_z
 _atom_site_occupancy
  Se  Se0  1  0.85793387  0.93141029  0.86778378  1
  Se  Se1  1  0.86942209  0.40265543  0.10666406  1
  Se  Se2  1  0.86145738  0.91246740  0.35418437  1
  Se  Se3  1  0.35544601  0.05851166  0.11217219  1
  Se  Se4  1  0.85691026  0.42577229  0.60246129  1
  Se  Se5  1  0.37792911  0.58635795  0.85912661  1
  Se  Se6  1  0.37483111  0.08887648  0.62971128  1
  Se  Se7  1  0.34985458  0.56006292  0.37304982  1
  Ga  Ga8  1  0.98894859  0.06814274  0.11140640  1
  Ga  Ga9  1  0.48873284  0.91993453  0.86585407  1
  Ga  Ga10  1  0.94358311  0.57213274  0.35128588  1
  Ga  Ga11  1  0.48807050  0.42394761  0.61370304  1
  Li  Li12  1  0.99613240  0.59274060  0.85410320  1
  Li  Li13  1  0.99414180  0.08167647  0.60939791  1
  Li  Li14  1  0.48098264  0.40397337  0.11518857  1
  Li  Li15  1  0.47251726  0.90465078  0.37389421  1
