
#======================================================================
# CRYSTAL DATA
#----------------------------------------------------------------------
data_VESTA_phase_1

_chemical_name_common                  'Al   Hf   Mg   N                      '
_cell_length_a                         10.061815
_cell_length_b                         10.033858
_cell_length_c                         9.118089
_cell_angle_alpha                      90.025635
_cell_angle_beta                       89.792595
_cell_angle_gamma                      59.883709
_cell_volume                           796.277244
_space_group_name_H-M_alt              'P 1'
_space_group_IT_number                 1

loop_
_space_group_symop_operation_xyz
   'x, y, z'

loop_
   _atom_site_label
   _atom_site_occupancy
   _atom_site_fract_x
   _atom_site_fract_y
   _atom_site_fract_z
   _atom_site_adp_type
   _atom_site_U_iso_or_equiv
   _atom_site_type_symbol
   Al1        1.0     0.104787     0.086921     0.367445    Uiso  ? Al
   Al2        1.0     0.224843     0.199302     0.125306    Uiso  ? Al
   Al3        1.0     0.784647     0.090634     0.875974    Uiso  ? Al
   Al4        1.0     0.882410     0.204133     0.622092    Uiso  ? Al
   Al5        1.0     0.456186     0.088979     0.362953    Uiso  ? Al
   Al6        1.0     0.562262     0.195558     0.124667    Uiso  ? Al
   Al7        1.0     0.105656     0.093194     0.878734    Uiso  ? Al
   Al8        1.0     0.781201     0.092269     0.373649    Uiso  ? Al
   Al9        1.0     0.892511     0.200780     0.128431    Uiso  ? Al
   Al10       1.0     0.453012     0.087287     0.881885    Uiso  ? Al
   Al11       1.0     0.567219     0.196940     0.618070    Uiso  ? Al
   Al12       1.0     0.110055     0.426757     0.349199    Uiso  ? Al
   Al13       1.0     0.216269     0.544509     0.127744    Uiso  ? Al
   Al14       1.0     0.786181     0.421730     0.881814    Uiso  ? Al
   Al15       1.0     0.448884     0.421064     0.329606    Uiso  ? Al
   Al16       1.0     0.558935     0.545989     0.111467    Uiso  ? Al
   Al17       1.0     0.106830     0.429725     0.888286    Uiso  ? Al
   Al18       1.0     0.885708     0.544193     0.130863    Uiso  ? Al
   Al19       1.0     0.551552     0.538447     0.560969    Uiso  ? Al
   Al20       1.0     0.099305     0.780499     0.359366    Uiso  ? Al
   Al21       1.0     0.225666     0.872356     0.119533    Uiso  ? Al
   Al22       1.0     0.777197     0.766057     0.877857    Uiso  ? Al
   Al23       1.0     0.885262     0.881907     0.628182    Uiso  ? Al
   Al24       1.0     0.556939     0.868926     0.113500    Uiso  ? Al
   Al25       1.0     0.101514     0.769817     0.883333    Uiso  ? Al
   Al26       1.0     0.218342     0.870710     0.629363    Uiso  ? Al
   Al27       1.0     0.775892     0.774628     0.367607    Uiso  ? Al
   Al28       1.0     0.885849     0.874293     0.122062    Uiso  ? Al
   Hf1        1.0     0.227916     0.195600     0.608161    Uiso  ? Hf
   Hf2        1.0     0.876936     0.543822     0.604127    Uiso  ? Hf
   Hf3        1.0     0.221796     0.549585     0.595781    Uiso  ? Hf
   Hf4        1.0     0.450549     0.424961     0.863048    Uiso  ? Hf
   Mg1        1.0     0.779834     0.419485     0.348458    Uiso  ? Mg
   Mg2        1.0     0.437800     0.769675     0.353349    Uiso  ? Mg
   Mg3        1.0     0.446132     0.760901     0.857687    Uiso  ? Mg
   Mg4        1.0     0.554339     0.869811     0.618021    Uiso  ? Mg
   N1         1.0     0.222268     0.201077     0.342137    Uiso  ? N
   N2         1.0     0.111389     0.097322     0.086872    Uiso  ? N
   N3         1.0     0.890094     0.204397     0.837325    Uiso  ? N
   N4         1.0     0.779042     0.094141     0.585976    Uiso  ? N
   N5         1.0     0.561162     0.203258     0.335661    Uiso  ? N
   N6         1.0     0.442149     0.099162     0.093377    Uiso  ? N
   N7         1.0     0.223169     0.208289     0.844998    Uiso  ? N
   N8         1.0     0.100815     0.086266     0.584281    Uiso  ? N
   N9         1.0     0.895134     0.188091     0.334972    Uiso  ? N
   N10        1.0     0.778761     0.094741     0.084471    Uiso  ? N
   N11        1.0     0.569134     0.186602     0.837972    Uiso  ? N
   N12        1.0     0.456317     0.100502     0.576899    Uiso  ? N
   N13        1.0     0.222194     0.540491     0.344355    Uiso  ? N
   N14        1.0     0.111961     0.427402     0.102608    Uiso  ? N
   N15        1.0     0.893493     0.536303     0.843251    Uiso  ? N
   N16        1.0     0.765091     0.420210     0.593168    Uiso  ? N
   N17        1.0     0.547584     0.530910     0.342843    Uiso  ? N
   N18        1.0     0.437461     0.423164     0.104854    Uiso  ? N
   N19        1.0     0.202446     0.549944     0.838756    Uiso  ? N
   N20        1.0     0.111277     0.426975     0.571768    Uiso  ? N
   N21        1.0     0.892686     0.550313     0.344461    Uiso  ? N
   N22        1.0     0.789793     0.423093     0.099457    Uiso  ? N
   N23        1.0     0.575376     0.526577     0.883015    Uiso  ? N
   N24        1.0     0.459639     0.417363     0.609331    Uiso  ? N
   N25        1.0     0.206101     0.880887     0.326562    Uiso  ? N
   N26        1.0     0.108792     0.759833     0.093125    Uiso  ? N
   N27        1.0     0.889367     0.873333     0.840054    Uiso  ? N
   N28        1.0     0.784420     0.775073     0.583135    Uiso  ? N
   N29        1.0     0.566217     0.878673     0.329284    Uiso  ? N
   N30        1.0     0.442402     0.764548     0.100595    Uiso  ? N
   N31        1.0     0.201681     0.880144     0.841567    Uiso  ? N
   N32        1.0     0.095274     0.784555     0.575804    Uiso  ? N
   N33        1.0     0.885248     0.878194     0.329556    Uiso  ? N
   N34        1.0     0.784314     0.758144     0.088216    Uiso  ? N
   N35        1.0     0.564983     0.877875     0.855552    Uiso  ? N
   N36        1.0     0.432831     0.750572     0.600767    Uiso  ? N
