
#======================================================================
# CRYSTAL DATA
#----------------------------------------------------------------------
data_VESTA_phase_1

_chemical_name_common                  'Al   Hf   Mg   N                      '
_cell_length_a                         10.200627
_cell_length_b                         10.173004
_cell_length_c                         8.709792
_cell_angle_alpha                      90.033279
_cell_angle_beta                       89.848732
_cell_angle_gamma                      59.863083
_cell_volume                           781.647817
_space_group_name_H-M_alt              'P 1'
_space_group_IT_number                 1

loop_
_space_group_symop_operation_xyz
   'x, y, z'

loop_
   _atom_site_label
   _atom_site_occupancy
   _atom_site_fract_x
   _atom_site_fract_y
   _atom_site_fract_z
   _atom_site_adp_type
   _atom_site_U_iso_or_equiv
   _atom_site_type_symbol
   Al1        1.0     0.106576     0.088230     0.351673    Uiso  ? Al
   Al2        1.0     0.225001     0.200578     0.109476    Uiso  ? Al
   Al3        1.0     0.784055     0.091825     0.868435    Uiso  ? Al
   Al4        1.0     0.884183     0.202322     0.607386    Uiso  ? Al
   Al5        1.0     0.453867     0.088824     0.350053    Uiso  ? Al
   Al6        1.0     0.561105     0.196986     0.115397    Uiso  ? Al
   Al7        1.0     0.103959     0.092250     0.871558    Uiso  ? Al
   Al8        1.0     0.782454     0.091263     0.359494    Uiso  ? Al
   Al9        1.0     0.890106     0.204651     0.119096    Uiso  ? Al
   Al10       1.0     0.455374     0.086988     0.870429    Uiso  ? Al
   Al11       1.0     0.566215     0.198581     0.596656    Uiso  ? Al
   Al12       1.0     0.109638     0.427185     0.339341    Uiso  ? Al
   Al13       1.0     0.217247     0.543294     0.116407    Uiso  ? Al
   Al14       1.0     0.782614     0.420996     0.869136    Uiso  ? Al
   Al15       1.0     0.449069     0.421455     0.335778    Uiso  ? Al
   Al16       1.0     0.559719     0.546362     0.112876    Uiso  ? Al
   Al17       1.0     0.107287     0.429632     0.880823    Uiso  ? Al
   Al18       1.0     0.885100     0.542597     0.113897    Uiso  ? Al
   Al19       1.0     0.552696     0.539408     0.569865    Uiso  ? Al
   Al20       1.0     0.100495     0.778433     0.347962    Uiso  ? Al
   Al21       1.0     0.227521     0.870881     0.110654    Uiso  ? Al
   Al22       1.0     0.776011     0.768930     0.868276    Uiso  ? Al
   Al23       1.0     0.885098     0.882277     0.617885    Uiso  ? Al
   Al24       1.0     0.555958     0.868395     0.105820    Uiso  ? Al
   Al25       1.0     0.101621     0.771335     0.878373    Uiso  ? Al
   Al26       1.0     0.219782     0.870370     0.619264    Uiso  ? Al
   Al27       1.0     0.776423     0.771956     0.352567    Uiso  ? Al
   Al28       1.0     0.885843     0.874145     0.112809    Uiso  ? Al
   Hf1        1.0     0.227158     0.196126     0.604895    Uiso  ? Hf
   Hf2        1.0     0.877825     0.544655     0.602227    Uiso  ? Hf
   Hf3        1.0     0.219963     0.550503     0.594912    Uiso  ? Hf
   Hf4        1.0     0.452711     0.423159     0.861876    Uiso  ? Hf
   Mg1        1.0     0.779254     0.420921     0.346164    Uiso  ? Mg
   Mg2        1.0     0.438372     0.767640     0.352791    Uiso  ? Mg
   Mg3        1.0     0.446548     0.760544     0.854311    Uiso  ? Mg
   Mg4        1.0     0.554621     0.869470     0.606530    Uiso  ? Mg
   N1         1.0     0.221472     0.203397     0.344491    Uiso  ? N
   N2         1.0     0.110408     0.097600     0.097122    Uiso  ? N
   N3         1.0     0.889583     0.203114     0.846798    Uiso  ? N
   N4         1.0     0.778197     0.094537     0.594199    Uiso  ? N
   N5         1.0     0.560014     0.203311     0.347136    Uiso  ? N
   N6         1.0     0.442844     0.098610     0.102524    Uiso  ? N
   N7         1.0     0.222989     0.207291     0.858249    Uiso  ? N
   N8         1.0     0.102844     0.086404     0.596497    Uiso  ? N
   N9         1.0     0.895069     0.190808     0.346789    Uiso  ? N
   N10        1.0     0.778816     0.095271     0.097327    Uiso  ? N
   N11        1.0     0.569405     0.188183     0.852782    Uiso  ? N
   N12        1.0     0.454642     0.100938     0.592926    Uiso  ? N
   N13        1.0     0.221345     0.539302     0.344610    Uiso  ? N
   N14        1.0     0.112001     0.427420     0.105048    Uiso  ? N
   N15        1.0     0.892472     0.537478     0.856211    Uiso  ? N
   N16        1.0     0.765971     0.421254     0.606508    Uiso  ? N
   N17        1.0     0.549410     0.529196     0.344755    Uiso  ? N
   N18        1.0     0.437771     0.422229     0.108875    Uiso  ? N
   N19        1.0     0.205415     0.549544     0.852011    Uiso  ? N
   N20        1.0     0.110994     0.428015     0.589062    Uiso  ? N
   N21        1.0     0.893743     0.548206     0.346138    Uiso  ? N
   N22        1.0     0.787183     0.423927     0.099215    Uiso  ? N
   N23        1.0     0.573339     0.527046     0.877448    Uiso  ? N
   N24        1.0     0.457338     0.418330     0.603584    Uiso  ? N
   N25        1.0     0.206980     0.880282     0.335993    Uiso  ? N
   N26        1.0     0.108506     0.760109     0.102188    Uiso  ? N
   N27        1.0     0.889355     0.874823     0.850922    Uiso  ? N
   N28        1.0     0.785071     0.773240     0.598222    Uiso  ? N
   N29        1.0     0.565274     0.877885     0.338355    Uiso  ? N
   N30        1.0     0.443242     0.763193     0.102708    Uiso  ? N
   N31        1.0     0.203675     0.879195     0.852346    Uiso  ? N
   N32        1.0     0.096446     0.782456     0.586067    Uiso  ? N
   N33        1.0     0.885919     0.876532     0.338460    Uiso  ? N
   N34        1.0     0.783254     0.759286     0.097188    Uiso  ? N
   N35        1.0     0.564408     0.877798     0.863976    Uiso  ? N
   N36        1.0     0.433614     0.750487     0.603786    Uiso  ? N
