
#======================================================================
# CRYSTAL DATA
#----------------------------------------------------------------------
data_VESTA_phase_1

_chemical_name_common                  'Al   Hf   Mg   N                      '
_cell_length_a                         10.151333
_cell_length_b                         10.122404
_cell_length_c                         8.848321
_cell_angle_alpha                      90.035278
_cell_angle_beta                       89.895470
_cell_angle_gamma                      59.844463
_cell_volume                           786.165592
_space_group_name_H-M_alt              'P 1'
_space_group_IT_number                 1

loop_
_space_group_symop_operation_xyz
   'x, y, z'

loop_
   _atom_site_label
   _atom_site_occupancy
   _atom_site_fract_x
   _atom_site_fract_y
   _atom_site_fract_z
   _atom_site_adp_type
   _atom_site_U_iso_or_equiv
   _atom_site_type_symbol
   Al1        1.0     0.106732     0.090946     0.328545    Uiso  ? Al
   Al2        1.0     0.225432     0.200132     0.090102    Uiso  ? Al
   Al3        1.0     0.783831     0.090911     0.840889    Uiso  ? Al
   Al4        1.0     0.885371     0.201002     0.584222    Uiso  ? Al
   Al5        1.0     0.450485     0.089869     0.332423    Uiso  ? Al
   Al6        1.0     0.562309     0.194714     0.101380    Uiso  ? Al
   Al7        1.0     0.103652     0.089230     0.854534    Uiso  ? Al
   Al8        1.0     0.782873     0.091556     0.336079    Uiso  ? Al
   Al9        1.0     0.888247     0.205237     0.095875    Uiso  ? Al
   Al10       1.0     0.458220     0.086361     0.852060    Uiso  ? Al
   Al11       1.0     0.565478     0.199839     0.578476    Uiso  ? Al
   Al12       1.0     0.109830     0.427014     0.324761    Uiso  ? Al
   Al13       1.0     0.215962     0.545129     0.101751    Uiso  ? Al
   Al14       1.0     0.780638     0.421486     0.864710    Uiso  ? Al
   Al15       1.0     0.446997     0.422080     0.328684    Uiso  ? Al
   Al16       1.0     0.559543     0.546584     0.112168    Uiso  ? Al
   Al17       1.0     0.107466     0.429482     0.867127    Uiso  ? Al
   Al18       1.0     0.885039     0.541846     0.096563    Uiso  ? Al
   Al19       1.0     0.553448     0.537919     0.568384    Uiso  ? Al
   Al20       1.0     0.102353     0.773881     0.331570    Uiso  ? Al
   Al21       1.0     0.227290     0.869278     0.091249    Uiso  ? Al
   Al22       1.0     0.775319     0.772192     0.853432    Uiso  ? Al
   Al23       1.0     0.883649     0.881922     0.586003    Uiso  ? Al
   Al24       1.0     0.554194     0.869637     0.098085    Uiso  ? Al
   Al25       1.0     0.100508     0.775539     0.851254    Uiso  ? Al
   Al26       1.0     0.219181     0.872163     0.586440    Uiso  ? Al
   Al27       1.0     0.777781     0.768883     0.330231    Uiso  ? Al
   Al28       1.0     0.887950     0.874974     0.090345    Uiso  ? Al
   Hf1        1.0     0.226981     0.195596     0.605211    Uiso  ? Hf
   Hf2        1.0     0.877838     0.545254     0.602672    Uiso  ? Hf
   Hf3        1.0     0.221686     0.548589     0.596230    Uiso  ? Hf
   Hf4        1.0     0.454423     0.422650     0.862569    Uiso  ? Hf
   Mg1        1.0     0.781469     0.421071     0.340546    Uiso  ? Mg
   Mg2        1.0     0.439989     0.766600     0.350026    Uiso  ? Mg
   Mg3        1.0     0.444494     0.762155     0.849470    Uiso  ? Mg
   Mg4        1.0     0.555972     0.869713     0.597795    Uiso  ? Mg
   N1         1.0     0.220526     0.206034     0.356104    Uiso  ? N
   N2         1.0     0.111508     0.096518     0.109092    Uiso  ? N
   N3         1.0     0.887475     0.202783     0.871981    Uiso  ? N
   N4         1.0     0.776468     0.096210     0.616112    Uiso  ? N
   N5         1.0     0.557425     0.203313     0.356221    Uiso  ? N
   N6         1.0     0.441059     0.098144     0.111326    Uiso  ? N
   N7         1.0     0.223630     0.204114     0.864231    Uiso  ? N
   N8         1.0     0.100296     0.087520     0.625172    Uiso  ? N
   N9         1.0     0.896757     0.190070     0.363102    Uiso  ? N
   N10        1.0     0.780083     0.093266     0.119511    Uiso  ? N
   N11        1.0     0.571922     0.187316     0.878025    Uiso  ? N
   N12        1.0     0.456222     0.102771     0.621390    Uiso  ? N
   N13        1.0     0.219722     0.538398     0.351184    Uiso  ? N
   N14        1.0     0.111696     0.426910     0.103145    Uiso  ? N
   N15        1.0     0.889070     0.538816     0.863240    Uiso  ? N
   N16        1.0     0.766792     0.419033     0.615465    Uiso  ? N
   N17        1.0     0.550167     0.527030     0.348224    Uiso  ? N
   N18        1.0     0.437188     0.423381     0.110788    Uiso  ? N
   N19        1.0     0.207370     0.550781     0.861586    Uiso  ? N
   N20        1.0     0.111373     0.428310     0.623926    Uiso  ? N
   N21        1.0     0.897375     0.547382     0.356021    Uiso  ? N
   N22        1.0     0.785617     0.425622     0.103411    Uiso  ? N
   N23        1.0     0.571828     0.530086     0.883325    Uiso  ? N
   N24        1.0     0.459215     0.416822     0.612324    Uiso  ? N
   N25        1.0     0.203495     0.882003     0.362091    Uiso  ? N
   N26        1.0     0.108409     0.761782     0.113845    Uiso  ? N
   N27        1.0     0.888112     0.877089     0.872123    Uiso  ? N
   N28        1.0     0.785453     0.773293     0.625488    Uiso  ? N
   N29        1.0     0.566132     0.879078     0.347116    Uiso  ? N
   N30        1.0     0.442093     0.763985     0.109763    Uiso  ? N
   N31        1.0     0.207265     0.877764     0.872766    Uiso  ? N
   N32        1.0     0.096647     0.781456     0.617697    Uiso  ? N
   N33        1.0     0.887551     0.874144     0.362968    Uiso  ? N
   N34        1.0     0.783718     0.759868     0.107753    Uiso  ? N
   N35        1.0     0.563770     0.877114     0.873112    Uiso  ? N
   N36        1.0     0.434423     0.750227     0.604026    Uiso  ? N
