
#======================================================================
# CRYSTAL DATA
#----------------------------------------------------------------------
data_VESTA_phase_1

_chemical_name_common                  'Al   Hf   Mg   N                      '
_cell_length_a                         9.681298
_cell_length_b                         9.661866
_cell_length_c                         10.158323
_cell_angle_alpha                      90.108795
_cell_angle_beta                       90.018791
_cell_angle_gamma                      59.943787
_cell_volume                           822.432194
_space_group_name_H-M_alt              'P 1'
_space_group_IT_number                 1

loop_
_space_group_symop_operation_xyz
   'x, y, z'

loop_
   _atom_site_label
   _atom_site_occupancy
   _atom_site_fract_x
   _atom_site_fract_y
   _atom_site_fract_z
   _atom_site_adp_type
   _atom_site_U_iso_or_equiv
   _atom_site_type_symbol
   Al1        1.0     0.105826     0.089614     0.388828    Uiso  ? Al
   Al2        1.0     0.224433     0.201360     0.148857    Uiso  ? Al
   Al3        1.0     0.783461     0.089113     0.897953    Uiso  ? Al
   Al4        1.0     0.883949     0.202180     0.649061    Uiso  ? Al
   Al5        1.0     0.451965     0.091302     0.389332    Uiso  ? Al
   Al6        1.0     0.559766     0.200629     0.152260    Uiso  ? Al
   Al7        1.0     0.107265     0.091198     0.903479    Uiso  ? Al
   Al8        1.0     0.781261     0.093640     0.394294    Uiso  ? Al
   Al9        1.0     0.889871     0.203121     0.149358    Uiso  ? Al
   Al10       1.0     0.453691     0.084523     0.905766    Uiso  ? Al
   Al11       1.0     0.567538     0.195502     0.642594    Uiso  ? Al
   Al12       1.0     0.108873     0.426745     0.380394    Uiso  ? Al
   Al13       1.0     0.220705     0.542785     0.157293    Uiso  ? Al
   Al14       1.0     0.781943     0.423003     0.904926    Uiso  ? Al
   Al15       1.0     0.455264     0.422201     0.390912    Uiso  ? Al
   Al16       1.0     0.555205     0.544200     0.155757    Uiso  ? Al
   Al17       1.0     0.106796     0.428799     0.911083    Uiso  ? Al
   Al18       1.0     0.886404     0.542660     0.150596    Uiso  ? Al
   Al19       1.0     0.557513     0.538571     0.645780    Uiso  ? Al
   Al20       1.0     0.103281     0.775704     0.389038    Uiso  ? Al
   Al21       1.0     0.225412     0.871008     0.149058    Uiso  ? Al
   Al22       1.0     0.773488     0.769085     0.905049    Uiso  ? Al
   Al23       1.0     0.882703     0.882345     0.647117    Uiso  ? Al
   Al24       1.0     0.556102     0.870018     0.149468    Uiso  ? Al
   Al25       1.0     0.101130     0.771698     0.900732    Uiso  ? Al
   Al26       1.0     0.217794     0.872831     0.650055    Uiso  ? Al
   Al27       1.0     0.778485     0.768441     0.388792    Uiso  ? Al
   Al28       1.0     0.888383     0.873471     0.147675    Uiso  ? Al
   Hf1        1.0     0.228565     0.193278     0.643874    Uiso  ? Hf
   Hf2        1.0     0.878062     0.545632     0.645821    Uiso  ? Hf
   Hf3        1.0     0.222090     0.548690     0.625169    Uiso  ? Hf
   Hf4        1.0     0.444749     0.426197     0.895867    Uiso  ? Hf
   Mg1        1.0     0.777159     0.424356     0.387941    Uiso  ? Mg
   Mg2        1.0     0.442151     0.761402     0.394683    Uiso  ? Mg
   Mg3        1.0     0.443516     0.766683     0.894103    Uiso  ? Mg
   Mg4        1.0     0.555288     0.870712     0.646068    Uiso  ? Mg
   N1         1.0     0.223043     0.202214     0.340797    Uiso  ? N
   N2         1.0     0.111499     0.095092     0.089782    Uiso  ? N
   N3         1.0     0.889997     0.204296     0.841066    Uiso  ? N
   N4         1.0     0.779397     0.094653     0.586960    Uiso  ? N
   N5         1.0     0.559361     0.203591     0.338657    Uiso  ? N
   N6         1.0     0.444718     0.096990     0.093494    Uiso  ? N
   N7         1.0     0.223261     0.206971     0.851334    Uiso  ? N
   N8         1.0     0.100183     0.088063     0.582745    Uiso  ? N
   N9         1.0     0.894554     0.190797     0.333034    Uiso  ? N
   N10        1.0     0.777183     0.094503     0.086161    Uiso  ? N
   N11        1.0     0.565273     0.189849     0.834439    Uiso  ? N
   N12        1.0     0.453643     0.101836     0.576973    Uiso  ? N
   N13        1.0     0.223192     0.540187     0.352251    Uiso  ? N
   N14        1.0     0.114140     0.427967     0.098431    Uiso  ? N
   N15        1.0     0.890728     0.538275     0.853363    Uiso  ? N
   N16        1.0     0.772823     0.417765     0.594867    Uiso  ? N
   N17        1.0     0.549510     0.531284     0.334910    Uiso  ? N
   N18        1.0     0.442205     0.426246     0.099761    Uiso  ? N
   N19        1.0     0.202077     0.548167     0.834441    Uiso  ? N
   N20        1.0     0.108899     0.423853     0.573428    Uiso  ? N
   N21        1.0     0.894298     0.548580     0.337108    Uiso  ? N
   N22        1.0     0.779434     0.426791     0.093117    Uiso  ? N
   N23        1.0     0.573636     0.526054     0.835477    Uiso  ? N
   N24        1.0     0.463356     0.414322     0.590126    Uiso  ? N
   N25        1.0     0.208286     0.879355     0.332472    Uiso  ? N
   N26        1.0     0.111511     0.758783     0.090030    Uiso  ? N
   N27        1.0     0.887852     0.871981     0.838376    Uiso  ? N
   N28        1.0     0.785850     0.771923     0.577922    Uiso  ? N
   N29        1.0     0.564474     0.879108     0.335350    Uiso  ? N
   N30        1.0     0.444431     0.761213     0.100640    Uiso  ? N
   N31        1.0     0.201700     0.881269     0.837299    Uiso  ? N
   N32        1.0     0.094620     0.785694     0.579953    Uiso  ? N
   N33        1.0     0.887895     0.876193     0.334203    Uiso  ? N
   N34        1.0     0.780394     0.761686     0.091999    Uiso  ? N
   N35        1.0     0.565550     0.878511     0.847452    Uiso  ? N
   N36        1.0     0.431623     0.753039     0.602667    Uiso  ? N
