
#======================================================================
# CRYSTAL DATA
#----------------------------------------------------------------------
data_VESTA_phase_1

_chemical_name_common                  'Al   Hf   Mg   N                      '
_cell_length_a                         9.670347
_cell_length_b                         9.653970
_cell_length_c                         10.160199
_cell_angle_alpha                      90.110504
_cell_angle_beta                       90.061584
_cell_angle_gamma                      59.954906
_cell_volume                           821.074424
_space_group_name_H-M_alt              'P 1'
_space_group_IT_number                 1

loop_
_space_group_symop_operation_xyz
   'x, y, z'

loop_
   _atom_site_label
   _atom_site_occupancy
   _atom_site_fract_x
   _atom_site_fract_y
   _atom_site_fract_z
   _atom_site_adp_type
   _atom_site_U_iso_or_equiv
   _atom_site_type_symbol
   Al1        1.0     0.105374     0.090666     0.316276    Uiso  ? Al
   Al2        1.0     0.223540     0.201758     0.069881    Uiso  ? Al
   Al3        1.0     0.784222     0.088447     0.821438    Uiso  ? Al
   Al4        1.0     0.884710     0.199252     0.568770    Uiso  ? Al
   Al5        1.0     0.452098     0.088573     0.313061    Uiso  ? Al
   Al6        1.0     0.561945     0.197018     0.075901    Uiso  ? Al
   Al7        1.0     0.107298     0.090048     0.827669    Uiso  ? Al
   Al8        1.0     0.780870     0.093832     0.321468    Uiso  ? Al
   Al9        1.0     0.888497     0.206743     0.070166    Uiso  ? Al
   Al10       1.0     0.453604     0.086288     0.827462    Uiso  ? Al
   Al11       1.0     0.565583     0.197894     0.565078    Uiso  ? Al
   Al12       1.0     0.108953     0.428281     0.306451    Uiso  ? Al
   Al13       1.0     0.215675     0.545381     0.076122    Uiso  ? Al
   Al14       1.0     0.781093     0.422128     0.827697    Uiso  ? Al
   Al15       1.0     0.450783     0.423508     0.310099    Uiso  ? Al
   Al16       1.0     0.561028     0.543663     0.073119    Uiso  ? Al
   Al17       1.0     0.107405     0.428398     0.835752    Uiso  ? Al
   Al18       1.0     0.884957     0.540403     0.066983    Uiso  ? Al
   Al19       1.0     0.553487     0.538282     0.562933    Uiso  ? Al
   Al20       1.0     0.104928     0.771644     0.314508    Uiso  ? Al
   Al21       1.0     0.223555     0.872058     0.069023    Uiso  ? Al
   Al22       1.0     0.776072     0.769165     0.827629    Uiso  ? Al
   Al23       1.0     0.883310     0.881330     0.567838    Uiso  ? Al
   Al24       1.0     0.555813     0.870326     0.070565    Uiso  ? Al
   Al25       1.0     0.100740     0.774169     0.826315    Uiso  ? Al
   Al26       1.0     0.219516     0.871968     0.567344    Uiso  ? Al
   Al27       1.0     0.776357     0.768389     0.314261    Uiso  ? Al
   Al28       1.0     0.888412     0.874167     0.070957    Uiso  ? Al
   Hf1        1.0     0.228225     0.195048     0.573708    Uiso  ? Hf
   Hf2        1.0     0.879526     0.545586     0.576311    Uiso  ? Hf
   Hf3        1.0     0.227548     0.547909     0.563906    Uiso  ? Hf
   Hf4        1.0     0.448286     0.424560     0.837809    Uiso  ? Hf
   Mg1        1.0     0.776255     0.424970     0.317575    Uiso  ? Mg
   Mg2        1.0     0.443222     0.761644     0.323419    Uiso  ? Mg
   Mg3        1.0     0.442121     0.766376     0.823483    Uiso  ? Mg
   Mg4        1.0     0.555029     0.870151     0.568539    Uiso  ? Mg
   N1         1.0     0.221980     0.206660     0.367435    Uiso  ? N
   N2         1.0     0.110203     0.095595     0.126993    Uiso  ? N
   N3         1.0     0.888829     0.202861     0.879713    Uiso  ? N
   N4         1.0     0.776751     0.094406     0.630695    Uiso  ? N
   N5         1.0     0.554959     0.205070     0.374649    Uiso  ? N
   N6         1.0     0.443040     0.096377     0.125033    Uiso  ? N
   N7         1.0     0.223819     0.203390     0.875848    Uiso  ? N
   N8         1.0     0.101329     0.087857     0.637187    Uiso  ? N
   N9         1.0     0.895521     0.192383     0.383902    Uiso  ? N
   N10        1.0     0.780134     0.094188     0.131840    Uiso  ? N
   N11        1.0     0.570397     0.186133     0.887767    Uiso  ? N
   N12        1.0     0.454746     0.102625     0.639821    Uiso  ? N
   N13        1.0     0.222051     0.537444     0.359135    Uiso  ? N
   N14        1.0     0.109846     0.427025     0.118847    Uiso  ? N
   N15        1.0     0.887437     0.539944     0.872399    Uiso  ? N
   N16        1.0     0.769628     0.416990     0.634750    Uiso  ? N
   N17        1.0     0.547583     0.526986     0.381297    Uiso  ? N
   N18        1.0     0.444329     0.426497     0.115657    Uiso  ? N
   N19        1.0     0.202844     0.552251     0.882710    Uiso  ? N
   N20        1.0     0.116031     0.429585     0.642301    Uiso  ? N
   N21        1.0     0.899237     0.547836     0.374535    Uiso  ? N
   N22        1.0     0.781699     0.426853     0.115576    Uiso  ? N
   N23        1.0     0.572005     0.531935     0.886394    Uiso  ? N
   N24        1.0     0.459979     0.414477     0.630595    Uiso  ? N
   N25        1.0     0.204428     0.880567     0.381384    Uiso  ? N
   N26        1.0     0.108506     0.764433     0.128055    Uiso  ? N
   N27        1.0     0.887853     0.874993     0.883110    Uiso  ? N
   N28        1.0     0.784896     0.773192     0.640210    Uiso  ? N
   N29        1.0     0.565267     0.879418     0.367906    Uiso  ? N
   N30        1.0     0.442816     0.762676     0.115203    Uiso  ? N
   N31        1.0     0.205584     0.879422     0.884219    Uiso  ? N
   N32        1.0     0.098278     0.778059     0.634422    Uiso  ? N
   N33        1.0     0.889012     0.872927     0.378305    Uiso  ? N
   N34        1.0     0.781601     0.760151     0.124078    Uiso  ? N
   N35        1.0     0.564662     0.877315     0.883744    Uiso  ? N
   N36        1.0     0.433163     0.751352     0.618747    Uiso  ? N
