
#======================================================================
# CRYSTAL DATA
#----------------------------------------------------------------------
data_VESTA_phase_1

_chemical_name_common                  'Al   Hf   Mg   N                      '
_cell_length_a                         9.742475
_cell_length_b                         9.722466
_cell_length_c                         9.984700
_cell_angle_alpha                      90.080177
_cell_angle_beta                       90.011131
_cell_angle_gamma                      59.904068
_cell_volume                           818.258003
_space_group_name_H-M_alt              'P 1'
_space_group_IT_number                 1

loop_
_space_group_symop_operation_xyz
   'x, y, z'

loop_
   _atom_site_label
   _atom_site_occupancy
   _atom_site_fract_x
   _atom_site_fract_y
   _atom_site_fract_z
   _atom_site_adp_type
   _atom_site_U_iso_or_equiv
   _atom_site_type_symbol
   Al1        1.0     0.105444     0.090934     0.321285    Uiso  ? Al
   Al2        1.0     0.223754     0.201123     0.073573    Uiso  ? Al
   Al3        1.0     0.784249     0.088665     0.826094    Uiso  ? Al
   Al4        1.0     0.884750     0.199221     0.573229    Uiso  ? Al
   Al5        1.0     0.451352     0.089068     0.319240    Uiso  ? Al
   Al6        1.0     0.562576     0.194954     0.081724    Uiso  ? Al
   Al7        1.0     0.106370     0.089193     0.833003    Uiso  ? Al
   Al8        1.0     0.780942     0.093734     0.326040    Uiso  ? Al
   Al9        1.0     0.888508     0.206800     0.075961    Uiso  ? Al
   Al10       1.0     0.455512     0.085714     0.832298    Uiso  ? Al
   Al11       1.0     0.565476     0.199281     0.570210    Uiso  ? Al
   Al12       1.0     0.109068     0.428027     0.312728    Uiso  ? Al
   Al13       1.0     0.213957     0.546257     0.080255    Uiso  ? Al
   Al14       1.0     0.780645     0.421648     0.833225    Uiso  ? Al
   Al15       1.0     0.449621     0.423272     0.313820    Uiso  ? Al
   Al16       1.0     0.561841     0.544710     0.081223    Uiso  ? Al
   Al17       1.0     0.107494     0.428519     0.842065    Uiso  ? Al
   Al18       1.0     0.884615     0.540475     0.071385    Uiso  ? Al
   Al19       1.0     0.553264     0.537401     0.566589    Uiso  ? Al
   Al20       1.0     0.104612     0.771408     0.320238    Uiso  ? Al
   Al21       1.0     0.224000     0.871595     0.075099    Uiso  ? Al
   Al22       1.0     0.775605     0.770777     0.833286    Uiso  ? Al
   Al23       1.0     0.883051     0.881949     0.572289    Uiso  ? Al
   Al24       1.0     0.555421     0.870169     0.077488    Uiso  ? Al
   Al25       1.0     0.100050     0.775356     0.830974    Uiso  ? Al
   Al26       1.0     0.219038     0.871965     0.571725    Uiso  ? Al
   Al27       1.0     0.776919     0.767968     0.319603    Uiso  ? Al
   Al28       1.0     0.888574     0.874089     0.076368    Uiso  ? Al
   Hf1        1.0     0.228053     0.195053     0.583391    Uiso  ? Hf
   Hf2        1.0     0.879466     0.546141     0.585211    Uiso  ? Hf
   Hf3        1.0     0.228034     0.547099     0.573571    Uiso  ? Hf
   Hf4        1.0     0.449697     0.424451     0.848910    Uiso  ? Hf
   Mg1        1.0     0.777851     0.424507     0.324492    Uiso  ? Mg
   Mg2        1.0     0.442733     0.762295     0.331673    Uiso  ? Mg
   Mg3        1.0     0.442419     0.766005     0.829363    Uiso  ? Mg
   Mg4        1.0     0.555402     0.870397     0.574268    Uiso  ? Mg
   N1         1.0     0.221446     0.206797     0.373310    Uiso  ? N
   N2         1.0     0.110537     0.095948     0.129314    Uiso  ? N
   N3         1.0     0.888519     0.202724     0.883068    Uiso  ? N
   N4         1.0     0.776706     0.094855     0.633054    Uiso  ? N
   N5         1.0     0.554823     0.205439     0.376592    Uiso  ? N
   N6         1.0     0.441926     0.096803     0.128204    Uiso  ? N
   N7         1.0     0.224080     0.202665     0.876450    Uiso  ? N
   N8         1.0     0.100540     0.087009     0.640043    Uiso  ? N
   N9         1.0     0.895615     0.191682     0.385626    Uiso  ? N
   N10        1.0     0.780289     0.093958     0.134548    Uiso  ? N
   N11        1.0     0.571598     0.184815     0.890997    Uiso  ? N
   N12        1.0     0.456221     0.102491     0.642032    Uiso  ? N
   N13        1.0     0.222283     0.536786     0.364758    Uiso  ? N
   N14        1.0     0.109820     0.426780     0.120797    Uiso  ? N
   N15        1.0     0.887167     0.539998     0.873457    Uiso  ? N
   N16        1.0     0.768986     0.416901     0.636749    Uiso  ? N
   N17        1.0     0.547846     0.525941     0.381018    Uiso  ? N
   N18        1.0     0.443030     0.426241     0.115594    Uiso  ? N
   N19        1.0     0.202398     0.553106     0.883234    Uiso  ? N
   N20        1.0     0.115575     0.429589     0.646580    Uiso  ? N
   N21        1.0     0.899604     0.548002     0.379608    Uiso  ? N
   N22        1.0     0.782814     0.426712     0.119242    Uiso  ? N
   N23        1.0     0.572876     0.532691     0.890967    Uiso  ? N
   N24        1.0     0.461167     0.414450     0.636698    Uiso  ? N
   N25        1.0     0.203544     0.880977     0.383100    Uiso  ? N
   N26        1.0     0.108479     0.763808     0.131079    Uiso  ? N
   N27        1.0     0.887909     0.875562     0.886259    Uiso  ? N
   N28        1.0     0.784475     0.774860     0.643175    Uiso  ? N
   N29        1.0     0.565738     0.879473     0.369910    Uiso  ? N
   N30        1.0     0.442423     0.763193     0.119815    Uiso  ? N
   N31        1.0     0.205726     0.878928     0.887440    Uiso  ? N
   N32        1.0     0.097424     0.779272     0.636712    Uiso  ? N
   N33        1.0     0.888570     0.873253     0.380463    Uiso  ? N
   N34        1.0     0.782240     0.759479     0.126570    Uiso  ? N
   N35        1.0     0.564531     0.877295     0.887219    Uiso  ? N
   N36        1.0     0.433194     0.751168     0.619815    Uiso  ? N
