
#======================================================================
# CRYSTAL DATA
#----------------------------------------------------------------------
data_VESTA_phase_1

_chemical_name_common                  'Al   Hf   Mg   N                      '
_cell_length_a                         10.008938
_cell_length_b                         9.982030
_cell_length_c                         9.254441
_cell_angle_alpha                      90.034500
_cell_angle_beta                       89.912460
_cell_angle_gamma                      59.852955
_cell_volume                           799.541902
_space_group_name_H-M_alt              'P 1'
_space_group_IT_number                 1

loop_
_space_group_symop_operation_xyz
   'x, y, z'

loop_
   _atom_site_label
   _atom_site_occupancy
   _atom_site_fract_x
   _atom_site_fract_y
   _atom_site_fract_z
   _atom_site_adp_type
   _atom_site_U_iso_or_equiv
   _atom_site_type_symbol
   Al1        1.0     0.106520     0.091663     0.324665    Uiso  ? Al
   Al2        1.0     0.225242     0.199225     0.077827    Uiso  ? Al
   Al3        1.0     0.783878     0.090087     0.832049    Uiso  ? Al
   Al4        1.0     0.884997     0.200400     0.577879    Uiso  ? Al
   Al5        1.0     0.449144     0.090480     0.325716    Uiso  ? Al
   Al6        1.0     0.563084     0.193180     0.092978    Uiso  ? Al
   Al7        1.0     0.103813     0.088235     0.843409    Uiso  ? Al
   Al8        1.0     0.782522     0.092054     0.331076    Uiso  ? Al
   Al9        1.0     0.888783     0.205142     0.086349    Uiso  ? Al
   Al10       1.0     0.459538     0.085379     0.841263    Uiso  ? Al
   Al11       1.0     0.565125     0.200643     0.573325    Uiso  ? Al
   Al12       1.0     0.109654     0.427112     0.317953    Uiso  ? Al
   Al13       1.0     0.214106     0.546862     0.088095    Uiso  ? Al
   Al14       1.0     0.779560     0.421457     0.853234    Uiso  ? Al
   Al15       1.0     0.445793     0.422316     0.319356    Uiso  ? Al
   Al16       1.0     0.560328     0.546111     0.105091    Uiso  ? Al
   Al17       1.0     0.107686     0.429267     0.857194    Uiso  ? Al
   Al18       1.0     0.884258     0.541806     0.080493    Uiso  ? Al
   Al19       1.0     0.553415     0.536455     0.563667    Uiso  ? Al
   Al20       1.0     0.103331     0.772110     0.326259    Uiso  ? Al
   Al21       1.0     0.225928     0.870103     0.083669    Uiso  ? Al
   Al22       1.0     0.774893     0.773401     0.843698    Uiso  ? Al
   Al23       1.0     0.883137     0.882062     0.578211    Uiso  ? Al
   Al24       1.0     0.554302     0.870000     0.090692    Uiso  ? Al
   Al25       1.0     0.099513     0.777288     0.838818    Uiso  ? Al
   Al26       1.0     0.218320     0.872438     0.577456    Uiso  ? Al
   Al27       1.0     0.778627     0.767337     0.324356    Uiso  ? Al
   Al28       1.0     0.888770     0.874723     0.083262    Uiso  ? Al
   Hf1        1.0     0.227400     0.195437     0.600698    Uiso  ? Hf
   Hf2        1.0     0.878456     0.545610     0.599008    Uiso  ? Hf
   Hf3        1.0     0.224347     0.547206     0.591096    Uiso  ? Hf
   Hf4        1.0     0.454059     0.423220     0.860422    Uiso  ? Hf
   Mg1        1.0     0.783011     0.421882     0.333392    Uiso  ? Mg
   Mg2        1.0     0.440068     0.766261     0.345095    Uiso  ? Mg
   Mg3        1.0     0.443977     0.763149     0.842570    Uiso  ? Mg
   Mg4        1.0     0.556270     0.870157     0.586210    Uiso  ? Mg
   N1         1.0     0.220276     0.207227     0.368092    Uiso  ? N
   N2         1.0     0.111626     0.096540     0.118101    Uiso  ? N
   N3         1.0     0.887686     0.201951     0.878182    Uiso  ? N
   N4         1.0     0.776217     0.095938     0.623453    Uiso  ? N
   N5         1.0     0.555800     0.204535     0.364187    Uiso  ? N
   N6         1.0     0.439971     0.098190     0.119136    Uiso  ? N
   N7         1.0     0.224275     0.201957     0.866044    Uiso  ? N
   N8         1.0     0.099514     0.086707     0.632963    Uiso  ? N
   N9         1.0     0.896611     0.190306     0.373158    Uiso  ? N
   N10        1.0     0.780682     0.093040     0.127296    Uiso  ? N
   N11        1.0     0.573200     0.185339     0.885523    Uiso  ? N
   N12        1.0     0.457698     0.102776     0.632227    Uiso  ? N
   N13        1.0     0.220888     0.536866     0.360639    Uiso  ? N
   N14        1.0     0.110900     0.426632     0.106876    Uiso  ? N
   N15        1.0     0.887366     0.540136     0.865522    Uiso  ? N
   N16        1.0     0.766329     0.418162     0.625742    Uiso  ? N
   N17        1.0     0.549960     0.525782     0.355490    Uiso  ? N
   N18        1.0     0.437913     0.424199     0.110288    Uiso  ? N
   N19        1.0     0.205895     0.552944     0.868093    Uiso  ? N
   N20        1.0     0.112685     0.428705     0.639983    Uiso  ? N
   N21        1.0     0.899585     0.547446     0.370382    Uiso  ? N
   N22        1.0     0.785937     0.425566     0.108979    Uiso  ? N
   N23        1.0     0.571714     0.532140     0.891010    Uiso  ? N
   N24        1.0     0.461411     0.415787     0.624824    Uiso  ? N
   N25        1.0     0.201992     0.882444     0.371580    Uiso  ? N
   N26        1.0     0.108500     0.762339     0.122357    Uiso  ? N
   N27        1.0     0.888080     0.877199     0.879247    Uiso  ? N
   N28        1.0     0.784927     0.774973     0.635242    Uiso  ? N
   N29        1.0     0.566554     0.879605     0.356210    Uiso  ? N
   N30        1.0     0.441251     0.764799     0.115116    Uiso  ? N
   N31        1.0     0.206778     0.877962     0.880313    Uiso  ? N
   N32        1.0     0.096189     0.781829     0.627366    Uiso  ? N
   N33        1.0     0.888001     0.873458     0.371268    Uiso  ? N
   N34        1.0     0.784024     0.759062     0.116001    Uiso  ? N
   N35        1.0     0.564064     0.877141     0.880697    Uiso  ? N
   N36        1.0     0.434129     0.749928     0.607364    Uiso  ? N
