
#======================================================================
# CRYSTAL DATA
#----------------------------------------------------------------------
data_VESTA_phase_1

_chemical_name_common                  'Al   Hf   Mg   N                      '
_cell_length_a                         9.681297
_cell_length_b                         9.661867
_cell_length_c                         10.158324
_cell_angle_alpha                      90.108849
_cell_angle_beta                       90.018791
_cell_angle_gamma                      59.943813
_cell_volume                           822.432492
_space_group_name_H-M_alt              'P 1'
_space_group_IT_number                 1

loop_
_space_group_symop_operation_xyz
   'x, y, z'

loop_
   _atom_site_label
   _atom_site_occupancy
   _atom_site_fract_x
   _atom_site_fract_y
   _atom_site_fract_z
   _atom_site_adp_type
   _atom_site_U_iso_or_equiv
   _atom_site_type_symbol
   Al1        1.0     0.105828     0.089614     0.393615    Uiso  ? Al
   Al2        1.0     0.224436     0.201359     0.153643    Uiso  ? Al
   Al3        1.0     0.783463     0.089113     0.902741    Uiso  ? Al
   Al4        1.0     0.883951     0.202180     0.653847    Uiso  ? Al
   Al5        1.0     0.451966     0.091302     0.394121    Uiso  ? Al
   Al6        1.0     0.559768     0.200628     0.157049    Uiso  ? Al
   Al7        1.0     0.107266     0.091197     0.908268    Uiso  ? Al
   Al8        1.0     0.781263     0.093640     0.399085    Uiso  ? Al
   Al9        1.0     0.889872     0.203120     0.154147    Uiso  ? Al
   Al10       1.0     0.453693     0.084523     0.910553    Uiso  ? Al
   Al11       1.0     0.567539     0.195502     0.647380    Uiso  ? Al
   Al12       1.0     0.108874     0.426745     0.385182    Uiso  ? Al
   Al13       1.0     0.220706     0.542785     0.162078    Uiso  ? Al
   Al14       1.0     0.781945     0.423002     0.909717    Uiso  ? Al
   Al15       1.0     0.455265     0.422201     0.395698    Uiso  ? Al
   Al16       1.0     0.555206     0.544200     0.160548    Uiso  ? Al
   Al17       1.0     0.106798     0.428798     0.915873    Uiso  ? Al
   Al18       1.0     0.886405     0.542660     0.155382    Uiso  ? Al
   Al19       1.0     0.557514     0.538571     0.650572    Uiso  ? Al
   Al20       1.0     0.103283     0.775703     0.393827    Uiso  ? Al
   Al21       1.0     0.225413     0.871006     0.153846    Uiso  ? Al
   Al22       1.0     0.773490     0.769085     0.909840    Uiso  ? Al
   Al23       1.0     0.882704     0.882345     0.651906    Uiso  ? Al
   Al24       1.0     0.556103     0.870018     0.154255    Uiso  ? Al
   Al25       1.0     0.101131     0.771698     0.905517    Uiso  ? Al
   Al26       1.0     0.217796     0.872831     0.654839    Uiso  ? Al
   Al27       1.0     0.778486     0.768440     0.393583    Uiso  ? Al
   Al28       1.0     0.888385     0.873471     0.152465    Uiso  ? Al
   Hf1        1.0     0.228565     0.193278     0.648663    Uiso  ? Hf
   Hf2        1.0     0.878064     0.545632     0.650612    Uiso  ? Hf
   Hf3        1.0     0.222092     0.548689     0.629957    Uiso  ? Hf
   Hf4        1.0     0.444750     0.426197     0.900655    Uiso  ? Hf
   Mg1        1.0     0.777161     0.424356     0.392729    Uiso  ? Mg
   Mg2        1.0     0.442153     0.761401     0.399472    Uiso  ? Mg
   Mg3        1.0     0.443516     0.766683     0.898891    Uiso  ? Mg
   Mg4        1.0     0.555290     0.870712     0.650858    Uiso  ? Mg
   N1         1.0     0.223045     0.202214     0.345583    Uiso  ? N
   N2         1.0     0.111501     0.095091     0.094571    Uiso  ? N
   N3         1.0     0.889999     0.204296     0.845854    Uiso  ? N
   N4         1.0     0.779399     0.094653     0.591749    Uiso  ? N
   N5         1.0     0.559363     0.203590     0.343445    Uiso  ? N
   N6         1.0     0.444720     0.096990     0.098281    Uiso  ? N
   N7         1.0     0.223262     0.206971     0.856123    Uiso  ? N
   N8         1.0     0.100185     0.088063     0.587531    Uiso  ? N
   N9         1.0     0.894555     0.190797     0.337822    Uiso  ? N
   N10        1.0     0.777185     0.094503     0.090950    Uiso  ? N
   N11        1.0     0.565274     0.189849     0.839227    Uiso  ? N
   N12        1.0     0.453644     0.101836     0.581763    Uiso  ? N
   N13        1.0     0.223193     0.540187     0.357038    Uiso  ? N
   N14        1.0     0.114142     0.427967     0.103220    Uiso  ? N
   N15        1.0     0.890729     0.538274     0.858154    Uiso  ? N
   N16        1.0     0.772825     0.417766     0.599656    Uiso  ? N
   N17        1.0     0.549512     0.531284     0.339700    Uiso  ? N
   N18        1.0     0.442206     0.426245     0.104549    Uiso  ? N
   N19        1.0     0.202079     0.548166     0.839229    Uiso  ? N
   N20        1.0     0.108900     0.423852     0.578216    Uiso  ? N
   N21        1.0     0.894300     0.548581     0.341895    Uiso  ? N
   N22        1.0     0.779435     0.426790     0.097907    Uiso  ? N
   N23        1.0     0.573637     0.526053     0.840267    Uiso  ? N
   N24        1.0     0.463358     0.414322     0.594914    Uiso  ? N
   N25        1.0     0.208288     0.879354     0.337261    Uiso  ? N
   N26        1.0     0.111512     0.758783     0.094817    Uiso  ? N
   N27        1.0     0.887853     0.871981     0.843164    Uiso  ? N
   N28        1.0     0.785851     0.771922     0.582712    Uiso  ? N
   N29        1.0     0.564475     0.879108     0.340138    Uiso  ? N
   N30        1.0     0.444432     0.761213     0.105428    Uiso  ? N
   N31        1.0     0.201701     0.881270     0.842084    Uiso  ? N
   N32        1.0     0.094621     0.785693     0.584741    Uiso  ? N
   N33        1.0     0.887896     0.876193     0.338993    Uiso  ? N
   N34        1.0     0.780396     0.761686     0.096788    Uiso  ? N
   N35        1.0     0.565552     0.878510     0.852242    Uiso  ? N
   N36        1.0     0.431625     0.753038     0.607455    Uiso  ? N
