
#======================================================================
# CRYSTAL DATA
#----------------------------------------------------------------------
data_VESTA_phase_1

_chemical_name_common                  'Al   Hf   Mg   N                      '
_cell_length_a                         9.704019
_cell_length_b                         9.691046
_cell_length_c                         10.100678
_cell_angle_alpha                      89.991623
_cell_angle_beta                       89.705757
_cell_angle_gamma                      59.987751
_cell_volume                           822.512293
_space_group_name_H-M_alt              'P 1'
_space_group_IT_number                 1

loop_
_space_group_symop_operation_xyz
   'x, y, z'

loop_
   _atom_site_label
   _atom_site_occupancy
   _atom_site_fract_x
   _atom_site_fract_y
   _atom_site_fract_z
   _atom_site_adp_type
   _atom_site_U_iso_or_equiv
   _atom_site_type_symbol
   Al1        1.0     0.104768     0.089291     0.376204    Uiso  ? Al
   Al2        1.0     0.224893     0.201283     0.135120    Uiso  ? Al
   Al3        1.0     0.784328     0.089371     0.883673    Uiso  ? Al
   Al4        1.0     0.882375     0.202921     0.635249    Uiso  ? Al
   Al5        1.0     0.452425     0.091535     0.376344    Uiso  ? Al
   Al6        1.0     0.560780     0.198840     0.137060    Uiso  ? Al
   Al7        1.0     0.108660     0.090976     0.888147    Uiso  ? Al
   Al8        1.0     0.780768     0.093204     0.381069    Uiso  ? Al
   Al9        1.0     0.892215     0.200320     0.135466    Uiso  ? Al
   Al10       1.0     0.454312     0.084672     0.890414    Uiso  ? Al
   Al11       1.0     0.567044     0.195651     0.629864    Uiso  ? Al
   Al12       1.0     0.108029     0.427768     0.367519    Uiso  ? Al
   Al13       1.0     0.218912     0.543626     0.141849    Uiso  ? Al
   Al14       1.0     0.781517     0.423098     0.895420    Uiso  ? Al
   Al15       1.0     0.449875     0.420217     0.370055    Uiso  ? Al
   Al16       1.0     0.555899     0.543542     0.146101    Uiso  ? Al
   Al17       1.0     0.107813     0.428528     0.896313    Uiso  ? Al
   Al18       1.0     0.888155     0.543432     0.136922    Uiso  ? Al
   Al19       1.0     0.554361     0.538714     0.590465    Uiso  ? Al
   Al20       1.0     0.102155     0.775732     0.375541    Uiso  ? Al
   Al21       1.0     0.224044     0.871930     0.134552    Uiso  ? Al
   Al22       1.0     0.774025     0.768811     0.890669    Uiso  ? Al
   Al23       1.0     0.882257     0.882123     0.633757    Uiso  ? Al
   Al24       1.0     0.557491     0.871075     0.135075    Uiso  ? Al
   Al25       1.0     0.101644     0.772157     0.886301    Uiso  ? Al
   Al26       1.0     0.218241     0.872366     0.635031    Uiso  ? Al
   Al27       1.0     0.778609     0.769001     0.376207    Uiso  ? Al
   Al28       1.0     0.888637     0.873519     0.133881    Uiso  ? Al
   Hf1        1.0     0.227116     0.194456     0.628090    Uiso  ? Hf
   Hf2        1.0     0.873877     0.545264     0.632793    Uiso  ? Hf
   Hf3        1.0     0.220276     0.549017     0.613910    Uiso  ? Hf
   Hf4        1.0     0.447135     0.427265     0.883474    Uiso  ? Hf
   Mg1        1.0     0.783646     0.420824     0.366690    Uiso  ? Mg
   Mg2        1.0     0.437970     0.769656     0.371973    Uiso  ? Mg
   Mg3        1.0     0.445947     0.763566     0.882510    Uiso  ? Mg
   Mg4        1.0     0.553908     0.870139     0.632090    Uiso  ? Mg
   N1         1.0     0.222583     0.202588     0.328967    Uiso  ? N
   N2         1.0     0.112963     0.094755     0.075485    Uiso  ? N
   N3         1.0     0.891142     0.204905     0.828205    Uiso  ? N
   N4         1.0     0.778811     0.094375     0.574156    Uiso  ? N
   N5         1.0     0.560052     0.201935     0.323852    Uiso  ? N
   N6         1.0     0.444763     0.097017     0.079278    Uiso  ? N
   N7         1.0     0.224347     0.207021     0.836291    Uiso  ? N
   N8         1.0     0.099248     0.087907     0.570117    Uiso  ? N
   N9         1.0     0.895505     0.187911     0.319348    Uiso  ? N
   N10        1.0     0.778411     0.093772     0.072620    Uiso  ? N
   N11        1.0     0.566763     0.189915     0.822028    Uiso  ? N
   N12        1.0     0.453750     0.101571     0.564750    Uiso  ? N
   N13        1.0     0.220671     0.541233     0.336500    Uiso  ? N
   N14        1.0     0.114910     0.427209     0.084500    Uiso  ? N
   N15        1.0     0.891612     0.537145     0.841085    Uiso  ? N
   N16        1.0     0.773697     0.415155     0.574984    Uiso  ? N
   N17        1.0     0.549336     0.531779     0.331911    Uiso  ? N
   N18        1.0     0.443167     0.426634     0.091540    Uiso  ? N
   N19        1.0     0.202734     0.549199     0.823162    Uiso  ? N
   N20        1.0     0.105886     0.426257     0.561515    Uiso  ? N
   N21        1.0     0.894952     0.550284     0.323968    Uiso  ? N
   N22        1.0     0.781865     0.425678     0.086380    Uiso  ? N
   N23        1.0     0.575136     0.526180     0.831390    Uiso  ? N
   N24        1.0     0.459248     0.412088     0.572743    Uiso  ? N
   N25        1.0     0.204831     0.880897     0.318250    Uiso  ? N
   N26        1.0     0.111351     0.759438     0.076185    Uiso  ? N
   N27        1.0     0.888472     0.872236     0.825180    Uiso  ? N
   N28        1.0     0.785632     0.771165     0.566155    Uiso  ? N
   N29        1.0     0.566080     0.880966     0.321568    Uiso  ? N
   N30        1.0     0.445249     0.761290     0.093649    Uiso  ? N
   N31        1.0     0.204041     0.880542     0.823561    Uiso  ? N
   N32        1.0     0.094647     0.784985     0.567036    Uiso  ? N
   N33        1.0     0.887553     0.876329     0.321386    Uiso  ? N
   N34        1.0     0.781427     0.761649     0.078379    Uiso  ? N
   N35        1.0     0.565779     0.877766     0.834721    Uiso  ? N
   N36        1.0     0.429764     0.756201     0.581418    Uiso  ? N
