
#======================================================================
# CRYSTAL DATA
#----------------------------------------------------------------------
data_VESTA_phase_1

_chemical_name_common                  'Al   Hf   Mg   N                      '
_cell_length_a                         9.681305
_cell_length_b                         9.661870
_cell_length_c                         10.158319
_cell_angle_alpha                      90.108788
_cell_angle_beta                       90.018768
_cell_angle_gamma                      59.943733
_cell_volume                           822.432257
_space_group_name_H-M_alt              'P 1'
_space_group_IT_number                 1

loop_
_space_group_symop_operation_xyz
   'x, y, z'

loop_
   _atom_site_label
   _atom_site_occupancy
   _atom_site_fract_x
   _atom_site_fract_y
   _atom_site_fract_z
   _atom_site_adp_type
   _atom_site_U_iso_or_equiv
   _atom_site_type_symbol
   Al1        1.0     0.105829     0.089613     0.398397    Uiso  ? Al
   Al2        1.0     0.224436     0.201359     0.158423    Uiso  ? Al
   Al3        1.0     0.783464     0.089113     0.907522    Uiso  ? Al
   Al4        1.0     0.883951     0.202180     0.658627    Uiso  ? Al
   Al5        1.0     0.451967     0.091302     0.398900    Uiso  ? Al
   Al6        1.0     0.559768     0.200629     0.161825    Uiso  ? Al
   Al7        1.0     0.107267     0.091197     0.913045    Uiso  ? Al
   Al8        1.0     0.781264     0.093640     0.403860    Uiso  ? Al
   Al9        1.0     0.889875     0.203120     0.158927    Uiso  ? Al
   Al10       1.0     0.453694     0.084522     0.915334    Uiso  ? Al
   Al11       1.0     0.567541     0.195502     0.652158    Uiso  ? Al
   Al12       1.0     0.108876     0.426745     0.389963    Uiso  ? Al
   Al13       1.0     0.220706     0.542785     0.166856    Uiso  ? Al
   Al14       1.0     0.781946     0.423002     0.914494    Uiso  ? Al
   Al15       1.0     0.455266     0.422201     0.400475    Uiso  ? Al
   Al16       1.0     0.555207     0.544200     0.165323    Uiso  ? Al
   Al17       1.0     0.106799     0.428798     0.920648    Uiso  ? Al
   Al18       1.0     0.886407     0.542659     0.160162    Uiso  ? Al
   Al19       1.0     0.557515     0.538571     0.655348    Uiso  ? Al
   Al20       1.0     0.103283     0.775703     0.398607    Uiso  ? Al
   Al21       1.0     0.225414     0.871007     0.158627    Uiso  ? Al
   Al22       1.0     0.773491     0.769085     0.914618    Uiso  ? Al
   Al23       1.0     0.882705     0.882346     0.656687    Uiso  ? Al
   Al24       1.0     0.556104     0.870018     0.159037    Uiso  ? Al
   Al25       1.0     0.101133     0.771698     0.910296    Uiso  ? Al
   Al26       1.0     0.217797     0.872830     0.659620    Uiso  ? Al
   Al27       1.0     0.778488     0.768440     0.398362    Uiso  ? Al
   Al28       1.0     0.888387     0.873470     0.157244    Uiso  ? Al
   Hf1        1.0     0.228568     0.193277     0.653441    Uiso  ? Hf
   Hf2        1.0     0.878064     0.545631     0.655389    Uiso  ? Hf
   Hf3        1.0     0.222093     0.548689     0.634734    Uiso  ? Hf
   Hf4        1.0     0.444751     0.426197     0.905431    Uiso  ? Hf
   Mg1        1.0     0.777161     0.424356     0.397507    Uiso  ? Mg
   Mg2        1.0     0.442154     0.761401     0.404250    Uiso  ? Mg
   Mg3        1.0     0.443518     0.766683     0.903670    Uiso  ? Mg
   Mg4        1.0     0.555292     0.870712     0.655636    Uiso  ? Mg
   N1         1.0     0.223046     0.202213     0.350364    Uiso  ? N
   N2         1.0     0.111502     0.095091     0.099348    Uiso  ? N
   N3         1.0     0.889999     0.204295     0.850632    Uiso  ? N
   N4         1.0     0.779400     0.094652     0.596525    Uiso  ? N
   N5         1.0     0.559363     0.203590     0.348222    Uiso  ? N
   N6         1.0     0.444721     0.096990     0.103061    Uiso  ? N
   N7         1.0     0.223264     0.206970     0.860900    Uiso  ? N
   N8         1.0     0.100185     0.088062     0.592312    Uiso  ? N
   N9         1.0     0.894557     0.190797     0.342601    Uiso  ? N
   N10        1.0     0.777186     0.094503     0.095730    Uiso  ? N
   N11        1.0     0.565276     0.189848     0.844005    Uiso  ? N
   N12        1.0     0.453646     0.101836     0.586541    Uiso  ? N
   N13        1.0     0.223194     0.540186     0.361817    Uiso  ? N
   N14        1.0     0.114143     0.427966     0.107996    Uiso  ? N
   N15        1.0     0.890730     0.538274     0.862931    Uiso  ? N
   N16        1.0     0.772825     0.417765     0.604433    Uiso  ? N
   N17        1.0     0.549513     0.531284     0.344476    Uiso  ? N
   N18        1.0     0.442207     0.426246     0.109326    Uiso  ? N
   N19        1.0     0.202079     0.548167     0.844006    Uiso  ? N
   N20        1.0     0.108901     0.423851     0.582996    Uiso  ? N
   N21        1.0     0.894301     0.548580     0.346675    Uiso  ? N
   N22        1.0     0.779437     0.426790     0.102685    Uiso  ? N
   N23        1.0     0.573639     0.526053     0.845044    Uiso  ? N
   N24        1.0     0.463359     0.414322     0.599691    Uiso  ? N
   N25        1.0     0.208289     0.879354     0.342041    Uiso  ? N
   N26        1.0     0.111514     0.758783     0.099596    Uiso  ? N
   N27        1.0     0.887854     0.871982     0.847944    Uiso  ? N
   N28        1.0     0.785854     0.771922     0.587491    Uiso  ? N
   N29        1.0     0.564477     0.879107     0.344919    Uiso  ? N
   N30        1.0     0.444433     0.761214     0.110207    Uiso  ? N
   N31        1.0     0.201703     0.881269     0.846864    Uiso  ? N
   N32        1.0     0.094623     0.785693     0.589521    Uiso  ? N
   N33        1.0     0.887898     0.876192     0.343772    Uiso  ? N
   N34        1.0     0.780397     0.761686     0.101568    Uiso  ? N
   N35        1.0     0.565553     0.878510     0.857020    Uiso  ? N
   N36        1.0     0.431626     0.753039     0.612233    Uiso  ? N
