
#======================================================================
# CRYSTAL DATA
#----------------------------------------------------------------------
data_VESTA_phase_1

_chemical_name_common                  'Al   Hf   Mg   N '
_cell_length_a                         9.680882
_cell_length_b                         9.661597
_cell_length_c                         10.158501
_cell_angle_alpha                      90.109634
_cell_angle_beta                       90.019287
_cell_angle_gamma                      59.946537
_cell_volume                           822.411081
_space_group_name_H-M_alt              'P 1'
_space_group_IT_number                 1

loop_
_space_group_symop_operation_xyz
   'x, y, z'

loop_
   _atom_site_label
   _atom_site_occupancy
   _atom_site_fract_x
   _atom_site_fract_y
   _atom_site_fract_z
   _atom_site_adp_type
   _atom_site_U_iso_or_equiv
   _atom_site_type_symbol
   Al1        1.0     0.105824     0.089638     0.403172    Uiso  ? Al
   Al2        1.0     0.224439     0.201373     0.163195    Uiso  ? Al
   Al3        1.0     0.783484     0.089093     0.912293    Uiso  ? Al
   Al4        1.0     0.883959     0.202181     0.663411    Uiso  ? Al
   Al5        1.0     0.451942     0.091300     0.403672    Uiso  ? Al
   Al6        1.0     0.559784     0.200603     0.166606    Uiso  ? Al
   Al7        1.0     0.107284     0.091203     0.917828    Uiso  ? Al
   Al8        1.0     0.781253     0.093646     0.408656    Uiso  ? Al
   Al9        1.0     0.889876     0.203120     0.163711    Uiso  ? Al
   Al10       1.0     0.453706     0.084488     0.920102    Uiso  ? Al
   Al11       1.0     0.567539     0.195474     0.656936    Uiso  ? Al
   Al12       1.0     0.108875     0.426786     0.394727    Uiso  ? Al
   Al13       1.0     0.220731     0.542794     0.171629    Uiso  ? Al
   Al14       1.0     0.781969     0.422983     0.919268    Uiso  ? Al
   Al15       1.0     0.455282     0.422185     0.405240    Uiso  ? Al
   Al16       1.0     0.555221     0.544185     0.170086    Uiso  ? Al
   Al17       1.0     0.106819     0.428805     0.925426    Uiso  ? Al
   Al18       1.0     0.886418     0.542658     0.164931    Uiso  ? Al
   Al19       1.0     0.557543     0.538530     0.660125    Uiso  ? Al
   Al20       1.0     0.103259     0.775735     0.403379    Uiso  ? Al
   Al21       1.0     0.225413     0.871013     0.163396    Uiso  ? Al
   Al22       1.0     0.773488     0.769073     0.919398    Uiso  ? Al
   Al23       1.0     0.882678     0.882347     0.661465    Uiso  ? Al
   Al24       1.0     0.556091     0.870005     0.163808    Uiso  ? Al
   Al25       1.0     0.101146     0.771695     0.915072    Uiso  ? Al
   Al26       1.0     0.217775     0.872855     0.664402    Uiso  ? Al
   Al27       1.0     0.778455     0.768455     0.403130    Uiso  ? Al
   Al28       1.0     0.888384     0.873473     0.162019    Uiso  ? Al
   Hf1        1.0     0.228540     0.193347     0.658217    Uiso  ? Hf
   Hf2        1.0     0.878071     0.545667     0.660172    Uiso  ? Hf
   Hf3        1.0     0.222133     0.548733     0.639501    Uiso  ? Hf
   Hf4        1.0     0.444776     0.426155     0.910209    Uiso  ? Hf
   Mg1        1.0     0.777165     0.424375     0.402288    Uiso  ? Mg
   Mg2        1.0     0.442129     0.761379     0.409029    Uiso  ? Mg
   Mg3        1.0     0.443522     0.766641     0.908439    Uiso  ? Mg
   Mg4        1.0     0.555235     0.870695     0.660407    Uiso  ? Mg
   N1         1.0     0.223029     0.202250     0.355136    Uiso  ? N
   N2         1.0     0.111505     0.095097     0.104128    Uiso  ? N
   N3         1.0     0.890016     0.204285     0.855408    Uiso  ? N
   N4         1.0     0.779399     0.094653     0.601315    Uiso  ? N
   N5         1.0     0.559360     0.203575     0.353000    Uiso  ? N
   N6         1.0     0.444726     0.096970     0.107829    Uiso  ? N
   N7         1.0     0.223278     0.206979     0.865676    Uiso  ? N
   N8         1.0     0.100196     0.088081     0.597093    Uiso  ? N
   N9         1.0     0.894545     0.190813     0.347388    Uiso  ? N
   N10        1.0     0.777195     0.094495     0.100498    Uiso  ? N
   N11        1.0     0.565299     0.189807     0.848776    Uiso  ? N
   N12        1.0     0.453622     0.101818     0.591315    Uiso  ? N
   N13        1.0     0.223207     0.540215     0.366583    Uiso  ? N
   N14        1.0     0.114162     0.427973     0.112769    Uiso  ? N
   N15        1.0     0.890750     0.538268     0.867710    Uiso  ? N
   N16        1.0     0.772858     0.417764     0.609211    Uiso  ? N
   N17        1.0     0.549527     0.531276     0.349233    Uiso  ? N
   N18        1.0     0.442231     0.426222     0.114096    Uiso  ? N
   N19        1.0     0.202110     0.548169     0.848771    Uiso  ? N
   N20        1.0     0.108908     0.423920     0.587757    Uiso  ? N
   N21        1.0     0.894301     0.548599     0.351438    Uiso  ? N
   N22        1.0     0.779451     0.426778     0.107453    Uiso  ? N
   N23        1.0     0.573662     0.526021     0.849813    Uiso  ? N
   N24        1.0     0.463396     0.414276     0.604448    Uiso  ? N
   N25        1.0     0.208275     0.879383     0.346808    Uiso  ? N
   N26        1.0     0.111515     0.758787     0.104368    Uiso  ? N
   N27        1.0     0.887863     0.871962     0.852721    Uiso  ? N
   N28        1.0     0.785795     0.771945     0.592260    Uiso  ? N
   N29        1.0     0.564440     0.879107     0.349688    Uiso  ? N
   N30        1.0     0.444429     0.761193     0.114964    Uiso  ? N
   N31        1.0     0.201707     0.881282     0.851642    Uiso  ? N
   N32        1.0     0.094582     0.785732     0.594288    Uiso  ? N
   N33        1.0     0.887874     0.876211     0.348544    Uiso  ? N
   N34        1.0     0.780387     0.761684     0.106343    Uiso  ? N
   N35        1.0     0.565554     0.878475     0.861784    Uiso  ? N
   N36        1.0     0.431593     0.752982     0.617007    Uiso  ? N
