
#======================================================================
# CRYSTAL DATA
#----------------------------------------------------------------------
data_VESTA_phase_1

_chemical_name_common                  'Al   Hf   Mg   N                      '
_cell_length_a                         10.194477
_cell_length_b                         10.165525
_cell_length_c                         8.727382
_cell_angle_alpha                      90.042191
_cell_angle_beta                       89.895752
_cell_angle_gamma                      59.844028
_cell_volume                           782.029546
_space_group_name_H-M_alt              'P 1'
_space_group_IT_number                 1

loop_
_space_group_symop_operation_xyz
   'x, y, z'

loop_
   _atom_site_label
   _atom_site_occupancy
   _atom_site_fract_x
   _atom_site_fract_y
   _atom_site_fract_z
   _atom_site_adp_type
   _atom_site_U_iso_or_equiv
   _atom_site_type_symbol
   Al1        1.0     0.106596     0.090609     0.331354    Uiso  ? Al
   Al2        1.0     0.225403     0.200580     0.095606    Uiso  ? Al
   Al3        1.0     0.783874     0.091015     0.845842    Uiso  ? Al
   Al4        1.0     0.885299     0.201177     0.587805    Uiso  ? Al
   Al5        1.0     0.451489     0.089440     0.336395    Uiso  ? Al
   Al6        1.0     0.561726     0.195418     0.104095    Uiso  ? Al
   Al7        1.0     0.103768     0.089663     0.858282    Uiso  ? Al
   Al8        1.0     0.782693     0.091755     0.338275    Uiso  ? Al
   Al9        1.0     0.888226     0.205657     0.099323    Uiso  ? Al
   Al10       1.0     0.457459     0.086606     0.856315    Uiso  ? Al
   Al11       1.0     0.565796     0.199408     0.581451    Uiso  ? Al
   Al12       1.0     0.109698     0.427237     0.328831    Uiso  ? Al
   Al13       1.0     0.216434     0.544404     0.106084    Uiso  ? Al
   Al14       1.0     0.780895     0.421353     0.865641    Uiso  ? Al
   Al15       1.0     0.447871     0.421960     0.332505    Uiso  ? Al
   Al16       1.0     0.559613     0.546675     0.113031    Uiso  ? Al
   Al17       1.0     0.107431     0.429381     0.870597    Uiso  ? Al
   Al18       1.0     0.885132     0.541854     0.101632    Uiso  ? Al
   Al19       1.0     0.553498     0.538512     0.570820    Uiso  ? Al
   Al20       1.0     0.102112     0.774581     0.335003    Uiso  ? Al
   Al21       1.0     0.227690     0.869298     0.095271    Uiso  ? Al
   Al22       1.0     0.775417     0.771784     0.856543    Uiso  ? Al
   Al23       1.0     0.883784     0.882124     0.590108    Uiso  ? Al
   Al24       1.0     0.554380     0.869409     0.100179    Uiso  ? Al
   Al25       1.0     0.100904     0.774568     0.858063    Uiso  ? Al
   Al26       1.0     0.219727     0.871804     0.591790    Uiso  ? Al
   Al27       1.0     0.777203     0.769471     0.333874    Uiso  ? Al
   Al28       1.0     0.887450     0.874734     0.094365    Uiso  ? Al
   Hf1        1.0     0.226871     0.195714     0.605624    Uiso  ? Hf
   Hf2        1.0     0.877735     0.545203     0.603081    Uiso  ? Hf
   Hf3        1.0     0.220844     0.549189     0.596840    Uiso  ? Hf
   Hf4        1.0     0.454214     0.422544     0.862734    Uiso  ? Hf
   Mg1        1.0     0.780655     0.420883     0.342510    Uiso  ? Mg
   Mg2        1.0     0.440082     0.766460     0.351239    Uiso  ? Mg
   Mg3        1.0     0.444748     0.761911     0.851071    Uiso  ? Mg
   Mg4        1.0     0.555746     0.869588     0.600872    Uiso  ? Mg
   N1         1.0     0.220708     0.205442     0.351614    Uiso  ? N
   N2         1.0     0.111344     0.096647     0.106273    Uiso  ? N
   N3         1.0     0.887745     0.203060     0.868464    Uiso  ? N
   N4         1.0     0.776685     0.096157     0.613271    Uiso  ? N
   N5         1.0     0.558265     0.202951     0.353956    Uiso  ? N
   N6         1.0     0.441588     0.098091     0.108907    Uiso  ? N
   N7         1.0     0.223398     0.205157     0.863686    Uiso  ? N
   N8         1.0     0.100827     0.087753     0.620733    Uiso  ? N
   N9         1.0     0.896455     0.190250     0.359644    Uiso  ? N
   N10        1.0     0.779675     0.093690     0.115368    Uiso  ? N
   N11        1.0     0.571027     0.188008     0.873817    Uiso  ? N
   N12        1.0     0.455588     0.102494     0.615482    Uiso  ? N
   N13        1.0     0.219616     0.538938     0.348433    Uiso  ? N
   N14        1.0     0.111821     0.427102     0.103332    Uiso  ? N
   N15        1.0     0.889995     0.538302     0.862306    Uiso  ? N
   N16        1.0     0.767149     0.419317     0.613308    Uiso  ? N
   N17        1.0     0.550274     0.527481     0.347372    Uiso  ? N
   N18        1.0     0.437245     0.423152     0.111089    Uiso  ? N
   N19        1.0     0.207461     0.549925     0.859846    Uiso  ? N
   N20        1.0     0.111055     0.428210     0.615166    Uiso  ? N
   N21        1.0     0.896342     0.547439     0.351844    Uiso  ? N
   N22        1.0     0.785404     0.425737     0.102094    Uiso  ? N
   N23        1.0     0.572002     0.529246     0.879906    Uiso  ? N
   N24        1.0     0.458342     0.417183     0.608088    Uiso  ? N
   N25        1.0     0.204485     0.881635     0.357420    Uiso  ? N
   N26        1.0     0.108477     0.761401     0.110576    Uiso  ? N
   N27        1.0     0.888308     0.876590     0.868773    Uiso  ? N
   N28        1.0     0.785428     0.772867     0.620373    Uiso  ? N
   N29        1.0     0.565867     0.878811     0.344818    Uiso  ? N
   N30        1.0     0.442583     0.763556     0.107895    Uiso  ? N
   N31        1.0     0.207077     0.877817     0.868854    Uiso  ? N
   N32        1.0     0.096837     0.781200     0.611486    Uiso  ? N
   N33        1.0     0.887138     0.874730     0.358699    Uiso  ? N
   N34        1.0     0.783459     0.759898     0.105384    Uiso  ? N
   N35        1.0     0.563821     0.877272     0.870454    Uiso  ? N
   N36        1.0     0.434526     0.750391     0.603748    Uiso  ? N
