
#======================================================================
# CRYSTAL DATA
#----------------------------------------------------------------------
data_VESTA_phase_1

_chemical_name_common                  'Al   Hf   Mg   N                      '
_cell_length_a                         9.670139
_cell_length_b                         9.653788
_cell_length_c                         10.160649
_cell_angle_alpha                      90.110909
_cell_angle_beta                       90.062164
_cell_angle_gamma                      59.955238
_cell_volume                           821.080394
_space_group_name_H-M_alt              'P 1'
_space_group_IT_number                 1

loop_
_space_group_symop_operation_xyz
   'x, y, z'

loop_
   _atom_site_label
   _atom_site_occupancy
   _atom_site_fract_x
   _atom_site_fract_y
   _atom_site_fract_z
   _atom_site_adp_type
   _atom_site_U_iso_or_equiv
   _atom_site_type_symbol
   Al1        1.0     0.105371     0.090667     0.303954    Uiso  ? Al
   Al2        1.0     0.223537     0.201760     0.057564    Uiso  ? Al
   Al3        1.0     0.784217     0.088447     0.809116    Uiso  ? Al
   Al4        1.0     0.884705     0.199253     0.556453    Uiso  ? Al
   Al5        1.0     0.452097     0.088572     0.300733    Uiso  ? Al
   Al6        1.0     0.561939     0.197027     0.063580    Uiso  ? Al
   Al7        1.0     0.107297     0.090052     0.815350    Uiso  ? Al
   Al8        1.0     0.780870     0.093831     0.309145    Uiso  ? Al
   Al9        1.0     0.888494     0.206743     0.057843    Uiso  ? Al
   Al10       1.0     0.453595     0.086291     0.815144    Uiso  ? Al
   Al11       1.0     0.565578     0.197889     0.552748    Uiso  ? Al
   Al12       1.0     0.108949     0.428284     0.294119    Uiso  ? Al
   Al13       1.0     0.215681     0.545379     0.063801    Uiso  ? Al
   Al14       1.0     0.781089     0.422129     0.815378    Uiso  ? Al
   Al15       1.0     0.450783     0.423511     0.297780    Uiso  ? Al
   Al16       1.0     0.561020     0.543660     0.060786    Uiso  ? Al
   Al17       1.0     0.107400     0.428397     0.823432    Uiso  ? Al
   Al18       1.0     0.884954     0.540405     0.054659    Uiso  ? Al
   Al19       1.0     0.553482     0.538286     0.550605    Uiso  ? Al
   Al20       1.0     0.104927     0.771646     0.302179    Uiso  ? Al
   Al21       1.0     0.223551     0.872060     0.056699    Uiso  ? Al
   Al22       1.0     0.776069     0.769160     0.815305    Uiso  ? Al
   Al23       1.0     0.883306     0.881328     0.555519    Uiso  ? Al
   Al24       1.0     0.555811     0.870327     0.058236    Uiso  ? Al
   Al25       1.0     0.100739     0.774166     0.813996    Uiso  ? Al
   Al26       1.0     0.219513     0.871969     0.555026    Uiso  ? Al
   Al27       1.0     0.776354     0.768390     0.301934    Uiso  ? Al
   Al28       1.0     0.888408     0.874168     0.058631    Uiso  ? Al
   Hf1        1.0     0.228220     0.195049     0.561373    Uiso  ? Hf
   Hf2        1.0     0.879518     0.545584     0.563977    Uiso  ? Hf
   Hf3        1.0     0.227533     0.547914     0.551569    Uiso  ? Hf
   Hf4        1.0     0.448278     0.424558     0.825458    Uiso  ? Hf
   Mg1        1.0     0.776251     0.424971     0.305243    Uiso  ? Mg
   Mg2        1.0     0.443221     0.761645     0.311087    Uiso  ? Mg
   Mg3        1.0     0.442117     0.766376     0.811158    Uiso  ? Mg
   Mg4        1.0     0.555024     0.870151     0.556214    Uiso  ? Mg
   N1         1.0     0.221979     0.206662     0.355107    Uiso  ? N
   N2         1.0     0.110200     0.095595     0.114677    Uiso  ? N
   N3         1.0     0.888826     0.202861     0.867396    Uiso  ? N
   N4         1.0     0.776744     0.094406     0.618379    Uiso  ? N
   N5         1.0     0.554958     0.205069     0.362329    Uiso  ? N
   N6         1.0     0.443041     0.096376     0.112714    Uiso  ? N
   N7         1.0     0.223815     0.203392     0.863540    Uiso  ? N
   N8         1.0     0.101328     0.087860     0.624874    Uiso  ? N
   N9         1.0     0.895518     0.192387     0.371590    Uiso  ? N
   N10        1.0     0.780132     0.094188     0.119524    Uiso  ? N
   N11        1.0     0.570389     0.186140     0.875451    Uiso  ? N
   N12        1.0     0.454736     0.102628     0.627506    Uiso  ? N
   N13        1.0     0.222047     0.537448     0.346808    Uiso  ? N
   N14        1.0     0.109843     0.427027     0.106527    Uiso  ? N
   N15        1.0     0.887433     0.539945     0.860086    Uiso  ? N
   N16        1.0     0.769621     0.416991     0.622438    Uiso  ? N
   N17        1.0     0.547584     0.526992     0.368980    Uiso  ? N
   N18        1.0     0.444329     0.426498     0.103352    Uiso  ? N
   N19        1.0     0.202846     0.552248     0.870397    Uiso  ? N
   N20        1.0     0.116023     0.429584     0.629983    Uiso  ? N
   N21        1.0     0.899235     0.547836     0.362210    Uiso  ? N
   N22        1.0     0.781692     0.426854     0.103251    Uiso  ? N
   N23        1.0     0.571995     0.531932     0.874070    Uiso  ? N
   N24        1.0     0.459966     0.414480     0.618255    Uiso  ? N
   N25        1.0     0.204428     0.880567     0.369070    Uiso  ? N
   N26        1.0     0.108503     0.764435     0.115734    Uiso  ? N
   N27        1.0     0.887849     0.874992     0.870791    Uiso  ? N
   N28        1.0     0.784894     0.773185     0.627893    Uiso  ? N
   N29        1.0     0.565264     0.879419     0.355589    Uiso  ? N
   N30        1.0     0.442815     0.762675     0.102879    Uiso  ? N
   N31        1.0     0.205582     0.879424     0.871903    Uiso  ? N
   N32        1.0     0.098276     0.778057     0.622109    Uiso  ? N
   N33        1.0     0.889012     0.872926     0.365990    Uiso  ? N
   N34        1.0     0.781596     0.760154     0.111759    Uiso  ? N
   N35        1.0     0.564658     0.877316     0.871425    Uiso  ? N
   N36        1.0     0.433161     0.751352     0.606432    Uiso  ? N
