
#======================================================================
# CRYSTAL DATA
#----------------------------------------------------------------------
data_VESTA_phase_1

_chemical_name_common                  'Al   Hf   Mg   N                      '
_cell_length_a                         9.906883
_cell_length_b                         9.882424
_cell_length_c                         9.542469
_cell_angle_alpha                      90.049820
_cell_angle_beta                       89.945869
_cell_angle_gamma                      59.864418
_cell_volume                           807.971894
_space_group_name_H-M_alt              'P 1'
_space_group_IT_number                 1

loop_
_space_group_symop_operation_xyz
   'x, y, z'

loop_
   _atom_site_label
   _atom_site_occupancy
   _atom_site_fract_x
   _atom_site_fract_y
   _atom_site_fract_z
   _atom_site_adp_type
   _atom_site_U_iso_or_equiv
   _atom_site_type_symbol
   Al1        1.0     0.106025     0.091667     0.323294    Uiso  ? Al
   Al2        1.0     0.224709     0.199603     0.074262    Uiso  ? Al
   Al3        1.0     0.784026     0.089419     0.828862    Uiso  ? Al
   Al4        1.0     0.884780     0.199815     0.575511    Uiso  ? Al
   Al5        1.0     0.449613     0.090179     0.323100    Uiso  ? Al
   Al6        1.0     0.563146     0.193018     0.087785    Uiso  ? Al
   Al7        1.0     0.104505     0.088143     0.837918    Uiso  ? Al
   Al8        1.0     0.781865     0.092848     0.328461    Uiso  ? Al
   Al9        1.0     0.888779     0.205985     0.081268    Uiso  ? Al
   Al10       1.0     0.458884     0.085093     0.836382    Uiso  ? Al
   Al11       1.0     0.565219     0.200609     0.571655    Uiso  ? Al
   Al12       1.0     0.109427     0.427464     0.315814    Uiso  ? Al
   Al13       1.0     0.213219     0.547197     0.082635    Uiso  ? Al
   Al14       1.0     0.779346     0.421322     0.842623    Uiso  ? Al
   Al15       1.0     0.446756     0.422638     0.315813    Uiso  ? Al
   Al16       1.0     0.561421     0.545714     0.095590    Uiso  ? Al
   Al17       1.0     0.107631     0.428941     0.850511    Uiso  ? Al
   Al18       1.0     0.883963     0.541316     0.074467    Uiso  ? Al
   Al19       1.0     0.553215     0.536275     0.563529    Uiso  ? Al
   Al20       1.0     0.103953     0.771438     0.323777    Uiso  ? Al
   Al21       1.0     0.225109     0.870766     0.079988    Uiso  ? Al
   Al22       1.0     0.774900     0.773200     0.838491    Uiso  ? Al
   Al23       1.0     0.882924     0.882332     0.574909    Uiso  ? Al
   Al24       1.0     0.554697     0.870027     0.085175    Uiso  ? Al
   Al25       1.0     0.099316     0.777290     0.834330    Uiso  ? Al
   Al26       1.0     0.218341     0.872263     0.574097    Uiso  ? Al
   Al27       1.0     0.778249     0.767159     0.322297    Uiso  ? Al
   Al28       1.0     0.888842     0.874329     0.080169    Uiso  ? Al
   Hf1        1.0     0.227705     0.195248     0.595157    Uiso  ? Hf
   Hf2        1.0     0.878850     0.546038     0.594645    Uiso  ? Hf
   Hf3        1.0     0.226061     0.546819     0.585328    Uiso  ? Hf
   Hf4        1.0     0.452820     0.423695     0.857477    Uiso  ? Hf
   Mg1        1.0     0.781976     0.422766     0.329514    Uiso  ? Mg
   Mg2        1.0     0.440941     0.764954     0.340406    Uiso  ? Mg
   Mg3        1.0     0.443471     0.764138     0.836685    Uiso  ? Mg
   Mg4        1.0     0.556113     0.870399     0.580041    Uiso  ? Mg
   N1         1.0     0.220536     0.207331     0.372497    Uiso  ? N
   N2         1.0     0.111311     0.096523     0.123294    Uiso  ? N
   N3         1.0     0.887980     0.202115     0.880479    Uiso  ? N
   N4         1.0     0.776308     0.095591     0.627753    Uiso  ? N
   N5         1.0     0.555229     0.205156     0.369520    Uiso  ? N
   N6         1.0     0.440182     0.097801     0.123503    Uiso  ? N
   N7         1.0     0.224405     0.201652     0.868871    Uiso  ? N
   N8         1.0     0.099560     0.086379     0.636131    Uiso  ? N
   N9         1.0     0.896182     0.190719     0.378893    Uiso  ? N
   N10        1.0     0.780679     0.093372     0.130526    Uiso  ? N
   N11        1.0     0.573030     0.184538     0.888206    Uiso  ? N
   N12        1.0     0.457927     0.102509     0.636634    Uiso  ? N
   N13        1.0     0.221729     0.536424     0.364502    Uiso  ? N
   N14        1.0     0.110340     0.426634     0.112168    Uiso  ? N
   N15        1.0     0.886851     0.540321     0.867566    Uiso  ? N
   N16        1.0     0.766912     0.417507     0.631414    Uiso  ? N
   N17        1.0     0.549417     0.525337     0.365294    Uiso  ? N
   N18        1.0     0.439584     0.425054     0.111063    Uiso  ? N
   N19        1.0     0.204372     0.553529     0.873419    Uiso  ? N
   N20        1.0     0.113720     0.429081     0.644472    Uiso  ? N
   N21        1.0     0.900096     0.547695     0.376597    Uiso  ? N
   N22        1.0     0.785244     0.425934     0.114173    Uiso  ? N
   N23        1.0     0.572461     0.532732     0.892471    Uiso  ? N
   N24        1.0     0.462051     0.415079     0.631581    Uiso  ? N
   N25        1.0     0.202089     0.882115     0.376459    Uiso  ? N
   N26        1.0     0.108596     0.762651     0.126518    Uiso  ? N
   N27        1.0     0.888057     0.876669     0.882669    Uiso  ? N
   N28        1.0     0.784537     0.775738     0.639004    Uiso  ? N
   N29        1.0     0.566471     0.879718     0.362407    Uiso  ? N
   N30        1.0     0.441452     0.764498     0.118001    Uiso  ? N
   N31        1.0     0.206303     0.878290     0.883807    Uiso  ? N
   N32        1.0     0.096226     0.781478     0.631543    Uiso  ? N
   N33        1.0     0.888157     0.873428     0.375187    Uiso  ? N
   N34        1.0     0.783591     0.758743     0.120934    Uiso  ? N
   N35        1.0     0.564317     0.877220     0.884154    Uiso  ? N
   N36        1.0     0.433781     0.750199     0.611785    Uiso  ? N
