
#======================================================================
# CRYSTAL DATA
#----------------------------------------------------------------------
data_VESTA_phase_1

_chemical_name_common                  'Al   Hf   Mg   N                      '
_cell_length_a                         9.735147
_cell_length_b                         9.717857
_cell_length_c                         10.058341
_cell_angle_alpha                      90.026711
_cell_angle_beta                       89.620430
_cell_angle_gamma                      60.017769
_cell_volume                           824.202860
_space_group_name_H-M_alt              'P 1'
_space_group_IT_number                 1

loop_
_space_group_symop_operation_xyz
   'x, y, z'

loop_
   _atom_site_label
   _atom_site_occupancy
   _atom_site_fract_x
   _atom_site_fract_y
   _atom_site_fract_z
   _atom_site_adp_type
   _atom_site_U_iso_or_equiv
   _atom_site_type_symbol
   Al1        1.0     0.104526     0.089242     0.377491    Uiso  ? Al
   Al2        1.0     0.224663     0.200949     0.134901    Uiso  ? Al
   Al3        1.0     0.786329     0.087579     0.884507    Uiso  ? Al
   Al4        1.0     0.880827     0.204729     0.634209    Uiso  ? Al
   Al5        1.0     0.452749     0.093024     0.376855    Uiso  ? Al
   Al6        1.0     0.563521     0.192348     0.132566    Uiso  ? Al
   Al7        1.0     0.108818     0.090605     0.887268    Uiso  ? Al
   Al8        1.0     0.779688     0.094148     0.381873    Uiso  ? Al
   Al9        1.0     0.894845     0.197625     0.137110    Uiso  ? Al
   Al10       1.0     0.454915     0.082601     0.890258    Uiso  ? Al
   Al11       1.0     0.568287     0.194964     0.634888    Uiso  ? Al
   Al12       1.0     0.108453     0.427439     0.368386    Uiso  ? Al
   Al13       1.0     0.211479     0.546887     0.136811    Uiso  ? Al
   Al14       1.0     0.789355     0.419054     0.899501    Uiso  ? Al
   Al15       1.0     0.445345     0.423965     0.320896    Uiso  ? Al
   Al16       1.0     0.559339     0.543965     0.110076    Uiso  ? Al
   Al17       1.0     0.106640     0.429215     0.894772    Uiso  ? Al
   Al18       1.0     0.889601     0.543846     0.138730    Uiso  ? Al
   Al19       1.0     0.549629     0.536226     0.548984    Uiso  ? Al
   Al20       1.0     0.101168     0.776798     0.376292    Uiso  ? Al
   Al21       1.0     0.222445     0.873223     0.134733    Uiso  ? Al
   Al22       1.0     0.773884     0.768240     0.889459    Uiso  ? Al
   Al23       1.0     0.882840     0.881830     0.633625    Uiso  ? Al
   Al24       1.0     0.557874     0.871805     0.135901    Uiso  ? Al
   Al25       1.0     0.100622     0.772204     0.885296    Uiso  ? Al
   Al26       1.0     0.219669     0.871224     0.633835    Uiso  ? Al
   Al27       1.0     0.778686     0.770126     0.377278    Uiso  ? Al
   Al28       1.0     0.888551     0.873442     0.134169    Uiso  ? Al
   Hf1        1.0     0.227801     0.194380     0.627320    Uiso  ? Hf
   Hf2        1.0     0.872891     0.544602     0.630080    Uiso  ? Hf
   Hf3        1.0     0.222147     0.548066     0.614523    Uiso  ? Hf
   Hf4        1.0     0.447603     0.425124     0.872072    Uiso  ? Hf
   Mg1        1.0     0.785711     0.419910     0.360448    Uiso  ? Mg
   Mg2        1.0     0.436212     0.773329     0.365753    Uiso  ? Mg
   Mg3        1.0     0.442993     0.767873     0.881270    Uiso  ? Mg
   Mg4        1.0     0.553727     0.869092     0.630018    Uiso  ? Mg
   N1         1.0     0.222769     0.202603     0.329300    Uiso  ? N
   N2         1.0     0.113305     0.094391     0.075435    Uiso  ? N
   N3         1.0     0.891229     0.204866     0.828494    Uiso  ? N
   N4         1.0     0.778197     0.094616     0.574907    Uiso  ? N
   N5         1.0     0.560390     0.201911     0.321603    Uiso  ? N
   N6         1.0     0.444177     0.095491     0.079306    Uiso  ? N
   N7         1.0     0.224792     0.206821     0.836418    Uiso  ? N
   N8         1.0     0.099134     0.088284     0.571143    Uiso  ? N
   N9         1.0     0.896094     0.186626     0.321081    Uiso  ? N
   N10        1.0     0.780599     0.092522     0.073627    Uiso  ? N
   N11        1.0     0.571210     0.183300     0.828504    Uiso  ? N
   N12        1.0     0.454815     0.103119     0.565489    Uiso  ? N
   N13        1.0     0.218578     0.542443     0.334275    Uiso  ? N
   N14        1.0     0.113586     0.426833     0.083805    Uiso  ? N
   N15        1.0     0.891076     0.536266     0.839812    Uiso  ? N
   N16        1.0     0.770108     0.416895     0.575589    Uiso  ? N
   N17        1.0     0.547879     0.531572     0.347938    Uiso  ? N
   N18        1.0     0.439531     0.425341     0.101145    Uiso  ? N
   N19        1.0     0.197665     0.551956     0.825632    Uiso  ? N
   N20        1.0     0.106897     0.425424     0.561894    Uiso  ? N
   N21        1.0     0.895625     0.551368     0.326134    Uiso  ? N
   N22        1.0     0.790536     0.421384     0.093006    Uiso  ? N
   N23        1.0     0.574899     0.528982     0.885492    Uiso  ? N
   N24        1.0     0.462334     0.417142     0.620854    Uiso  ? N
   N25        1.0     0.203138     0.881796     0.318634    Uiso  ? N
   N26        1.0     0.109912     0.761171     0.075940    Uiso  ? N
   N27        1.0     0.888369     0.872047     0.825488    Uiso  ? N
   N28        1.0     0.785750     0.771499     0.567039    Uiso  ? N
   N29        1.0     0.566939     0.882433     0.322595    Uiso  ? N
   N30        1.0     0.442709     0.766664     0.097949    Uiso  ? N
   N31        1.0     0.203510     0.880513     0.823617    Uiso  ? N
   N32        1.0     0.095187     0.784854     0.567655    Uiso  ? N
   N33        1.0     0.887150     0.877034     0.322040    Uiso  ? N
   N34        1.0     0.781564     0.761184     0.078539    Uiso  ? N
   N35        1.0     0.566055     0.876704     0.833861    Uiso  ? N
   N36        1.0     0.430941     0.754135     0.581026    Uiso  ? N
