
#======================================================================
# CRYSTAL DATA
#----------------------------------------------------------------------
data_VESTA_phase_1

_chemical_name_common                  'Al   Hf   Mg   N                      '
_cell_length_a                         9.853894
_cell_length_b                         9.830758
_cell_length_c                         9.689243
_cell_angle_alpha                      90.059425
_cell_angle_beta                       89.966316
_cell_angle_gamma                      59.872742
_cell_volume                           811.813870
_space_group_name_H-M_alt              'P 1'
_space_group_IT_number                 1

loop_
_space_group_symop_operation_xyz
   'x, y, z'

loop_
   _atom_site_label
   _atom_site_occupancy
   _atom_site_fract_x
   _atom_site_fract_y
   _atom_site_fract_z
   _atom_site_adp_type
   _atom_site_U_iso_or_equiv
   _atom_site_type_symbol
   Al1        1.0     0.105793     0.091497     0.322635    Uiso  ? Al
   Al2        1.0     0.224376     0.200044     0.073527    Uiso  ? Al
   Al3        1.0     0.784110     0.089130     0.827703    Uiso  ? Al
   Al4        1.0     0.884735     0.199542     0.574564    Uiso  ? Al
   Al5        1.0     0.450115     0.089868     0.321878    Uiso  ? Al
   Al6        1.0     0.563067     0.193309     0.085492    Uiso  ? Al
   Al7        1.0     0.105020     0.088330     0.835868    Uiso  ? Al
   Al8        1.0     0.781516     0.093214     0.327425    Uiso  ? Al
   Al9        1.0     0.888698     0.206375     0.079226    Uiso  ? Al
   Al10       1.0     0.458056     0.085152     0.834601    Uiso  ? Al
   Al11       1.0     0.565299     0.200377     0.571093    Uiso  ? Al
   Al12       1.0     0.109315     0.427650     0.314909    Uiso  ? Al
   Al13       1.0     0.213101     0.547071     0.081209    Uiso  ? Al
   Al14       1.0     0.779614     0.421318     0.838479    Uiso  ? Al
   Al15       1.0     0.447639     0.422854     0.314730    Uiso  ? Al
   Al16       1.0     0.561824     0.545504     0.090315    Uiso  ? Al
   Al17       1.0     0.107574     0.428789     0.847312    Uiso  ? Al
   Al18       1.0     0.884065     0.541001     0.072821    Uiso  ? Al
   Al19       1.0     0.553125     0.536480     0.564338    Uiso  ? Al
   Al20       1.0     0.104202     0.771316     0.322594    Uiso  ? Al
   Al21       1.0     0.224734     0.871051     0.078300    Uiso  ? Al
   Al22       1.0     0.775049     0.772670     0.836427    Uiso  ? Al
   Al23       1.0     0.882890     0.882356     0.573723    Uiso  ? Al
   Al24       1.0     0.554925     0.870041     0.082472    Uiso  ? Al
   Al25       1.0     0.099417     0.776891     0.832816    Uiso  ? Al
   Al26       1.0     0.218495     0.872146     0.572973    Uiso  ? Al
   Al27       1.0     0.777868     0.767324     0.321396    Uiso  ? Al
   Al28       1.0     0.888790     0.874186     0.078801    Uiso  ? Al
   Hf1        1.0     0.227834     0.195150     0.591641    Uiso  ? Hf
   Hf2        1.0     0.879033     0.546194     0.591865    Uiso  ? Hf
   Hf3        1.0     0.226855     0.546778     0.581765    Uiso  ? Hf
   Hf4        1.0     0.451906     0.423943     0.855364    Uiso  ? Hf
   Mg1        1.0     0.780809     0.423339     0.327892    Uiso  ? Mg
   Mg2        1.0     0.441557     0.764053     0.337682    Uiso  ? Mg
   Mg3        1.0     0.443133     0.764754     0.833858    Uiso  ? Mg
   Mg4        1.0     0.555927     0.870459     0.577715    Uiso  ? Mg
   N1         1.0     0.220783     0.207209     0.373550    Uiso  ? N
   N2         1.0     0.111085     0.096414     0.125516    Uiso  ? N
   N3         1.0     0.888129     0.202328     0.881414    Uiso  ? N
   N4         1.0     0.776416     0.095386     0.629660    Uiso  ? N
   N5         1.0     0.555039     0.205362     0.372012    Uiso  ? N
   N6         1.0     0.440586     0.097504     0.125323    Uiso  ? N
   N7         1.0     0.224360     0.201825     0.870981    Uiso  ? N
   N8         1.0     0.099741     0.086397     0.637505    Uiso  ? N
   N9         1.0     0.895976     0.190964     0.381319    Uiso  ? N
   N10        1.0     0.780588     0.093567     0.131915    Uiso  ? N
   N11        1.0     0.572713     0.184365     0.889226    Uiso  ? N
   N12        1.0     0.457674     0.102428     0.638519    Uiso  ? N
   N13        1.0     0.222052     0.536399     0.365287    Uiso  ? N
   N14        1.0     0.110116     0.426652     0.115190    Uiso  ? N
   N15        1.0     0.886817     0.540244     0.869129    Uiso  ? N
   N16        1.0     0.767487     0.417211     0.633371    Uiso  ? N
   N17        1.0     0.548954     0.525324     0.370833    Uiso  ? N
   N18        1.0     0.440698     0.425504     0.111968    Uiso  ? N
   N19        1.0     0.203559     0.553571     0.876506    Uiso  ? N
   N20        1.0     0.114302     0.429279     0.645618    Uiso  ? N
   N21        1.0     0.900078     0.547844     0.378404    Uiso  ? N
   N22        1.0     0.784566     0.426209     0.116361    Uiso  ? N
   N23        1.0     0.572821     0.532850     0.892160    Uiso  ? N
   N24        1.0     0.462002     0.414779     0.634170    Uiso  ? N
   N25        1.0     0.202437     0.881794     0.378724    Uiso  ? N
   N26        1.0     0.108589     0.762936     0.128243    Uiso  ? N
   N27        1.0     0.888022     0.876334     0.884045    Uiso  ? N
   N28        1.0     0.784417     0.775798     0.640528    Uiso  ? N
   N29        1.0     0.566309     0.879682     0.365184    Uiso  ? N
   N30        1.0     0.441740     0.764109     0.118985    Uiso  ? N
   N31        1.0     0.206087     0.878478     0.885215    Uiso  ? N
   N32        1.0     0.096448     0.780986     0.633367    Uiso  ? N
   N33        1.0     0.888252     0.873423     0.376977    Uiso  ? N
   N34        1.0     0.783209     0.758820     0.123034    Uiso  ? N
   N35        1.0     0.564406     0.877245     0.885395    Uiso  ? N
   N36        1.0     0.433558     0.750490     0.614405    Uiso  ? N
