
#======================================================================
# CRYSTAL DATA
#----------------------------------------------------------------------
data_VESTA_phase_1

_chemical_name_common                  'Al   Hf   Mg   N                      '
_cell_length_a                         10.058009
_cell_length_b                         10.030157
_cell_length_c                         9.114567
_cell_angle_alpha                      90.030975
_cell_angle_beta                       89.902008
_cell_angle_gamma                      59.849140
_cell_volume                           795.102306
_space_group_name_H-M_alt              'P 1'
_space_group_IT_number                 1

loop_
_space_group_symop_operation_xyz
   'x, y, z'

loop_
   _atom_site_label
   _atom_site_occupancy
   _atom_site_fract_x
   _atom_site_fract_y
   _atom_site_fract_z
   _atom_site_adp_type
   _atom_site_U_iso_or_equiv
   _atom_site_type_symbol
   Al1        1.0     0.106703     0.091495     0.325535    Uiso  ? Al
   Al2        1.0     0.225387     0.199358     0.080920    Uiso  ? Al
   Al3        1.0     0.783831     0.090425     0.834275    Uiso  ? Al
   Al4        1.0     0.885156     0.200641     0.579456    Uiso  ? Al
   Al5        1.0     0.449286     0.090422     0.327360    Uiso  ? Al
   Al6        1.0     0.562946     0.193554     0.095774    Uiso  ? Al
   Al7        1.0     0.103642     0.088488     0.846854    Uiso  ? Al
   Al8        1.0     0.782758     0.091734     0.332611    Uiso  ? Al
   Al9        1.0     0.888648     0.204918     0.089362    Uiso  ? Al
   Al10       1.0     0.459363     0.085679     0.844408    Uiso  ? Al
   Al11       1.0     0.565150     0.200478     0.574576    Uiso  ? Al
   Al12       1.0     0.109759     0.426978     0.319509    Uiso  ? Al
   Al13       1.0     0.214730     0.546416     0.092219    Uiso  ? Al
   Al14       1.0     0.779916     0.421515     0.858398    Uiso  ? Al
   Al15       1.0     0.445868     0.422225     0.321931    Uiso  ? Al
   Al16       1.0     0.559881     0.546311     0.108416    Uiso  ? Al
   Al17       1.0     0.107641     0.429408     0.860484    Uiso  ? Al
   Al18       1.0     0.884557     0.541898     0.085133    Uiso  ? Al
   Al19       1.0     0.553441     0.536829     0.564703    Uiso  ? Al
   Al20       1.0     0.102978     0.772644     0.327665    Uiso  ? Al
   Al21       1.0     0.226374     0.869757     0.085786    Uiso  ? Al
   Al22       1.0     0.775012     0.773116     0.846808    Uiso  ? Al
   Al23       1.0     0.883298     0.881923     0.580362    Uiso  ? Al
   Al24       1.0     0.554174     0.869941     0.093341    Uiso  ? Al
   Al25       1.0     0.099780     0.776910     0.842008    Uiso  ? Al
   Al26       1.0     0.218479     0.872449     0.579792    Uiso  ? Al
   Al27       1.0     0.778543     0.767718     0.325738    Uiso  ? Al
   Al28       1.0     0.888609     0.874910     0.085133    Uiso  ? Al
   Hf1        1.0     0.227245     0.195500     0.602703    Uiso  ? Hf
   Hf2        1.0     0.878236     0.545430     0.600593    Uiso  ? Hf
   Hf3        1.0     0.223461     0.547559     0.593282    Uiso  ? Hf
   Hf4        1.0     0.454363     0.423000     0.861408    Uiso  ? Hf
   Mg1        1.0     0.782803     0.421571     0.335767    Uiso  ? Mg
   Mg2        1.0     0.439898     0.766564     0.347007    Uiso  ? Mg
   Mg3        1.0     0.444159     0.762764     0.845231    Uiso  ? Mg
   Mg4        1.0     0.556235     0.870007     0.590005    Uiso  ? Mg
   N1         1.0     0.220279     0.206963     0.364742    Uiso  ? N
   N2         1.0     0.111676     0.096503     0.115157    Uiso  ? N
   N3         1.0     0.887529     0.202122     0.876634    Uiso  ? N
   N4         1.0     0.776243     0.096077     0.621102    Uiso  ? N
   N5         1.0     0.556213     0.204146     0.361437    Uiso  ? N
   N6         1.0     0.440171     0.098250     0.116620    Uiso  ? N
   N7         1.0     0.224107     0.202462     0.865230    Uiso  ? N
   N8         1.0     0.099645     0.086974     0.630971    Uiso  ? N
   N9         1.0     0.896782     0.190138     0.369900    Uiso  ? N
   N10        1.0     0.780574     0.092972     0.125255    Uiso  ? N
   N11        1.0     0.573004     0.185922     0.883649    Uiso  ? N
   N12        1.0     0.457316     0.102877     0.629433    Uiso  ? N
   N13        1.0     0.220443     0.537274     0.357693    Uiso  ? N
   N14        1.0     0.111205     0.426665     0.104960    Uiso  ? N
   N15        1.0     0.887801     0.539807     0.864814    Uiso  ? N
   N16        1.0     0.766334     0.418474     0.622080    Uiso  ? N
   N17        1.0     0.550058     0.526148     0.352051    Uiso  ? N
   N18        1.0     0.437464     0.423865     0.110286    Uiso  ? N
   N19        1.0     0.206524     0.552385     0.865758    Uiso  ? N
   N20        1.0     0.112211     0.428551     0.636175    Uiso  ? N
   N21        1.0     0.899035     0.547383     0.365987    Uiso  ? N
   N22        1.0     0.785959     0.425510     0.106652    Uiso  ? N
   N23        1.0     0.571586     0.531594     0.889057    Uiso  ? N
   N24        1.0     0.460791     0.416138     0.620888    Uiso  ? N
   N25        1.0     0.202272     0.882426     0.368835    Uiso  ? N
   N26        1.0     0.108431     0.762227     0.119841    Uiso  ? N
   N27        1.0     0.888073     0.877335     0.877170    Uiso  ? N
   N28        1.0     0.785152     0.774408     0.632739    Uiso  ? N
   N29        1.0     0.566480     0.879469     0.352983    Uiso  ? N
   N30        1.0     0.441391     0.764662     0.113387    Uiso  ? N
   N31        1.0     0.207011     0.877840     0.878183    Uiso  ? N
   N32        1.0     0.096306     0.781783     0.624843    Uiso  ? N
   N33        1.0     0.887906     0.873558     0.368975    Uiso  ? N
   N34        1.0     0.784038     0.759372     0.113230    Uiso  ? N
   N35        1.0     0.563923     0.877095     0.878418    Uiso  ? N
   N36        1.0     0.434241     0.749959     0.605797    Uiso  ? N
