
#======================================================================
# CRYSTAL DATA
#----------------------------------------------------------------------
data_VESTA_phase_1

_chemical_name_common                  'Al   Hf   Mg   N                      '
_cell_length_a                         9.681413
_cell_length_b                         9.662035
_cell_length_c                         10.158013
_cell_angle_alpha                      90.106911
_cell_angle_beta                       90.014351
_cell_angle_gamma                      59.943462
_cell_volume                           822.428505
_space_group_name_H-M_alt              'P 1'
_space_group_IT_number                 1

loop_
_space_group_symop_operation_xyz
   'x, y, z'

loop_
   _atom_site_label
   _atom_site_occupancy
   _atom_site_fract_x
   _atom_site_fract_y
   _atom_site_fract_z
   _atom_site_adp_type
   _atom_site_U_iso_or_equiv
   _atom_site_type_symbol
   Al1        1.0     0.105813     0.089612     0.379211    Uiso  ? Al
   Al2        1.0     0.224430     0.201361     0.139241    Uiso  ? Al
   Al3        1.0     0.783461     0.089114     0.888335    Uiso  ? Al
   Al4        1.0     0.883936     0.202179     0.639438    Uiso  ? Al
   Al5        1.0     0.451954     0.091307     0.379717    Uiso  ? Al
   Al6        1.0     0.559762     0.200629     0.142640    Uiso  ? Al
   Al7        1.0     0.107265     0.091197     0.893859    Uiso  ? Al
   Al8        1.0     0.781250     0.093641     0.384680    Uiso  ? Al
   Al9        1.0     0.889870     0.203116     0.139738    Uiso  ? Al
   Al10       1.0     0.453688     0.084525     0.896142    Uiso  ? Al
   Al11       1.0     0.567523     0.195504     0.632980    Uiso  ? Al
   Al12       1.0     0.108857     0.426752     0.370778    Uiso  ? Al
   Al13       1.0     0.220698     0.542787     0.147671    Uiso  ? Al
   Al14       1.0     0.781939     0.423003     0.895311    Uiso  ? Al
   Al15       1.0     0.455245     0.422201     0.381290    Uiso  ? Al
   Al16       1.0     0.555200     0.544199     0.146148    Uiso  ? Al
   Al17       1.0     0.106793     0.428798     0.901464    Uiso  ? Al
   Al18       1.0     0.886400     0.542663     0.140979    Uiso  ? Al
   Al19       1.0     0.557498     0.538570     0.636133    Uiso  ? Al
   Al20       1.0     0.103270     0.775704     0.379421    Uiso  ? Al
   Al21       1.0     0.225407     0.871009     0.139437    Uiso  ? Al
   Al22       1.0     0.773490     0.769085     0.895430    Uiso  ? Al
   Al23       1.0     0.882691     0.882347     0.637502    Uiso  ? Al
   Al24       1.0     0.556100     0.870022     0.139846    Uiso  ? Al
   Al25       1.0     0.101128     0.771701     0.891115    Uiso  ? Al
   Al26       1.0     0.217789     0.872827     0.640431    Uiso  ? Al
   Al27       1.0     0.778472     0.768447     0.379180    Uiso  ? Al
   Al28       1.0     0.888380     0.873472     0.138059    Uiso  ? Al
   Hf1        1.0     0.228539     0.193286     0.634246    Uiso  ? Hf
   Hf2        1.0     0.878029     0.545637     0.636198    Uiso  ? Hf
   Hf3        1.0     0.222067     0.548692     0.615559    Uiso  ? Hf
   Hf4        1.0     0.444749     0.426203     0.886244    Uiso  ? Hf
   Mg1        1.0     0.777153     0.424351     0.378309    Uiso  ? Mg
   Mg2        1.0     0.442136     0.761413     0.385049    Uiso  ? Mg
   Mg3        1.0     0.443520     0.766677     0.884486    Uiso  ? Mg
   Mg4        1.0     0.555270     0.870718     0.636451    Uiso  ? Mg
   N1         1.0     0.223031     0.202218     0.331189    Uiso  ? N
   N2         1.0     0.111502     0.095093     0.080166    Uiso  ? N
   N3         1.0     0.889998     0.204297     0.831450    Uiso  ? N
   N4         1.0     0.779385     0.094653     0.577347    Uiso  ? N
   N5         1.0     0.559352     0.203592     0.329042    Uiso  ? N
   N6         1.0     0.444715     0.096994     0.083877    Uiso  ? N
   N7         1.0     0.223261     0.206972     0.841711    Uiso  ? N
   N8         1.0     0.100172     0.088057     0.573128    Uiso  ? N
   N9         1.0     0.894547     0.190792     0.323416    Uiso  ? N
   N10        1.0     0.777184     0.094502     0.076547    Uiso  ? N
   N11        1.0     0.565274     0.189850     0.824829    Uiso  ? N
   N12        1.0     0.453629     0.101843     0.567365    Uiso  ? N
   N13        1.0     0.223178     0.540189     0.342633    Uiso  ? N
   N14        1.0     0.114139     0.427966     0.088817    Uiso  ? N
   N15        1.0     0.890729     0.538272     0.843745    Uiso  ? N
   N16        1.0     0.772814     0.417754     0.585235    Uiso  ? N
   N17        1.0     0.549499     0.531285     0.325307    Uiso  ? N
   N18        1.0     0.442206     0.426248     0.090147    Uiso  ? N
   N19        1.0     0.202076     0.548171     0.824837    Uiso  ? N
   N20        1.0     0.108873     0.423865     0.563818    Uiso  ? N
   N21        1.0     0.894285     0.548587     0.327497    Uiso  ? N
   N22        1.0     0.779434     0.426790     0.083509    Uiso  ? N
   N23        1.0     0.573641     0.526054     0.825849    Uiso  ? N
   N24        1.0     0.463333     0.414324     0.580513    Uiso  ? N
   N25        1.0     0.208274     0.879357     0.322854    Uiso  ? N
   N26        1.0     0.111510     0.758785     0.080416    Uiso  ? N
   N27        1.0     0.887853     0.871983     0.828763    Uiso  ? N
   N28        1.0     0.785837     0.771929     0.568313    Uiso  ? N
   N29        1.0     0.564467     0.879116     0.325735    Uiso  ? N
   N30        1.0     0.444435     0.761212     0.091033    Uiso  ? N
   N31        1.0     0.201704     0.881268     0.827684    Uiso  ? N
   N32        1.0     0.094614     0.785692     0.570341    Uiso  ? N
   N33        1.0     0.887887     0.876195     0.324592    Uiso  ? N
   N34        1.0     0.780397     0.761686     0.082384    Uiso  ? N
   N35        1.0     0.565553     0.878508     0.837840    Uiso  ? N
   N36        1.0     0.431617     0.753042     0.593037    Uiso  ? N
