
#======================================================================
# CRYSTAL DATA
#----------------------------------------------------------------------
data_VESTA_phase_1

_chemical_name_common                  'Al   Hf   Mg   N                      '
_cell_length_a                         9.670138
_cell_length_b                         9.653785
_cell_length_c                         10.160659
_cell_angle_alpha                      90.110909
_cell_angle_beta                       90.062126
_cell_angle_gamma                      59.955235
_cell_volume                           821.080809
_space_group_name_H-M_alt              'P 1'
_space_group_IT_number                 1

loop_
_space_group_symop_operation_xyz
   'x, y, z'

loop_
   _atom_site_label
   _atom_site_occupancy
   _atom_site_fract_x
   _atom_site_fract_y
   _atom_site_fract_z
   _atom_site_adp_type
   _atom_site_U_iso_or_equiv
   _atom_site_type_symbol
   Al1        1.0     0.105373     0.090667     0.308038    Uiso  ? Al
   Al2        1.0     0.223538     0.201760     0.061644    Uiso  ? Al
   Al3        1.0     0.784219     0.088447     0.813200    Uiso  ? Al
   Al4        1.0     0.884706     0.199252     0.560533    Uiso  ? Al
   Al5        1.0     0.452098     0.088572     0.304817    Uiso  ? Al
   Al6        1.0     0.561940     0.197026     0.067661    Uiso  ? Al
   Al7        1.0     0.107298     0.090051     0.819429    Uiso  ? Al
   Al8        1.0     0.780869     0.093832     0.313229    Uiso  ? Al
   Al9        1.0     0.888495     0.206742     0.061924    Uiso  ? Al
   Al10       1.0     0.453596     0.086290     0.819224    Uiso  ? Al
   Al11       1.0     0.565580     0.197889     0.556836    Uiso  ? Al
   Al12       1.0     0.108951     0.428283     0.298207    Uiso  ? Al
   Al13       1.0     0.215681     0.545379     0.067885    Uiso  ? Al
   Al14       1.0     0.781090     0.422130     0.819459    Uiso  ? Al
   Al15       1.0     0.450784     0.423510     0.301866    Uiso  ? Al
   Al16       1.0     0.561022     0.543659     0.064874    Uiso  ? Al
   Al17       1.0     0.107401     0.428398     0.827511    Uiso  ? Al
   Al18       1.0     0.884956     0.540404     0.058746    Uiso  ? Al
   Al19       1.0     0.553483     0.538285     0.554692    Uiso  ? Al
   Al20       1.0     0.104928     0.771645     0.306266    Uiso  ? Al
   Al21       1.0     0.223552     0.872060     0.060781    Uiso  ? Al
   Al22       1.0     0.776071     0.769160     0.819387    Uiso  ? Al
   Al23       1.0     0.883307     0.881328     0.559601    Uiso  ? Al
   Al24       1.0     0.555813     0.870327     0.062320    Uiso  ? Al
   Al25       1.0     0.100739     0.774166     0.818078    Uiso  ? Al
   Al26       1.0     0.219515     0.871968     0.559108    Uiso  ? Al
   Al27       1.0     0.776354     0.768390     0.306021    Uiso  ? Al
   Al28       1.0     0.888410     0.874167     0.062716    Uiso  ? Al
   Hf1        1.0     0.228222     0.195048     0.565456    Uiso  ? Hf
   Hf2        1.0     0.879519     0.545584     0.568060    Uiso  ? Hf
   Hf3        1.0     0.227536     0.547913     0.555654    Uiso  ? Hf
   Hf4        1.0     0.448279     0.424559     0.829545    Uiso  ? Hf
   Mg1        1.0     0.776252     0.424971     0.309328    Uiso  ? Mg
   Mg2        1.0     0.443222     0.761645     0.315170    Uiso  ? Mg
   Mg3        1.0     0.442118     0.766375     0.815244    Uiso  ? Mg
   Mg4        1.0     0.555025     0.870150     0.560298    Uiso  ? Mg
   N1         1.0     0.221980     0.206662     0.359192    Uiso  ? N
   N2         1.0     0.110201     0.095595     0.118761    Uiso  ? N
   N3         1.0     0.888827     0.202861     0.871477    Uiso  ? N
   N4         1.0     0.776747     0.094405     0.622462    Uiso  ? N
   N5         1.0     0.554959     0.205069     0.366416    Uiso  ? N
   N6         1.0     0.443042     0.096376     0.116797    Uiso  ? N
   N7         1.0     0.223816     0.203393     0.867620    Uiso  ? N
   N8         1.0     0.101328     0.087860     0.628954    Uiso  ? N
   N9         1.0     0.895519     0.192386     0.375672    Uiso  ? N
   N10        1.0     0.780133     0.094188     0.123607    Uiso  ? N
   N11        1.0     0.570390     0.186139     0.879533    Uiso  ? N
   N12        1.0     0.454738     0.102626     0.631589    Uiso  ? N
   N13        1.0     0.222048     0.537447     0.350894    Uiso  ? N
   N14        1.0     0.109844     0.427027     0.110614    Uiso  ? N
   N15        1.0     0.887434     0.539945     0.864170    Uiso  ? N
   N16        1.0     0.769623     0.416990     0.626520    Uiso  ? N
   N17        1.0     0.547584     0.526992     0.373067    Uiso  ? N
   N18        1.0     0.444330     0.426497     0.107437    Uiso  ? N
   N19        1.0     0.202846     0.552248     0.874480    Uiso  ? N
   N20        1.0     0.116024     0.429584     0.634064    Uiso  ? N
   N21        1.0     0.899236     0.547836     0.366294    Uiso  ? N
   N22        1.0     0.781694     0.426853     0.107338    Uiso  ? N
   N23        1.0     0.571998     0.531931     0.878158    Uiso  ? N
   N24        1.0     0.459968     0.414479     0.622343    Uiso  ? N
   N25        1.0     0.204430     0.880567     0.373154    Uiso  ? N
   N26        1.0     0.108505     0.764435     0.119820    Uiso  ? N
   N27        1.0     0.887850     0.874992     0.874875    Uiso  ? N
   N28        1.0     0.784895     0.773186     0.631975    Uiso  ? N
   N29        1.0     0.565264     0.879419     0.359674    Uiso  ? N
   N30        1.0     0.442816     0.762675     0.106963    Uiso  ? N
   N31        1.0     0.205582     0.879425     0.875984    Uiso  ? N
   N32        1.0     0.098277     0.778057     0.626191    Uiso  ? N
   N33        1.0     0.889012     0.872927     0.370074    Uiso  ? N
   N34        1.0     0.781597     0.760154     0.115845    Uiso  ? N
   N35        1.0     0.564660     0.877316     0.875508    Uiso  ? N
   N36        1.0     0.433161     0.751352     0.610518    Uiso  ? N
