
#======================================================================
# CRYSTAL DATA
#----------------------------------------------------------------------
data_VESTA_phase_1

_chemical_name_common                  'Al   Hf   Mg   N                      '
_cell_length_a                         9.958512
_cell_length_b                         9.932778
_cell_length_c                         9.397303
_cell_angle_alpha                      90.041145
_cell_angle_beta                       89.927475
_cell_angle_gamma                      59.858051
_cell_volume                           803.850328
_space_group_name_H-M_alt              'P 1'
_space_group_IT_number                 1

loop_
_space_group_symop_operation_xyz
   'x, y, z'

loop_
   _atom_site_label
   _atom_site_occupancy
   _atom_site_fract_x
   _atom_site_fract_y
   _atom_site_fract_z
   _atom_site_adp_type
   _atom_site_U_iso_or_equiv
   _atom_site_type_symbol
   Al1        1.0     0.106278     0.091724     0.323952    Uiso  ? Al
   Al2        1.0     0.225009     0.199313     0.075652    Uiso  ? Al
   Al3        1.0     0.783946     0.089742     0.830285    Uiso  ? Al
   Al4        1.0     0.884867     0.200115     0.576601    Uiso  ? Al
   Al5        1.0     0.449271     0.090391     0.324345    Uiso  ? Al
   Al6        1.0     0.563149     0.192989     0.090294    Uiso  ? Al
   Al7        1.0     0.104103     0.088113     0.840423    Uiso  ? Al
   Al8        1.0     0.782212     0.092445     0.329685    Uiso  ? Al
   Al9        1.0     0.888818     0.205541     0.083636    Uiso  ? Al
   Al10       1.0     0.459383     0.085174     0.838593    Uiso  ? Al
   Al11       1.0     0.565156     0.200691     0.572378    Uiso  ? Al
   Al12       1.0     0.109541     0.427281     0.316780    Uiso  ? Al
   Al13       1.0     0.213577     0.547128     0.084891    Uiso  ? Al
   Al14       1.0     0.779338     0.421381     0.847689    Uiso  ? Al
   Al15       1.0     0.446105     0.422452     0.317334    Uiso  ? Al
   Al16       1.0     0.560883     0.545906     0.100704    Uiso  ? Al
   Al17       1.0     0.107678     0.429102     0.853852    Uiso  ? Al
   Al18       1.0     0.884033     0.541601     0.076964    Uiso  ? Al
   Al19       1.0     0.553332     0.536264     0.563271    Uiso  ? Al
   Al20       1.0     0.103661     0.771701     0.324985    Uiso  ? Al
   Al21       1.0     0.225506     0.870448     0.081762    Uiso  ? Al
   Al22       1.0     0.774849     0.773442     0.840912    Uiso  ? Al
   Al23       1.0     0.883010     0.882217     0.576400    Uiso  ? Al
   Al24       1.0     0.554484     0.870021     0.087939    Uiso  ? Al
   Al25       1.0     0.099351     0.777421     0.836301    Uiso  ? Al
   Al26       1.0     0.218277     0.872369     0.575578    Uiso  ? Al
   Al27       1.0     0.778516     0.767154     0.323255    Uiso  ? Al
   Al28       1.0     0.888840     0.874517     0.081639    Uiso  ? Al
   Hf1        1.0     0.227557     0.195350     0.598185    Uiso  ? Hf
   Hf2        1.0     0.878663     0.545829     0.597031    Uiso  ? Hf
   Hf3        1.0     0.225218     0.546962     0.588447    Uiso  ? Hf
   Hf4        1.0     0.453545     0.423454     0.859133    Uiso  ? Hf
   Mg1        1.0     0.782740     0.422273     0.331303    Uiso  ? Mg
   Mg2        1.0     0.440424     0.765716     0.342889    Uiso  ? Mg
   Mg3        1.0     0.443753     0.763600     0.839659    Uiso  ? Mg
   Mg4        1.0     0.556230     0.870295     0.582862    Uiso  ? Mg
   N1         1.0     0.220364     0.207345     0.370678    Uiso  ? N
   N2         1.0     0.111497     0.096557     0.120825    Uiso  ? N
   N3         1.0     0.887839     0.201963     0.879425    Uiso  ? N
   N4         1.0     0.776240     0.095774     0.625680    Uiso  ? N
   N5         1.0     0.555478     0.204876     0.366902    Uiso  ? N
   N6         1.0     0.439975     0.098036     0.121440    Uiso  ? N
   N7         1.0     0.224377     0.201688     0.867233    Uiso  ? N
   N8         1.0     0.099488     0.086495     0.634641    Uiso  ? N
   N9         1.0     0.896398     0.190504     0.376178    Uiso  ? N
   N10        1.0     0.780714     0.093188     0.129014    Uiso  ? N
   N11        1.0     0.573199     0.184872     0.887002    Uiso  ? N
   N12        1.0     0.457918     0.102638     0.634571    Uiso  ? N
   N13        1.0     0.221329     0.536582     0.362949    Uiso  ? N
   N14        1.0     0.110604     0.426627     0.109328    Uiso  ? N
   N15        1.0     0.887041     0.540301     0.866390    Uiso  ? N
   N16        1.0     0.766520     0.417834     0.628921    Uiso  ? N
   N17        1.0     0.549755     0.525502     0.360013    Uiso  ? N
   N18        1.0     0.438629     0.424604     0.110530    Uiso  ? N
   N19        1.0     0.205168     0.553323     0.870623    Uiso  ? N
   N20        1.0     0.113185     0.428885     0.642664    Uiso  ? N
   N21        1.0     0.899936     0.547553     0.373936    Uiso  ? N
   N22        1.0     0.785708     0.425710     0.111616    Uiso  ? N
   N23        1.0     0.572043     0.532508     0.892151    Uiso  ? N
   N24        1.0     0.461847     0.415427     0.628421    Uiso  ? N
   N25        1.0     0.201932     0.882337     0.374096    Uiso  ? N
   N26        1.0     0.108563     0.762463     0.124568    Uiso  ? N
   N27        1.0     0.888076     0.876964     0.881075    Uiso  ? N
   N28        1.0     0.784714     0.775440     0.637276    Uiso  ? N
   N29        1.0     0.566552     0.879691     0.359395    Uiso  ? N
   N30        1.0     0.441275     0.764745     0.116687    Uiso  ? N
   N31        1.0     0.206536     0.878117     0.882177    Uiso  ? N
   N32        1.0     0.096150     0.781745     0.629562    Uiso  ? N
   N33        1.0     0.888079     0.873428     0.373306    Uiso  ? N
   N34        1.0     0.783871     0.758833     0.118588    Uiso  ? N
   N35        1.0     0.564201     0.877185     0.882606    Uiso  ? N
   N36        1.0     0.433977     0.750006     0.609391    Uiso  ? N
