
#======================================================================
# CRYSTAL DATA
#----------------------------------------------------------------------
data_VESTA_phase_1

_chemical_name_common                  'Al   Hf   Mg   N                      '
_cell_length_a                         10.105556
_cell_length_b                         10.077006
_cell_length_c                         8.978630
_cell_angle_alpha                      90.031219
_cell_angle_beta                       89.896545
_cell_angle_gamma                      59.846226
_cell_volume                           790.598735
_space_group_name_H-M_alt              'P 1'
_space_group_IT_number                 1

loop_
_space_group_symop_operation_xyz
   'x, y, z'

loop_
   _atom_site_label
   _atom_site_occupancy
   _atom_site_fract_x
   _atom_site_fract_y
   _atom_site_fract_z
   _atom_site_adp_type
   _atom_site_U_iso_or_equiv
   _atom_site_type_symbol
   Al1        1.0     0.106781     0.091246     0.326739    Uiso  ? Al
   Al2        1.0     0.225443     0.199685     0.085035    Uiso  ? Al
   Al3        1.0     0.783814     0.090712     0.837138    Uiso  ? Al
   Al4        1.0     0.885302     0.200836     0.581505    Uiso  ? Al
   Al5        1.0     0.449734     0.090210     0.329497    Uiso  ? Al
   Al6        1.0     0.562704     0.194077     0.098595    Uiso  ? Al
   Al7        1.0     0.103593     0.088832     0.850638    Uiso  ? Al
   Al8        1.0     0.782888     0.091549     0.334268    Uiso  ? Al
   Al9        1.0     0.888436     0.204958     0.092569    Uiso  ? Al
   Al10       1.0     0.458899     0.086025     0.848024    Uiso  ? Al
   Al11       1.0     0.565258     0.200206     0.576245    Uiso  ? Al
   Al12       1.0     0.109836     0.426922     0.321687    Uiso  ? Al
   Al13       1.0     0.215374     0.545822     0.096957    Uiso  ? Al
   Al14       1.0     0.780298     0.421532     0.862338    Uiso  ? Al
   Al15       1.0     0.446298     0.422154     0.325068    Uiso  ? Al
   Al16       1.0     0.559616     0.546473     0.110705    Uiso  ? Al
   Al17       1.0     0.107554     0.429491     0.863766    Uiso  ? Al
   Al18       1.0     0.884838     0.541889     0.090711    Uiso  ? Al
   Al19       1.0     0.553435     0.537338     0.566302    Uiso  ? Al
   Al20       1.0     0.102639     0.773252     0.329339    Uiso  ? Al
   Al21       1.0     0.226834     0.869460     0.088239    Uiso  ? Al
   Al22       1.0     0.775171     0.772670     0.850121    Uiso  ? Al
   Al23       1.0     0.883478     0.881862     0.582913    Uiso  ? Al
   Al24       1.0     0.554130     0.869821     0.095811    Uiso  ? Al
   Al25       1.0     0.100124     0.776316     0.846057    Uiso  ? Al
   Al26       1.0     0.218763     0.872369     0.582701    Uiso  ? Al
   Al27       1.0     0.778252     0.768262     0.327608    Uiso  ? Al
   Al28       1.0     0.888340     0.875018     0.087407    Uiso  ? Al
   Hf1        1.0     0.227104     0.195543     0.604214    Uiso  ? Hf
   Hf2        1.0     0.878021     0.545315     0.601816    Uiso  ? Hf
   Hf3        1.0     0.222570     0.548026     0.595008    Uiso  ? Hf
   Hf4        1.0     0.454476     0.422808     0.862123    Uiso  ? Hf
   Mg1        1.0     0.782234     0.421310     0.338237    Uiso  ? Mg
   Mg2        1.0     0.439888     0.766663     0.348639    Uiso  ? Mg
   Mg3        1.0     0.444320     0.762435     0.847541    Uiso  ? Mg
   Mg4        1.0     0.556134     0.869852     0.594008    Uiso  ? Mg
   N1         1.0     0.220370     0.206555     0.360674    Uiso  ? N
   N2         1.0     0.111632     0.096483     0.112097    Uiso  ? N
   N3         1.0     0.887428     0.202433     0.874627    Uiso  ? N
   N4         1.0     0.776323     0.096177     0.618659    Uiso  ? N
   N5         1.0     0.556744     0.203728     0.358748    Uiso  ? N
   N6         1.0     0.440554     0.098222     0.113967    Uiso  ? N
   N7         1.0     0.223885     0.203191     0.864680    Uiso  ? N
   N8         1.0     0.099900     0.087255     0.628466    Uiso  ? N
   N9         1.0     0.896853     0.190044     0.366518    Uiso  ? N
   N10        1.0     0.780379     0.093033     0.122729    Uiso  ? N
   N11        1.0     0.572585     0.186595     0.881216    Uiso  ? N
   N12        1.0     0.456812     0.102890     0.625937    Uiso  ? N
   N13        1.0     0.220034     0.537797     0.354398    Uiso  ? N
   N14        1.0     0.111485     0.426753     0.103688    Uiso  ? N
   N15        1.0     0.888353     0.539344     0.864091    Uiso  ? N
   N16        1.0     0.766502     0.418763     0.618475    Uiso  ? N
   N17        1.0     0.550103     0.526576     0.349698    Uiso  ? N
   N18        1.0     0.437244     0.423601     0.110477    Uiso  ? N
   N19        1.0     0.207032     0.551650     0.863576    Uiso  ? N
   N20        1.0     0.111768     0.428422     0.630926    Uiso  ? N
   N21        1.0     0.898289     0.547363     0.361003    Uiso  ? N
   N22        1.0     0.785828     0.425534     0.104839    Uiso  ? N
   N23        1.0     0.571656     0.530888     0.886438    Uiso  ? N
   N24        1.0     0.460044     0.416479     0.616681    Uiso  ? N
   N25        1.0     0.202771     0.882278     0.365742    Uiso  ? N
   N26        1.0     0.108392     0.762059     0.116993    Uiso  ? N
   N27        1.0     0.888070     0.877318     0.874819    Uiso  ? N
   N28        1.0     0.785345     0.773823     0.629559    Uiso  ? N
   N29        1.0     0.566338     0.879293     0.349889    Uiso  ? N
   N30        1.0     0.441680     0.764374     0.111588    Uiso  ? N
   N31        1.0     0.207197     0.877768     0.875721    Uiso  ? N
   N32        1.0     0.096468     0.781652     0.621779    Uiso  ? N
   N33        1.0     0.887772     0.873769     0.366282    Uiso  ? N
   N34        1.0     0.783925     0.759675     0.110414    Uiso  ? N
   N35        1.0     0.563814     0.877071     0.875835    Uiso  ? N
   N36        1.0     0.434331     0.750071     0.604698    Uiso  ? N
