
#======================================================================
# CRYSTAL DATA
#----------------------------------------------------------------------
data_VESTA_phase_1

_chemical_name_common                  'Al   Hf   Mg   N                      '
_cell_length_a                         9.898711
_cell_length_b                         9.870506
_cell_length_c                         9.609433
_cell_angle_alpha                      90.027672
_cell_angle_beta                       89.713524
_cell_angle_gamma                      59.921036
_cell_volume                           812.441969
_space_group_name_H-M_alt              'P 1'
_space_group_IT_number                 1

loop_
_space_group_symop_operation_xyz
   'x, y, z'

loop_
   _atom_site_label
   _atom_site_occupancy
   _atom_site_fract_x
   _atom_site_fract_y
   _atom_site_fract_z
   _atom_site_adp_type
   _atom_site_U_iso_or_equiv
   _atom_site_type_symbol
   Al1        1.0     0.103474     0.087507     0.375545    Uiso  ? Al
   Al2        1.0     0.224647     0.199648     0.133985    Uiso  ? Al
   Al3        1.0     0.785850     0.088555     0.881826    Uiso  ? Al
   Al4        1.0     0.880795     0.205246     0.631003    Uiso  ? Al
   Al5        1.0     0.456316     0.090675     0.372374    Uiso  ? Al
   Al6        1.0     0.562870     0.193101     0.127938    Uiso  ? Al
   Al7        1.0     0.107584     0.092333     0.883523    Uiso  ? Al
   Al8        1.0     0.779749     0.093910     0.379644    Uiso  ? Al
   Al9        1.0     0.894549     0.198054     0.133571    Uiso  ? Al
   Al10       1.0     0.452795     0.084890     0.886951    Uiso  ? Al
   Al11       1.0     0.568671     0.195199     0.630700    Uiso  ? Al
   Al12       1.0     0.110130     0.426423     0.361622    Uiso  ? Al
   Al13       1.0     0.212799     0.546422     0.134447    Uiso  ? Al
   Al14       1.0     0.789228     0.421180     0.893095    Uiso  ? Al
   Al15       1.0     0.447697     0.422541     0.318995    Uiso  ? Al
   Al16       1.0     0.558915     0.545713     0.105877    Uiso  ? Al
   Al17       1.0     0.106467     0.429950     0.890856    Uiso  ? Al
   Al18       1.0     0.887957     0.544604     0.139783    Uiso  ? Al
   Al19       1.0     0.550368     0.536799     0.553200    Uiso  ? Al
   Al20       1.0     0.098942     0.780613     0.371169    Uiso  ? Al
   Al21       1.0     0.223492     0.873063     0.128331    Uiso  ? Al
   Al22       1.0     0.776084     0.765991     0.883994    Uiso  ? Al
   Al23       1.0     0.883927     0.882232     0.632734    Uiso  ? Al
   Al24       1.0     0.557255     0.870580     0.126088    Uiso  ? Al
   Al25       1.0     0.101108     0.769958     0.883999    Uiso  ? Al
   Al26       1.0     0.218071     0.871309     0.633489    Uiso  ? Al
   Al27       1.0     0.776561     0.774363     0.375304    Uiso  ? Al
   Al28       1.0     0.887409     0.873540     0.129441    Uiso  ? Al
   Hf1        1.0     0.228670     0.194130     0.616241    Uiso  ? Hf
   Hf2        1.0     0.875490     0.543604     0.612847    Uiso  ? Hf
   Hf3        1.0     0.224417     0.548089     0.601165    Uiso  ? Hf
   Hf4        1.0     0.448884     0.425795     0.864548    Uiso  ? Hf
   Mg1        1.0     0.781252     0.419066     0.352468    Uiso  ? Mg
   Mg2        1.0     0.437226     0.771200     0.357697    Uiso  ? Mg
   Mg3        1.0     0.444510     0.763948     0.866237    Uiso  ? Mg
   Mg4        1.0     0.554443     0.869473     0.626886    Uiso  ? Mg
   N1         1.0     0.223123     0.200736     0.337551    Uiso  ? N
   N2         1.0     0.112801     0.096095     0.079674    Uiso  ? N
   N3         1.0     0.890226     0.205269     0.832736    Uiso  ? N
   N4         1.0     0.778667     0.094717     0.579768    Uiso  ? N
   N5         1.0     0.560878     0.202847     0.326030    Uiso  ? N
   N6         1.0     0.441979     0.097521     0.084571    Uiso  ? N
   N7         1.0     0.223669     0.207712     0.836378    Uiso  ? N
   N8         1.0     0.098623     0.087191     0.576897    Uiso  ? N
   N9         1.0     0.895742     0.186177     0.326181    Uiso  ? N
   N10        1.0     0.779982     0.093076     0.077888    Uiso  ? N
   N11        1.0     0.570176     0.184286     0.833842    Uiso  ? N
   N12        1.0     0.457592     0.101346     0.569855    Uiso  ? N
   N13        1.0     0.221110     0.541569     0.342042    Uiso  ? N
   N14        1.0     0.112176     0.427373     0.092650    Uiso  ? N
   N15        1.0     0.892543     0.535944     0.835881    Uiso  ? N
   N16        1.0     0.766614     0.417910     0.581386    Uiso  ? N
   N17        1.0     0.546374     0.531784     0.345400    Uiso  ? N
   N18        1.0     0.437167     0.425026     0.102388    Uiso  ? N
   N19        1.0     0.199686     0.550893     0.827581    Uiso  ? N
   N20        1.0     0.111017     0.425442     0.564542    Uiso  ? N
   N21        1.0     0.893701     0.551260     0.339112    Uiso  ? N
   N22        1.0     0.791388     0.422523     0.098038    Uiso  ? N
   N23        1.0     0.575998     0.527611     0.889149    Uiso  ? N
   N24        1.0     0.462848     0.416714     0.620967    Uiso  ? N
   N25        1.0     0.204064     0.881583     0.321672    Uiso  ? N
   N26        1.0     0.109227     0.760256     0.082474    Uiso  ? N
   N27        1.0     0.888720     0.872542     0.831466    Uiso  ? N
   N28        1.0     0.784149     0.775380     0.573694    Uiso  ? N
   N29        1.0     0.566984     0.880814     0.324259    Uiso  ? N
   N30        1.0     0.441766     0.766667     0.099224    Uiso  ? N
   N31        1.0     0.201356     0.880745     0.831256    Uiso  ? N
   N32        1.0     0.094514     0.785636     0.571254    Uiso  ? N
   N33        1.0     0.885912     0.878090     0.324884    Uiso  ? N
   N34        1.0     0.783546     0.758645     0.082013    Uiso  ? N
   N35        1.0     0.565759     0.877300     0.842703    Uiso  ? N
   N36        1.0     0.431798     0.751483     0.592643    Uiso  ? N
