
#======================================================================
# CRYSTAL DATA
#----------------------------------------------------------------------
data_VESTA_phase_1

_chemical_name_common                  'Al   Hf   Mg   N                      '
_cell_length_a                         10.009633
_cell_length_b                         9.981383
_cell_length_c                         9.275670
_cell_angle_alpha                      90.025803
_cell_angle_beta                       89.769409
_cell_angle_gamma                      59.892788
_cell_volume                           801.695284
_space_group_name_H-M_alt              'P 1'
_space_group_IT_number                 1

loop_
_space_group_symop_operation_xyz
   'x, y, z'

loop_
   _atom_site_label
   _atom_site_occupancy
   _atom_site_fract_x
   _atom_site_fract_y
   _atom_site_fract_z
   _atom_site_adp_type
   _atom_site_U_iso_or_equiv
   _atom_site_type_symbol
   Al1        1.0     0.104136     0.086882     0.370918    Uiso  ? Al
   Al2        1.0     0.224843     0.199150     0.129350    Uiso  ? Al
   Al3        1.0     0.785022     0.089951     0.878062    Uiso  ? Al
   Al4        1.0     0.881750     0.204667     0.625777    Uiso  ? Al
   Al5        1.0     0.456679     0.089254     0.366556    Uiso  ? Al
   Al6        1.0     0.562457     0.194763     0.125889    Uiso  ? Al
   Al7        1.0     0.106419     0.093100     0.880381    Uiso  ? Al
   Al8        1.0     0.780722     0.092813     0.376184    Uiso  ? Al
   Al9        1.0     0.893333     0.199654     0.130235    Uiso  ? Al
   Al10       1.0     0.452562     0.086820     0.883856    Uiso  ? Al
   Al11       1.0     0.567696     0.196365     0.623035    Uiso  ? Al
   Al12       1.0     0.110164     0.426641     0.353222    Uiso  ? Al
   Al13       1.0     0.215289     0.545193     0.130686    Uiso  ? Al
   Al14       1.0     0.787287     0.421820     0.886113    Uiso  ? Al
   Al15       1.0     0.448588     0.421278     0.326337    Uiso  ? Al
   Al16       1.0     0.558759     0.545931     0.110450    Uiso  ? Al
   Al17       1.0     0.106691     0.429769     0.889442    Uiso  ? Al
   Al18       1.0     0.886294     0.544535     0.135013    Uiso  ? Al
   Al19       1.0     0.551152     0.537959     0.558201    Uiso  ? Al
   Al20       1.0     0.099000     0.780904     0.363815    Uiso  ? Al
   Al21       1.0     0.224921     0.872648     0.122548    Uiso  ? Al
   Al22       1.0     0.777158     0.765648     0.880064    Uiso  ? Al
   Al23       1.0     0.884905     0.882009     0.630105    Uiso  ? Al
   Al24       1.0     0.557061     0.869448     0.117197    Uiso  ? Al
   Al25       1.0     0.101424     0.769672     0.883753    Uiso  ? Al
   Al26       1.0     0.218082     0.870928     0.631263    Uiso  ? Al
   Al27       1.0     0.775866     0.775026     0.370867    Uiso  ? Al
   Al28       1.0     0.886343     0.874039     0.124739    Uiso  ? Al
   Hf1        1.0     0.228188     0.195164     0.610138    Uiso  ? Hf
   Hf2        1.0     0.876492     0.543661     0.605934    Uiso  ? Hf
   Hf3        1.0     0.222693     0.549058     0.597036    Uiso  ? Hf
   Hf4        1.0     0.449911     0.425423     0.863616    Uiso  ? Hf
   Mg1        1.0     0.780217     0.419065     0.349508    Uiso  ? Mg
   Mg2        1.0     0.437676     0.770283     0.354236    Uiso  ? Mg
   Mg3        1.0     0.445719     0.761531     0.859753    Uiso  ? Mg
   Mg4        1.0     0.554412     0.869791     0.621881    Uiso  ? Mg
   N1         1.0     0.222648     0.200659     0.341181    Uiso  ? N
   N2         1.0     0.111971     0.097002     0.084109    Uiso  ? N
   N3         1.0     0.890128     0.204833     0.835723    Uiso  ? N
   N4         1.0     0.778983     0.094341     0.583815    Uiso  ? N
   N5         1.0     0.561187     0.203107     0.332084    Uiso  ? N
   N6         1.0     0.441836     0.098895     0.090169    Uiso  ? N
   N7         1.0     0.223246     0.208295     0.841109    Uiso  ? N
   N8         1.0     0.099899     0.086518     0.581622    Uiso  ? N
   N9         1.0     0.895354     0.187215     0.331565    Uiso  ? N
   N10        1.0     0.779104     0.094175     0.081860    Uiso  ? N
   N11        1.0     0.569347     0.185957     0.836215    Uiso  ? N
   N12        1.0     0.457025     0.100557     0.574079    Uiso  ? N
   N13        1.0     0.222006     0.540941     0.344033    Uiso  ? N
   N14        1.0     0.111983     0.427379     0.100055    Uiso  ? N
   N15        1.0     0.893399     0.536050     0.839774    Uiso  ? N
   N16        1.0     0.765317     0.419443     0.588639    Uiso  ? N
   N17        1.0     0.547070     0.531355     0.342871    Uiso  ? N
   N18        1.0     0.437219     0.423794     0.103822    Uiso  ? N
   N19        1.0     0.201519     0.550187     0.834508    Uiso  ? N
   N20        1.0     0.111323     0.426486     0.568422    Uiso  ? N
   N21        1.0     0.892761     0.550809     0.343502    Uiso  ? N
   N22        1.0     0.790429     0.423004     0.099366    Uiso  ? N
   N23        1.0     0.575803     0.526737     0.884972    Uiso  ? N
   N24        1.0     0.460655     0.416951     0.612508    Uiso  ? N
   N25        1.0     0.205472     0.881141     0.324635    Uiso  ? N
   N26        1.0     0.108951     0.759896     0.089416    Uiso  ? N
   N27        1.0     0.889204     0.873014     0.836928    Uiso  ? N
   N28        1.0     0.784169     0.775490     0.579678    Uiso  ? N
   N29        1.0     0.566567     0.879321     0.326879    Uiso  ? N
   N30        1.0     0.442110     0.765220     0.100119    Uiso  ? N
   N31        1.0     0.201369     0.880410     0.837990    Uiso  ? N
   N32        1.0     0.094956     0.785058     0.573925    Uiso  ? N
   N33        1.0     0.885364     0.878301     0.327754    Uiso  ? N
   N34        1.0     0.784372     0.758028     0.085823    Uiso  ? N
   N35        1.0     0.565243     0.877733     0.851584    Uiso  ? N
   N36        1.0     0.432576     0.750721     0.598722    Uiso  ? N
