
#======================================================================
# CRYSTAL DATA
#----------------------------------------------------------------------
data_VESTA_phase_1

_chemical_name_common                  'Al   Hf   Mg   N                      '
_cell_length_a                         9.690553
_cell_length_b                         9.675531
_cell_length_c                         10.129474
_cell_angle_alpha                      90.028831
_cell_angle_beta                       89.825577
_cell_angle_gamma                      59.960667
_cell_volume                           822.177173
_space_group_name_H-M_alt              'P 1'
_space_group_IT_number                 1

loop_
_space_group_symop_operation_xyz
   'x, y, z'

loop_
   _atom_site_label
   _atom_site_occupancy
   _atom_site_fract_x
   _atom_site_fract_y
   _atom_site_fract_z
   _atom_site_adp_type
   _atom_site_U_iso_or_equiv
   _atom_site_type_symbol
   Al1        1.0     0.105238     0.089422     0.375328    Uiso  ? Al
   Al2        1.0     0.224715     0.201325     0.135151    Uiso  ? Al
   Al3        1.0     0.783950     0.089152     0.883855    Uiso  ? Al
   Al4        1.0     0.883278     0.202310     0.634912    Uiso  ? Al
   Al5        1.0     0.452085     0.091455     0.375712    Uiso  ? Al
   Al6        1.0     0.560166     0.200169     0.137761    Uiso  ? Al
   Al7        1.0     0.108027     0.091107     0.888845    Uiso  ? Al
   Al8        1.0     0.780887     0.093556     0.380541    Uiso  ? Al
   Al9        1.0     0.890782     0.202081     0.135177    Uiso  ? Al
   Al10       1.0     0.453920     0.084655     0.891128    Uiso  ? Al
   Al11       1.0     0.567068     0.195587     0.628950    Uiso  ? Al
   Al12       1.0     0.108322     0.427324     0.366755    Uiso  ? Al
   Al13       1.0     0.220308     0.543048     0.142728    Uiso  ? Al
   Al14       1.0     0.781579     0.423226     0.891845    Uiso  ? Al
   Al15       1.0     0.453523     0.421789     0.375335    Uiso  ? Al
   Al16       1.0     0.555435     0.543948     0.143820    Uiso  ? Al
   Al17       1.0     0.107370     0.428510     0.896764    Uiso  ? Al
   Al18       1.0     0.887021     0.542993     0.136594    Uiso  ? Al
   Al19       1.0     0.556545     0.538375     0.623452    Uiso  ? Al
   Al20       1.0     0.102832     0.775647     0.375208    Uiso  ? Al
   Al21       1.0     0.225058     0.871310     0.134758    Uiso  ? Al
   Al22       1.0     0.773956     0.768997     0.890876    Uiso  ? Al
   Al23       1.0     0.882333     0.882253     0.633363    Uiso  ? Al
   Al24       1.0     0.556768     0.870436     0.135199    Uiso  ? Al
   Al25       1.0     0.101500     0.771947     0.886680    Uiso  ? Al
   Al26       1.0     0.218048     0.872517     0.635505    Uiso  ? Al
   Al27       1.0     0.778337     0.768725     0.375403    Uiso  ? Al
   Al28       1.0     0.888586     0.873477     0.133855    Uiso  ? Al
   Hf1        1.0     0.227565     0.193873     0.628744    Uiso  ? Hf
   Hf2        1.0     0.875997     0.545495     0.631891    Uiso  ? Hf
   Hf3        1.0     0.220973     0.548892     0.612197    Uiso  ? Hf
   Hf4        1.0     0.445949     0.426825     0.881893    Uiso  ? Hf
   Mg1        1.0     0.778794     0.423234     0.371342    Uiso  ? Mg
   Mg2        1.0     0.440851     0.763797     0.377512    Uiso  ? Mg
   Mg3        1.0     0.444803     0.765322     0.880857    Uiso  ? Mg
   Mg4        1.0     0.554381     0.870573     0.632011    Uiso  ? Mg
   N1         1.0     0.222720     0.202436     0.327999    Uiso  ? N
   N2         1.0     0.112284     0.095004     0.075629    Uiso  ? N
   N3         1.0     0.890469     0.204555     0.827504    Uiso  ? N
   N4         1.0     0.778972     0.094488     0.573513    Uiso  ? N
   N5         1.0     0.559406     0.203232     0.324441    Uiso  ? N
   N6         1.0     0.444802     0.097123     0.079423    Uiso  ? N
   N7         1.0     0.223829     0.206979     0.836625    Uiso  ? N
   N8         1.0     0.099674     0.087755     0.569283    Uiso  ? N
   N9         1.0     0.894848     0.189720     0.319008    Uiso  ? N
   N10        1.0     0.777794     0.094145     0.072366    Uiso  ? N
   N11        1.0     0.565783     0.190176     0.821143    Uiso  ? N
   N12        1.0     0.453527     0.101726     0.563807    Uiso  ? N
   N13        1.0     0.222244     0.540535     0.337641    Uiso  ? N
   N14        1.0     0.114614     0.427592     0.084540    Uiso  ? N
   N15        1.0     0.891202     0.537821     0.839943    Uiso  ? N
   N16        1.0     0.773150     0.416391     0.578278    Uiso  ? N
   N17        1.0     0.549309     0.531377     0.323959    Uiso  ? N
   N18        1.0     0.442889     0.426505     0.087004    Uiso  ? N
   N19        1.0     0.202865     0.548339     0.821820    Uiso  ? N
   N20        1.0     0.107288     0.425083     0.560322    Uiso  ? N
   N21        1.0     0.894326     0.549272     0.323431    Uiso  ? N
   N22        1.0     0.779891     0.426604     0.081060    Uiso  ? N
   N23        1.0     0.574568     0.526086     0.819827    Uiso  ? N
   N24        1.0     0.461492     0.413646     0.574954    Uiso  ? N
   N25        1.0     0.206965     0.879938     0.318348    Uiso  ? N
   N26        1.0     0.111603     0.759014     0.076191    Uiso  ? N
   N27        1.0     0.888328     0.872084     0.824769    Uiso  ? N
   N28        1.0     0.785512     0.771757     0.564943    Uiso  ? N
   N29        1.0     0.564978     0.879933     0.321406    Uiso  ? N
   N30        1.0     0.445108     0.760906     0.088872    Uiso  ? N
   N31        1.0     0.202951     0.880868     0.823500    Uiso  ? N
   N32        1.0     0.094498     0.785418     0.566513    Uiso  ? N
   N33        1.0     0.887702     0.876263     0.320827    Uiso  ? N
   N34        1.0     0.781029     0.761660     0.078164    Uiso  ? N
   N35        1.0     0.565910     0.878164     0.834079    Uiso  ? N
   N36        1.0     0.430997     0.753919     0.585751    Uiso  ? N
