
#======================================================================
# CRYSTAL DATA
#----------------------------------------------------------------------
data_VESTA_phase_1

_chemical_name_common                  'Al   Hf   Mg   N                      '
_cell_length_a                         9.714167
_cell_length_b                         9.701772
_cell_length_c                         10.085025
_cell_angle_alpha                      89.997589
_cell_angle_beta                       89.660294
_cell_angle_gamma                      60.002483
_cell_volume                           823.123435
_space_group_name_H-M_alt              'P 1'
_space_group_IT_number                 1

loop_
_space_group_symop_operation_xyz
   'x, y, z'

loop_
   _atom_site_label
   _atom_site_occupancy
   _atom_site_fract_x
   _atom_site_fract_y
   _atom_site_fract_z
   _atom_site_adp_type
   _atom_site_U_iso_or_equiv
   _atom_site_type_symbol
   Al1        1.0     0.104578     0.089222     0.376882    Uiso  ? Al
   Al2        1.0     0.224882     0.201246     0.134935    Uiso  ? Al
   Al3        1.0     0.784725     0.089255     0.883640    Uiso  ? Al
   Al4        1.0     0.881379     0.203957     0.635132    Uiso  ? Al
   Al5        1.0     0.452609     0.091691     0.376875    Uiso  ? Al
   Al6        1.0     0.561422     0.197209     0.136189    Uiso  ? Al
   Al7        1.0     0.108894     0.090845     0.887635    Uiso  ? Al
   Al8        1.0     0.780760     0.092973     0.381633    Uiso  ? Al
   Al9        1.0     0.893298     0.199007     0.135901    Uiso  ? Al
   Al10       1.0     0.454647     0.084354     0.889997    Uiso  ? Al
   Al11       1.0     0.567197     0.195999     0.630899    Uiso  ? Al
   Al12       1.0     0.107965     0.427835     0.368196    Uiso  ? Al
   Al13       1.0     0.217013     0.544384     0.140732    Uiso  ? Al
   Al14       1.0     0.783323     0.422057     0.898409    Uiso  ? Al
   Al15       1.0     0.446549     0.419339     0.361467    Uiso  ? Al
   Al16       1.0     0.556626     0.543388     0.143067    Uiso  ? Al
   Al17       1.0     0.107729     0.428755     0.895756    Uiso  ? Al
   Al18       1.0     0.888947     0.543734     0.137373    Uiso  ? Al
   Al19       1.0     0.552767     0.539090     0.558858    Uiso  ? Al
   Al20       1.0     0.101540     0.776136     0.375978    Uiso  ? Al
   Al21       1.0     0.223194     0.872467     0.134462    Uiso  ? Al
   Al22       1.0     0.773983     0.768560     0.890304    Uiso  ? Al
   Al23       1.0     0.882465     0.881973     0.633903    Uiso  ? Al
   Al24       1.0     0.557894     0.871519     0.135085    Uiso  ? Al
   Al25       1.0     0.101544     0.772202     0.885880    Uiso  ? Al
   Al26       1.0     0.219080     0.871734     0.634535    Uiso  ? Al
   Al27       1.0     0.778818     0.769367     0.376785    Uiso  ? Al
   Al28       1.0     0.888625     0.873529     0.133850    Uiso  ? Al
   Hf1        1.0     0.227148     0.194669     0.627860    Uiso  ? Hf
   Hf2        1.0     0.872624     0.545021     0.632652    Uiso  ? Hf
   Hf3        1.0     0.220718     0.548845     0.614977    Uiso  ? Hf
   Hf4        1.0     0.447363     0.426837     0.884302    Uiso  ? Hf
   Mg1        1.0     0.787694     0.418887     0.363342    Uiso  ? Mg
   Mg2        1.0     0.435648     0.774498     0.368269    Uiso  ? Mg
   Mg3        1.0     0.445691     0.763795     0.883335    Uiso  ? Mg
   Mg4        1.0     0.553713     0.869480     0.631752    Uiso  ? Mg
   N1         1.0     0.222600     0.202634     0.329211    Uiso  ? N
   N2         1.0     0.113233     0.094571     0.075389    Uiso  ? N
   N3         1.0     0.891489     0.205066     0.828523    Uiso  ? N
   N4         1.0     0.778802     0.094266     0.574509    Uiso  ? N
   N5         1.0     0.560608     0.201050     0.323293    Uiso  ? N
   N6         1.0     0.444669     0.096690     0.079193    Uiso  ? N
   N7         1.0     0.224616     0.206999     0.836312    Uiso  ? N
   N8         1.0     0.099118     0.088076     0.570575    Uiso  ? N
   N9         1.0     0.895885     0.186785     0.319799    Uiso  ? N
   N10        1.0     0.778943     0.093473     0.072898    Uiso  ? N
   N11        1.0     0.567961     0.188770     0.823256    Uiso  ? N
   N12        1.0     0.454089     0.101624     0.565246    Uiso  ? N
   N13        1.0     0.219375     0.541934     0.335517    Uiso  ? N
   N14        1.0     0.114711     0.427031     0.084299    Uiso  ? N
   N15        1.0     0.891659     0.536651     0.841293    Uiso  ? N
   N16        1.0     0.772227     0.415728     0.573774    Uiso  ? N
   N17        1.0     0.549324     0.532138     0.338604    Uiso  ? N
   N18        1.0     0.442484     0.426314     0.095922    Uiso  ? N
   N19        1.0     0.201757     0.550111     0.824157    Uiso  ? N
   N20        1.0     0.105603     0.426485     0.561994    Uiso  ? N
   N21        1.0     0.895365     0.550995     0.324539    Uiso  ? N
   N22        1.0     0.784349     0.424480     0.090668    Uiso  ? N
   N23        1.0     0.575126     0.526629     0.851120    Uiso  ? N
   N24        1.0     0.459007     0.412325     0.576744    Uiso  ? N
   N25        1.0     0.203529     0.881468     0.318204    Uiso  ? N
   N26        1.0     0.111005     0.759895     0.076117    Uiso  ? N
   N27        1.0     0.888464     0.872260     0.825405    Uiso  ? N
   N28        1.0     0.785778     0.770961     0.566698    Uiso  ? N
   N29        1.0     0.566809     0.881645     0.321713    Uiso  ? N
   N30        1.0     0.444801     0.762443     0.097023    Uiso  ? N
   N31        1.0     0.204381     0.880435     0.823524    Uiso  ? N
   N32        1.0     0.094912     0.784797     0.567232    Uiso  ? N
   N33        1.0     0.887425     0.876478     0.321600    Uiso  ? N
   N34        1.0     0.781574     0.761551     0.078452    Uiso  ? N
   N35        1.0     0.565676     0.877450     0.834817    Uiso  ? N
   N36        1.0     0.430077     0.755798     0.579408    Uiso  ? N
