
#======================================================================
# CRYSTAL DATA
#----------------------------------------------------------------------
data_VESTA_phase_1

_chemical_name_common                  'Al   Hf   Mg   N                      '
_cell_length_a                         9.783404
_cell_length_b                         9.756132
_cell_length_c                         9.950583
_cell_angle_alpha                      90.020256
_cell_angle_beta                       89.630066
_cell_angle_gamma                      59.985508
_cell_volume                           822.376411
_space_group_name_H-M_alt              'P 1'
_space_group_IT_number                 1

loop_
_space_group_symop_operation_xyz
   'x, y, z'

loop_
   _atom_site_label
   _atom_site_occupancy
   _atom_site_fract_x
   _atom_site_fract_y
   _atom_site_fract_z
   _atom_site_adp_type
   _atom_site_U_iso_or_equiv
   _atom_site_type_symbol
   Al1        1.0     0.103914     0.088969     0.377304    Uiso  ? Al
   Al2        1.0     0.224442     0.200580     0.135017    Uiso  ? Al
   Al3        1.0     0.786812     0.086938     0.884681    Uiso  ? Al
   Al4        1.0     0.880977     0.204817     0.633747    Uiso  ? Al
   Al5        1.0     0.453956     0.093137     0.375452    Uiso  ? Al
   Al6        1.0     0.563510     0.192105     0.130000    Uiso  ? Al
   Al7        1.0     0.108182     0.091002     0.886708    Uiso  ? Al
   Al8        1.0     0.778716     0.095060     0.381244    Uiso  ? Al
   Al9        1.0     0.894774     0.197788     0.136650    Uiso  ? Al
   Al10       1.0     0.454119     0.082296     0.889996    Uiso  ? Al
   Al11       1.0     0.569359     0.193968     0.635903    Uiso  ? Al
   Al12       1.0     0.109265     0.426808     0.366902    Uiso  ? Al
   Al13       1.0     0.211176     0.547137     0.135713    Uiso  ? Al
   Al14       1.0     0.791412     0.418725     0.896702    Uiso  ? Al
   Al15       1.0     0.447278     0.425187     0.313240    Uiso  ? Al
   Al16       1.0     0.559666     0.545302     0.092673    Uiso  ? Al
   Al17       1.0     0.106579     0.429649     0.892943    Uiso  ? Al
   Al18       1.0     0.889185     0.543994     0.139884    Uiso  ? Al
   Al19       1.0     0.549839     0.535782     0.552268    Uiso  ? Al
   Al20       1.0     0.100115     0.778307     0.375083    Uiso  ? Al
   Al21       1.0     0.222686     0.873046     0.133155    Uiso  ? Al
   Al22       1.0     0.774303     0.767510     0.887914    Uiso  ? Al
   Al23       1.0     0.883021     0.882012     0.633582    Uiso  ? Al
   Al24       1.0     0.557347     0.871226     0.134235    Uiso  ? Al
   Al25       1.0     0.100443     0.770910     0.884515    Uiso  ? Al
   Al26       1.0     0.218240     0.871819     0.634349    Uiso  ? Al
   Al27       1.0     0.777836     0.771668     0.377101    Uiso  ? Al
   Al28       1.0     0.888129     0.873328     0.133224    Uiso  ? Al
   Hf1        1.0     0.228596     0.193755     0.624323    Uiso  ? Hf
   Hf2        1.0     0.874853     0.544187     0.624485    Uiso  ? Hf
   Hf3        1.0     0.225002     0.547403     0.607753    Uiso  ? Hf
   Hf4        1.0     0.448144     0.424851     0.864025    Uiso  ? Hf
   Mg1        1.0     0.781708     0.420943     0.358105    Uiso  ? Mg
   Mg2        1.0     0.436820     0.770927     0.364230    Uiso  ? Mg
   Mg3        1.0     0.442309     0.768038     0.873146    Uiso  ? Mg
   Mg4        1.0     0.554189     0.869540     0.628709    Uiso  ? Mg
   N1         1.0     0.222942     0.201936     0.331437    Uiso  ? N
   N2         1.0     0.112993     0.094938     0.076543    Uiso  ? N
   N3         1.0     0.890781     0.204488     0.829563    Uiso  ? N
   N4         1.0     0.778103     0.095011     0.576117    Uiso  ? N
   N5         1.0     0.560266     0.202854     0.321148    Uiso  ? N
   N6         1.0     0.443211     0.095639     0.080601    Uiso  ? N
   N7         1.0     0.224393     0.206725     0.835770    Uiso  ? N
   N8         1.0     0.098707     0.088085     0.572480    Uiso  ? N
   N9         1.0     0.895677     0.186995     0.322555    Uiso  ? N
   N10        1.0     0.780977     0.092279     0.074834    Uiso  ? N
   N11        1.0     0.571544     0.181653     0.831828    Uiso  ? N
   N12        1.0     0.456055     0.103737     0.566161    Uiso  ? N
   N13        1.0     0.219717     0.542006     0.336798    Uiso  ? N
   N14        1.0     0.112981     0.427147     0.085278    Uiso  ? N
   N15        1.0     0.891621     0.536182     0.837268    Uiso  ? N
   N16        1.0     0.769539     0.417184     0.579264    Uiso  ? N
   N17        1.0     0.545493     0.530964     0.357283    Uiso  ? N
   N18        1.0     0.438827     0.426417     0.101527    Uiso  ? N
   N19        1.0     0.197619     0.551600     0.823708    Uiso  ? N
   N20        1.0     0.109589     0.424795     0.562091    Uiso  ? N
   N21        1.0     0.894996     0.551161     0.330302    Uiso  ? N
   N22        1.0     0.791488     0.421550     0.093836    Uiso  ? N
   N23        1.0     0.575655     0.528789     0.890953    Uiso  ? N
   N24        1.0     0.464546     0.417404     0.632224    Uiso  ? N
   N25        1.0     0.203336     0.881787     0.319336    Uiso  ? N
   N26        1.0     0.109332     0.760938     0.077072    Uiso  ? N
   N27        1.0     0.888314     0.871890     0.826762    Uiso  ? N
   N28        1.0     0.784975     0.773356     0.568345    Uiso  ? N
   N29        1.0     0.566505     0.881942     0.323478    Uiso  ? N
   N30        1.0     0.441951     0.767229     0.097289    Uiso  ? N
   N31        1.0     0.201514     0.880944     0.825594    Uiso  ? N
   N32        1.0     0.094663     0.785199     0.568619    Uiso  ? N
   N33        1.0     0.886499     0.877671     0.322692    Uiso  ? N
   N34        1.0     0.781775     0.760344     0.079292    Uiso  ? N
   N35        1.0     0.566317     0.876730     0.835007    Uiso  ? N
   N36        1.0     0.430674     0.753589     0.587614    Uiso  ? N
