
#======================================================================
# CRYSTAL DATA
#----------------------------------------------------------------------
data_VESTA_phase_1

_chemical_name_common                  'Al   Hf   Mg   N                      '
_cell_length_a                         10.158037
_cell_length_b                         10.130575
_cell_length_c                         8.831416
_cell_angle_alpha                      90.029091
_cell_angle_beta                       89.831917
_cell_angle_gamma                      59.869450
_cell_volume                           786.011774
_space_group_name_H-M_alt              'P 1'
_space_group_IT_number                 1

loop_
_space_group_symop_operation_xyz
   'x, y, z'

loop_
   _atom_site_label
   _atom_site_occupancy
   _atom_site_fract_x
   _atom_site_fract_y
   _atom_site_fract_z
   _atom_site_adp_type
   _atom_site_U_iso_or_equiv
   _atom_site_type_symbol
   Al1        1.0     0.106150     0.087610     0.357829    Uiso  ? Al
   Al2        1.0     0.224863     0.200149     0.114792    Uiso  ? Al
   Al3        1.0     0.784133     0.091670     0.871462    Uiso  ? Al
   Al4        1.0     0.883699     0.202885     0.612858    Uiso  ? Al
   Al5        1.0     0.454621     0.088841     0.354836    Uiso  ? Al
   Al6        1.0     0.561582     0.196774     0.120044    Uiso  ? Al
   Al7        1.0     0.104286     0.092771     0.874620    Uiso  ? Al
   Al8        1.0     0.782112     0.091403     0.365793    Uiso  ? Al
   Al9        1.0     0.890809     0.203381     0.123406    Uiso  ? Al
   Al10       1.0     0.454562     0.087278     0.875585    Uiso  ? Al
   Al11       1.0     0.566464     0.198086     0.604949    Uiso  ? Al
   Al12       1.0     0.109779     0.426994     0.342346    Uiso  ? Al
   Al13       1.0     0.217238     0.543482     0.120306    Uiso  ? Al
   Al14       1.0     0.783772     0.421212     0.872849    Uiso  ? Al
   Al15       1.0     0.449078     0.421245     0.334389    Uiso  ? Al
   Al16       1.0     0.559508     0.546177     0.112532    Uiso  ? Al
   Al17       1.0     0.107132     0.429712     0.884085    Uiso  ? Al
   Al18       1.0     0.885165     0.543116     0.119779    Uiso  ? Al
   Al19       1.0     0.552300     0.539208     0.566817    Uiso  ? Al
   Al20       1.0     0.100094     0.779192     0.351057    Uiso  ? Al
   Al21       1.0     0.226999     0.871466     0.113555    Uiso  ? Al
   Al22       1.0     0.776511     0.767775     0.872178    Uiso  ? Al
   Al23       1.0     0.885380     0.882048     0.622485    Uiso  ? Al
   Al24       1.0     0.556434     0.868335     0.108004    Uiso  ? Al
   Al25       1.0     0.101618     0.770649     0.880826    Uiso  ? Al
   Al26       1.0     0.219242     0.870406     0.623536    Uiso  ? Al
   Al27       1.0     0.776277     0.772964     0.358483    Uiso  ? Al
   Al28       1.0     0.885532     0.874393     0.116136    Uiso  ? Al
   Hf1        1.0     0.227394     0.196060     0.605605    Uiso  ? Hf
   Hf2        1.0     0.877616     0.544371     0.602429    Uiso  ? Hf
   Hf3        1.0     0.220387     0.550393     0.594723    Uiso  ? Hf
   Hf4        1.0     0.452004     0.423743     0.862105    Uiso  ? Hf
   Mg1        1.0     0.779352     0.420555     0.346825    Uiso  ? Mg
   Mg2        1.0     0.438071     0.768344     0.352717    Uiso  ? Mg
   Mg3        1.0     0.446593     0.760435     0.855109    Uiso  ? Mg
   Mg4        1.0     0.554412     0.869613     0.609812    Uiso  ? Mg
   N1         1.0     0.221623     0.202528     0.343570    Uiso  ? N
   N2         1.0     0.110456     0.097643     0.093541    Uiso  ? N
   N3         1.0     0.889872     0.203435     0.842235    Uiso  ? N
   N4         1.0     0.778762     0.094100     0.590767    Uiso  ? N
   N5         1.0     0.560584     0.203423     0.343521    Uiso  ? N
   N6         1.0     0.442845     0.098970     0.099732    Uiso  ? N
   N7         1.0     0.223099     0.207720     0.854207    Uiso  ? N
   N8         1.0     0.102464     0.086120     0.591249    Uiso  ? N
   N9         1.0     0.894920     0.190029     0.342752    Uiso  ? N
   N10        1.0     0.778534     0.095425     0.091965    Uiso  ? N
   N11        1.0     0.569182     0.187688     0.845244    Uiso  ? N
   N12        1.0     0.454946     0.100651     0.585743    Uiso  ? N
   N13        1.0     0.221881     0.539619     0.344496    Uiso  ? N
   N14        1.0     0.111978     0.427451     0.105003    Uiso  ? N
   N15        1.0     0.892978     0.537087     0.851964    Uiso  ? N
   N16        1.0     0.765396     0.421236     0.602516    Uiso  ? N
   N17        1.0     0.548800     0.529810     0.343861    Uiso  ? N
   N18        1.0     0.437832     0.422237     0.107447    Uiso  ? N
   N19        1.0     0.204403     0.549629     0.847812    Uiso  ? N
   N20        1.0     0.111095     0.427760     0.582047    Uiso  ? N
   N21        1.0     0.893206     0.548918     0.345549    Uiso  ? N
   N22        1.0     0.788186     0.423412     0.099241    Uiso  ? N
   N23        1.0     0.574076     0.526748     0.879326    Uiso  ? N
   N24        1.0     0.457916     0.418244     0.604897    Uiso  ? N
   N25        1.0     0.206907     0.880369     0.332024    Uiso  ? N
   N26        1.0     0.108563     0.759920     0.099668    Uiso  ? N
   N27        1.0     0.889425     0.874250     0.847047    Uiso  ? N
   N28        1.0     0.784932     0.773892     0.592052    Uiso  ? N
   N29        1.0     0.565509     0.877909     0.335312    Uiso  ? N
   N30        1.0     0.443020     0.763529     0.101851    Uiso  ? N
   N31        1.0     0.202841     0.879553     0.848811    Uiso  ? N
   N32        1.0     0.096015     0.783253     0.581782    Uiso  ? N
   N33        1.0     0.885568     0.877300     0.334586    Uiso  ? N
   N34        1.0     0.783622     0.758872     0.094019    Uiso  ? N
   N35        1.0     0.564562     0.877919     0.861723    Uiso  ? N
   N36        1.0     0.433307     0.750483     0.603190    Uiso  ? N
