
#======================================================================
# CRYSTAL DATA
#----------------------------------------------------------------------
data_VESTA_phase_1

_chemical_name_common                  'Al   Hf   Mg   N                      '
_cell_length_a                         9.670141
_cell_length_b                         9.653789
_cell_length_c                         10.160649
_cell_angle_alpha                      90.110909
_cell_angle_beta                       90.062126
_cell_angle_gamma                      59.955235
_cell_volume                           821.080606
_space_group_name_H-M_alt              'P 1'
_space_group_IT_number                 1

loop_
_space_group_symop_operation_xyz
   'x, y, z'

loop_
   _atom_site_label
   _atom_site_occupancy
   _atom_site_fract_x
   _atom_site_fract_y
   _atom_site_fract_z
   _atom_site_adp_type
   _atom_site_U_iso_or_equiv
   _atom_site_type_symbol
   Al1        1.0     0.105371     0.090667     0.299886    Uiso  ? Al
   Al2        1.0     0.223536     0.201761     0.053492    Uiso  ? Al
   Al3        1.0     0.784217     0.088447     0.805047    Uiso  ? Al
   Al4        1.0     0.884703     0.199253     0.552380    Uiso  ? Al
   Al5        1.0     0.452096     0.088573     0.296664    Uiso  ? Al
   Al6        1.0     0.561938     0.197027     0.059509    Uiso  ? Al
   Al7        1.0     0.107295     0.090052     0.811276    Uiso  ? Al
   Al8        1.0     0.780867     0.093832     0.305076    Uiso  ? Al
   Al9        1.0     0.888493     0.206743     0.053772    Uiso  ? Al
   Al10       1.0     0.453594     0.086291     0.811071    Uiso  ? Al
   Al11       1.0     0.565578     0.197890     0.548683    Uiso  ? Al
   Al12       1.0     0.108949     0.428283     0.290054    Uiso  ? Al
   Al13       1.0     0.215679     0.545379     0.059734    Uiso  ? Al
   Al14       1.0     0.781087     0.422130     0.811307    Uiso  ? Al
   Al15       1.0     0.450782     0.423510     0.293714    Uiso  ? Al
   Al16       1.0     0.561019     0.543660     0.056722    Uiso  ? Al
   Al17       1.0     0.107398     0.428399     0.819360    Uiso  ? Al
   Al18       1.0     0.884953     0.540405     0.050593    Uiso  ? Al
   Al19       1.0     0.553481     0.538286     0.546540    Uiso  ? Al
   Al20       1.0     0.104926     0.771646     0.298114    Uiso  ? Al
   Al21       1.0     0.223549     0.872061     0.052628    Uiso  ? Al
   Al22       1.0     0.776069     0.769160     0.811234    Uiso  ? Al
   Al23       1.0     0.883305     0.881329     0.551449    Uiso  ? Al
   Al24       1.0     0.555811     0.870327     0.054166    Uiso  ? Al
   Al25       1.0     0.100737     0.774167     0.809926    Uiso  ? Al
   Al26       1.0     0.219513     0.871969     0.550956    Uiso  ? Al
   Al27       1.0     0.776352     0.768390     0.297868    Uiso  ? Al
   Al28       1.0     0.888407     0.874168     0.054563    Uiso  ? Al
   Hf1        1.0     0.228219     0.195049     0.557304    Uiso  ? Hf
   Hf2        1.0     0.879517     0.545584     0.559908    Uiso  ? Hf
   Hf3        1.0     0.227534     0.547914     0.547503    Uiso  ? Hf
   Hf4        1.0     0.448277     0.424559     0.821394    Uiso  ? Hf
   Mg1        1.0     0.776250     0.424971     0.301176    Uiso  ? Mg
   Mg2        1.0     0.443220     0.761645     0.307018    Uiso  ? Mg
   Mg3        1.0     0.442116     0.766376     0.807091    Uiso  ? Mg
   Mg4        1.0     0.555023     0.870151     0.552145    Uiso  ? Mg
   N1         1.0     0.221978     0.206662     0.351039    Uiso  ? N
   N2         1.0     0.110199     0.095595     0.110608    Uiso  ? N
   N3         1.0     0.888825     0.202862     0.863325    Uiso  ? N
   N4         1.0     0.776744     0.094406     0.614309    Uiso  ? N
   N5         1.0     0.554957     0.205069     0.358263    Uiso  ? N
   N6         1.0     0.443040     0.096376     0.108644    Uiso  ? N
   N7         1.0     0.223814     0.203393     0.859467    Uiso  ? N
   N8         1.0     0.101326     0.087861     0.620801    Uiso  ? N
   N9         1.0     0.895517     0.192387     0.367519    Uiso  ? N
   N10        1.0     0.780131     0.094189     0.115454    Uiso  ? N
   N11        1.0     0.570388     0.186140     0.871381    Uiso  ? N
   N12        1.0     0.454736     0.102627     0.623436    Uiso  ? N
   N13        1.0     0.222046     0.537448     0.342742    Uiso  ? N
   N14        1.0     0.109842     0.427027     0.102461    Uiso  ? N
   N15        1.0     0.887432     0.539946     0.856018    Uiso  ? N
   N16        1.0     0.769621     0.416991     0.618368    Uiso  ? N
   N17        1.0     0.547582     0.526992     0.364914    Uiso  ? N
   N18        1.0     0.444328     0.426498     0.099284    Uiso  ? N
   N19        1.0     0.202844     0.552249     0.866328    Uiso  ? N
   N20        1.0     0.116022     0.429585     0.625912    Uiso  ? N
   N21        1.0     0.899233     0.547836     0.358142    Uiso  ? N
   N22        1.0     0.781692     0.426853     0.099185    Uiso  ? N
   N23        1.0     0.571996     0.531931     0.870005    Uiso  ? N
   N24        1.0     0.459966     0.414479     0.614191    Uiso  ? N
   N25        1.0     0.204427     0.880568     0.365002    Uiso  ? N
   N26        1.0     0.108502     0.764436     0.111667    Uiso  ? N
   N27        1.0     0.887848     0.874992     0.866722    Uiso  ? N
   N28        1.0     0.784893     0.773186     0.623822    Uiso  ? N
   N29        1.0     0.565262     0.879420     0.351521    Uiso  ? N
   N30        1.0     0.442813     0.762676     0.098810    Uiso  ? N
   N31        1.0     0.205580     0.879425     0.867831    Uiso  ? N
   N32        1.0     0.098274     0.778058     0.618039    Uiso  ? N
   N33        1.0     0.889010     0.872927     0.361921    Uiso  ? N
   N34        1.0     0.781595     0.760154     0.107692    Uiso  ? N
   N35        1.0     0.564658     0.877316     0.867355    Uiso  ? N
   N36        1.0     0.433159     0.751352     0.602365    Uiso  ? N
