
#======================================================================
# CRYSTAL DATA
#----------------------------------------------------------------------
data_VESTA_phase_1

_chemical_name_common                  'Al   Hf   Mg   N                      '
_cell_length_a                         9.670136
_cell_length_b                         9.653785
_cell_length_c                         10.160660
_cell_angle_alpha                      90.110886
_cell_angle_beta                       90.062164
_cell_angle_gamma                      59.955212
_cell_volume                           821.080535
_space_group_name_H-M_alt              'P 1'
_space_group_IT_number                 1

loop_
_space_group_symop_operation_xyz
   'x, y, z'

loop_
   _atom_site_label
   _atom_site_occupancy
   _atom_site_fract_x
   _atom_site_fract_y
   _atom_site_fract_z
   _atom_site_adp_type
   _atom_site_U_iso_or_equiv
   _atom_site_type_symbol
   Al1        1.0     0.105374     0.090666     0.312144    Uiso  ? Al
   Al2        1.0     0.223540     0.201760     0.065754    Uiso  ? Al
   Al3        1.0     0.784219     0.088447     0.817305    Uiso  ? Al
   Al4        1.0     0.884707     0.199252     0.564642    Uiso  ? Al
   Al5        1.0     0.452100     0.088571     0.308922    Uiso  ? Al
   Al6        1.0     0.561941     0.197027     0.071770    Uiso  ? Al
   Al7        1.0     0.107300     0.090051     0.823540    Uiso  ? Al
   Al8        1.0     0.780872     0.093831     0.317334    Uiso  ? Al
   Al9        1.0     0.888496     0.206742     0.066032    Uiso  ? Al
   Al10       1.0     0.453597     0.086291     0.823333    Uiso  ? Al
   Al11       1.0     0.565580     0.197889     0.560937    Uiso  ? Al
   Al12       1.0     0.108952     0.428283     0.302309    Uiso  ? Al
   Al13       1.0     0.215684     0.545378     0.071992    Uiso  ? Al
   Al14       1.0     0.781091     0.422129     0.823568    Uiso  ? Al
   Al15       1.0     0.450786     0.423510     0.305971    Uiso  ? Al
   Al16       1.0     0.561022     0.543659     0.068976    Uiso  ? Al
   Al17       1.0     0.107403     0.428397     0.831622    Uiso  ? Al
   Al18       1.0     0.884956     0.540405     0.062849    Uiso  ? Al
   Al19       1.0     0.553485     0.538285     0.558794    Uiso  ? Al
   Al20       1.0     0.104929     0.771646     0.310369    Uiso  ? Al
   Al21       1.0     0.223554     0.872059     0.064889    Uiso  ? Al
   Al22       1.0     0.776072     0.769160     0.823494    Uiso  ? Al
   Al23       1.0     0.883309     0.881328     0.563709    Uiso  ? Al
   Al24       1.0     0.555814     0.870327     0.066425    Uiso  ? Al
   Al25       1.0     0.100742     0.774165     0.822186    Uiso  ? Al
   Al26       1.0     0.219516     0.871968     0.563216    Uiso  ? Al
   Al27       1.0     0.776356     0.768390     0.310124    Uiso  ? Al
   Al28       1.0     0.888411     0.874168     0.066820    Uiso  ? Al
   Hf1        1.0     0.228222     0.195048     0.569562    Uiso  ? Hf
   Hf2        1.0     0.879520     0.545583     0.572165    Uiso  ? Hf
   Hf3        1.0     0.227535     0.547913     0.559758    Uiso  ? Hf
   Hf4        1.0     0.448280     0.424557     0.833647    Uiso  ? Hf
   Mg1        1.0     0.776254     0.424970     0.313433    Uiso  ? Mg
   Mg2        1.0     0.443223     0.761645     0.319276    Uiso  ? Mg
   Mg3        1.0     0.442119     0.766376     0.819347    Uiso  ? Mg
   Mg4        1.0     0.555027     0.870151     0.564404    Uiso  ? Mg
   N1         1.0     0.221981     0.206662     0.363297    Uiso  ? N
   N2         1.0     0.110202     0.095594     0.122868    Uiso  ? N
   N3         1.0     0.888828     0.202861     0.875585    Uiso  ? N
   N4         1.0     0.776746     0.094405     0.626568    Uiso  ? N
   N5         1.0     0.554961     0.205068     0.370519    Uiso  ? N
   N6         1.0     0.443044     0.096375     0.120903    Uiso  ? N
   N7         1.0     0.223818     0.203392     0.871730    Uiso  ? N
   N8         1.0     0.101330     0.087860     0.633063    Uiso  ? N
   N9         1.0     0.895521     0.192386     0.379780    Uiso  ? N
   N10        1.0     0.780135     0.094188     0.127713    Uiso  ? N
   N11        1.0     0.570391     0.186140     0.883641    Uiso  ? N
   N12        1.0     0.454739     0.102627     0.635696    Uiso  ? N
   N13        1.0     0.222049     0.537448     0.354997    Uiso  ? N
   N14        1.0     0.109845     0.427027     0.114717    Uiso  ? N
   N15        1.0     0.887435     0.539945     0.868276    Uiso  ? N
   N16        1.0     0.769624     0.416990     0.630627    Uiso  ? N
   N17        1.0     0.547586     0.526991     0.377169    Uiso  ? N
   N18        1.0     0.444332     0.426498     0.111542    Uiso  ? N
   N19        1.0     0.202849     0.552247     0.878587    Uiso  ? N
   N20        1.0     0.116025     0.429584     0.638173    Uiso  ? N
   N21        1.0     0.899237     0.547835     0.370399    Uiso  ? N
   N22        1.0     0.781695     0.426854     0.111441    Uiso  ? N
   N23        1.0     0.571997     0.531931     0.882260    Uiso  ? N
   N24        1.0     0.459968     0.414479     0.626444    Uiso  ? N
   N25        1.0     0.204430     0.880567     0.377261    Uiso  ? N
   N26        1.0     0.108506     0.764435     0.123923    Uiso  ? N
   N27        1.0     0.887851     0.874992     0.878981    Uiso  ? N
   N28        1.0     0.784897     0.773185     0.636083    Uiso  ? N
   N29        1.0     0.565266     0.879419     0.363779    Uiso  ? N
   N30        1.0     0.442818     0.762674     0.111068    Uiso  ? N
   N31        1.0     0.205584     0.879424     0.880092    Uiso  ? N
   N32        1.0     0.098279     0.778057     0.630299    Uiso  ? N
   N33        1.0     0.889014     0.872926     0.374180    Uiso  ? N
   N34        1.0     0.781599     0.760154     0.119949    Uiso  ? N
   N35        1.0     0.564661     0.877315     0.879614    Uiso  ? N
   N36        1.0     0.433163     0.751351     0.614622    Uiso  ? N
