
#======================================================================
# CRYSTAL DATA
#----------------------------------------------------------------------
data_VESTA_phase_1

_chemical_name_common                  'Al   Hf   Mg   N                      '
_cell_length_a                         9.727156
_cell_length_b                         9.713063
_cell_length_c                         10.065496
_cell_angle_alpha                      90.020042
_cell_angle_beta                       89.636795
_cell_angle_gamma                      60.010326
_cell_volume                           823.646366
_space_group_name_H-M_alt              'P 1'
_space_group_IT_number                 1

loop_
_space_group_symop_operation_xyz
   'x, y, z'

loop_
   _atom_site_label
   _atom_site_occupancy
   _atom_site_fract_x
   _atom_site_fract_y
   _atom_site_fract_z
   _atom_site_adp_type
   _atom_site_U_iso_or_equiv
   _atom_site_type_symbol
   Al1        1.0     0.104553     0.089207     0.377275    Uiso  ? Al
   Al2        1.0     0.224765     0.201078     0.134824    Uiso  ? Al
   Al3        1.0     0.785598     0.088451     0.883989    Uiso  ? Al
   Al4        1.0     0.880899     0.204509     0.634624    Uiso  ? Al
   Al5        1.0     0.452654     0.092274     0.377116    Uiso  ? Al
   Al6        1.0     0.562729     0.194216     0.134059    Uiso  ? Al
   Al7        1.0     0.108926     0.090711     0.887266    Uiso  ? Al
   Al8        1.0     0.780397     0.093436     0.382014    Uiso  ? Al
   Al9        1.0     0.894166     0.198203     0.136464    Uiso  ? Al
   Al10       1.0     0.454910     0.083476     0.889968    Uiso  ? Al
   Al11       1.0     0.567809     0.195399     0.633210    Uiso  ? Al
   Al12       1.0     0.108069     0.427559     0.368461    Uiso  ? Al
   Al13       1.0     0.213523     0.545964     0.138178    Uiso  ? Al
   Al14       1.0     0.786086     0.420708     0.899394    Uiso  ? Al
   Al15       1.0     0.444712     0.421897     0.336990    Uiso  ? Al
   Al16       1.0     0.558148     0.543987     0.132679    Uiso  ? Al
   Al17       1.0     0.107152     0.429074     0.895110    Uiso  ? Al
   Al18       1.0     0.889307     0.543869     0.137964    Uiso  ? Al
   Al19       1.0     0.551005     0.537534     0.552468    Uiso  ? Al
   Al20       1.0     0.101131     0.776795     0.376334    Uiso  ? Al
   Al21       1.0     0.222742     0.872928     0.134480    Uiso  ? Al
   Al22       1.0     0.773943     0.768342     0.889732    Uiso  ? Al
   Al23       1.0     0.882878     0.881795     0.633785    Uiso  ? Al
   Al24       1.0     0.557971     0.871726     0.135343    Uiso  ? Al
   Al25       1.0     0.101084     0.772238     0.885442    Uiso  ? Al
   Al26       1.0     0.219630     0.871255     0.634011    Uiso  ? Al
   Al27       1.0     0.778817     0.769802     0.377116    Uiso  ? Al
   Al28       1.0     0.888588     0.873510     0.133954    Uiso  ? Al
   Hf1        1.0     0.227561     0.194514     0.627578    Uiso  ? Hf
   Hf2        1.0     0.872553     0.544725     0.631334    Uiso  ? Hf
   Hf3        1.0     0.221347     0.548283     0.615266    Uiso  ? Hf
   Hf4        1.0     0.447472     0.426089     0.879510    Uiso  ? Hf
   Mg1        1.0     0.787623     0.418961     0.361812    Uiso  ? Mg
   Mg2        1.0     0.435550     0.774900     0.366870    Uiso  ? Mg
   Mg3        1.0     0.444565     0.765507     0.882861    Uiso  ? Mg
   Mg4        1.0     0.553759     0.869068     0.630854    Uiso  ? Mg
   N1         1.0     0.222733     0.202617     0.329257    Uiso  ? N
   N2         1.0     0.113287     0.094481     0.075402    Uiso  ? N
   N3         1.0     0.891507     0.205013     0.828575    Uiso  ? N
   N4         1.0     0.778633     0.094248     0.574796    Uiso  ? N
   N5         1.0     0.560637     0.201224     0.322520    Uiso  ? N
   N6         1.0     0.444414     0.095998     0.079264    Uiso  ? N
   N7         1.0     0.224790     0.206919     0.836428    Uiso  ? N
   N8         1.0     0.099167     0.088200     0.570917    Uiso  ? N
   N9         1.0     0.896035     0.186551     0.320483    Uiso  ? N
   N10        1.0     0.779887     0.092937     0.073356    Uiso  ? N
   N11        1.0     0.569882     0.185886     0.826259    Uiso  ? N
   N12        1.0     0.454622     0.102038     0.565513    Uiso  ? N
   N13        1.0     0.218347     0.542541     0.334528    Uiso  ? N
   N14        1.0     0.113998     0.426870     0.084040    Uiso  ? N
   N15        1.0     0.891422     0.536352     0.840587    Uiso  ? N
   N16        1.0     0.770850     0.416448     0.573817    Uiso  ? N
   N17        1.0     0.549117     0.532290     0.339776    Uiso  ? N
   N18        1.0     0.440839     0.425689     0.099474    Uiso  ? N
   N19        1.0     0.199398     0.551358     0.825503    Uiso  ? N
   N20        1.0     0.106072     0.425792     0.561930    Uiso  ? N
   N21        1.0     0.895514     0.551308     0.325346    Uiso  ? N
   N22        1.0     0.787226     0.423093     0.092278    Uiso  ? N
   N23        1.0     0.575222     0.527800     0.867086    Uiso  ? N
   N24        1.0     0.460604     0.414721     0.600428    Uiso  ? N
   N25        1.0     0.203232     0.881680     0.318378    Uiso  ? N
   N26        1.0     0.110343     0.760740     0.076034    Uiso  ? N
   N27        1.0     0.888417     0.872196     0.825513    Uiso  ? N
   N28        1.0     0.785934     0.771090     0.566985    Uiso  ? N
   N29        1.0     0.567028     0.882145     0.322117    Uiso  ? N
   N30        1.0     0.443881     0.764482     0.097763    Uiso  ? N
   N31        1.0     0.204169     0.880411     0.823535    Uiso  ? N
   N32        1.0     0.095234     0.784853     0.567410    Uiso  ? N
   N33        1.0     0.887231     0.876827     0.321856    Uiso  ? N
   N34        1.0     0.781623     0.761381     0.078502    Uiso  ? N
   N35        1.0     0.565798     0.877035     0.834405    Uiso  ? N
   N36        1.0     0.430767     0.754665     0.579226    Uiso  ? N
