
#======================================================================
# CRYSTAL DATA
#----------------------------------------------------------------------
data_VESTA_phase_1

_chemical_name_common                  'Al   Hf   Mg   N                      '
_cell_length_a                         9.799226
_cell_length_b                         9.777497
_cell_length_c                         9.836894
_cell_angle_alpha                      90.069290
_cell_angle_beta                       89.987961
_cell_angle_gamma                      59.884731
_cell_volume                           815.270949
_space_group_name_H-M_alt              'P 1'
_space_group_IT_number                 1

loop_
_space_group_symop_operation_xyz
   'x, y, z'

loop_
   _atom_site_label
   _atom_site_occupancy
   _atom_site_fract_x
   _atom_site_fract_y
   _atom_site_fract_z
   _atom_site_adp_type
   _atom_site_U_iso_or_equiv
   _atom_site_type_symbol
   Al1        1.0     0.105595     0.091235     0.321961    Uiso  ? Al
   Al2        1.0     0.224045     0.200572     0.073337    Uiso  ? Al
   Al3        1.0     0.784190     0.088877     0.826773    Uiso  ? Al
   Al4        1.0     0.884728     0.199333     0.573782    Uiso  ? Al
   Al5        1.0     0.450717     0.089487     0.320610    Uiso  ? Al
   Al6        1.0     0.562890     0.193922     0.083452    Uiso  ? Al
   Al7        1.0     0.105647     0.088679     0.834240    Uiso  ? Al
   Al8        1.0     0.781196     0.093516     0.326606    Uiso  ? Al
   Al9        1.0     0.888601     0.206655     0.077467    Uiso  ? Al
   Al10       1.0     0.456916     0.085358     0.833236    Uiso  ? Al
   Al11       1.0     0.565384     0.199959     0.570641    Uiso  ? Al
   Al12       1.0     0.109196     0.427839     0.313927    Uiso  ? Al
   Al13       1.0     0.213308     0.546757     0.080470    Uiso  ? Al
   Al14       1.0     0.780088     0.421412     0.835354    Uiso  ? Al
   Al15       1.0     0.448632     0.423071     0.314052    Uiso  ? Al
   Al16       1.0     0.561997     0.545202     0.085405    Uiso  ? Al
   Al17       1.0     0.107526     0.428647     0.844440    Uiso  ? Al
   Al18       1.0     0.884306     0.540705     0.071847    Uiso  ? Al
   Al19       1.0     0.553127     0.536862     0.565468    Uiso  ? Al
   Al20       1.0     0.104415     0.771316     0.321418    Uiso  ? Al
   Al21       1.0     0.224370     0.871317     0.076670    Uiso  ? Al
   Al22       1.0     0.775289     0.771854     0.834699    Uiso  ? Al
   Al23       1.0     0.882924     0.882243     0.572844    Uiso  ? Al
   Al24       1.0     0.555165     0.870085     0.079893    Uiso  ? Al
   Al25       1.0     0.099660     0.776231     0.831706    Uiso  ? Al
   Al26       1.0     0.218729     0.872038     0.572185    Uiso  ? Al
   Al27       1.0     0.777413     0.767612     0.320504    Uiso  ? Al
   Al28       1.0     0.888699     0.874103     0.077525    Uiso  ? Al
   Hf1        1.0     0.227942     0.195083     0.587684    Uiso  ? Hf
   Hf2        1.0     0.879236     0.546252     0.588708    Uiso  ? Hf
   Hf3        1.0     0.227554     0.546853     0.577815    Uiso  ? Hf
   Hf4        1.0     0.450845     0.424200     0.852619    Uiso  ? Hf
   Mg1        1.0     0.779380     0.423941     0.326267    Uiso  ? Mg
   Mg2        1.0     0.442185     0.763125     0.334756    Uiso  ? Mg
   Mg3        1.0     0.442767     0.765407     0.831368    Uiso  ? Mg
   Mg4        1.0     0.555682     0.870465     0.575813    Uiso  ? Mg
   N1         1.0     0.221091     0.207015     0.373820    Uiso  ? N
   N2         1.0     0.110826     0.096220     0.127515    Uiso  ? N
   N3         1.0     0.888306     0.202541     0.882267    Uiso  ? N
   N4         1.0     0.776555     0.095147     0.631414    Uiso  ? N
   N5         1.0     0.554903     0.205471     0.374373    Uiso  ? N
   N6         1.0     0.441174     0.097163     0.126896    Uiso  ? N
   N7         1.0     0.224248     0.202176     0.873538    Uiso  ? N
   N8         1.0     0.100058     0.086593     0.638801    Uiso  ? N
   N9         1.0     0.895784     0.191272     0.383530    Uiso  ? N
   N10        1.0     0.780454     0.093763     0.133242    Uiso  ? N
   N11        1.0     0.572250     0.184413     0.890133    Uiso  ? N
   N12        1.0     0.457113     0.102421     0.640298    Uiso  ? N
   N13        1.0     0.222254     0.536513     0.365339    Uiso  ? N
   N14        1.0     0.109939     0.426694     0.118152    Uiso  ? N
   N15        1.0     0.886936     0.540119     0.871100    Uiso  ? N
   N16        1.0     0.768204     0.416991     0.635067    Uiso  ? N
   N17        1.0     0.548404     0.525508     0.376187    Uiso  ? N
   N18        1.0     0.441877     0.425910     0.113389    Uiso  ? N
   N19        1.0     0.202832     0.553443     0.879827    Uiso  ? N
   N20        1.0     0.114931     0.429460     0.646275    Uiso  ? N
   N21        1.0     0.899902     0.547963     0.379398    Uiso  ? N
   N22        1.0     0.783733     0.426485     0.118058    Uiso  ? N
   N23        1.0     0.572997     0.532859     0.891542    Uiso  ? N
   N24        1.0     0.461701     0.414564     0.635989    Uiso  ? N
   N25        1.0     0.202939     0.881399     0.380930    Uiso  ? N
   N26        1.0     0.108543     0.763328     0.129763    Uiso  ? N
   N27        1.0     0.887971     0.875965     0.885228    Uiso  ? N
   N28        1.0     0.784380     0.775543     0.641909    Uiso  ? N
   N29        1.0     0.566065     0.879590     0.367689    Uiso  ? N
   N30        1.0     0.442084     0.763651     0.119592    Uiso  ? N
   N31        1.0     0.205892     0.878682     0.886417    Uiso  ? N
   N32        1.0     0.096843     0.780242     0.635074    Uiso  ? N
   N33        1.0     0.888381     0.873378     0.378725    Uiso  ? N
   N34        1.0     0.782752     0.759069     0.124904    Uiso  ? N
   N35        1.0     0.564472     0.877267     0.886393    Uiso  ? N
   N36        1.0     0.433347     0.750836     0.617112    Uiso  ? N
