
#======================================================================
# CRYSTAL DATA
#----------------------------------------------------------------------
data_VESTA_phase_1

_chemical_name_common                  'Al   Hf   Mg   N                      '
_cell_length_a                         10.229901
_cell_length_b                         10.201590
_cell_length_c                         8.630217
_cell_angle_alpha                      90.048805
_cell_angle_beta                       89.890419
_cell_angle_gamma                      59.847912
_cell_volume                           778.793386
_space_group_name_H-M_alt              'P 1'
_space_group_IT_number                 1

loop_
_space_group_symop_operation_xyz
   'x, y, z'

loop_
   _atom_site_label
   _atom_site_occupancy
   _atom_site_fract_x
   _atom_site_fract_y
   _atom_site_fract_z
   _atom_site_adp_type
   _atom_site_U_iso_or_equiv
   _atom_site_type_symbol
   Al1        1.0     0.106508     0.090143     0.335901    Uiso  ? Al
   Al2        1.0     0.225388     0.200883     0.100515    Uiso  ? Al
   Al3        1.0     0.783910     0.091147     0.852358    Uiso  ? Al
   Al4        1.0     0.885057     0.201412     0.592522    Uiso  ? Al
   Al5        1.0     0.452587     0.089005     0.341048    Uiso  ? Al
   Al6        1.0     0.561054     0.196124     0.106795    Uiso  ? Al
   Al7        1.0     0.103856     0.090277     0.861977    Uiso  ? Al
   Al8        1.0     0.782402     0.091990     0.341819    Uiso  ? Al
   Al9        1.0     0.888525     0.206004     0.103394    Uiso  ? Al
   Al10       1.0     0.456778     0.086717     0.860366    Uiso  ? Al
   Al11       1.0     0.566096     0.198956     0.585278    Uiso  ? Al
   Al12       1.0     0.109519     0.427418     0.333194    Uiso  ? Al
   Al13       1.0     0.216795     0.543736     0.109905    Uiso  ? Al
   Al14       1.0     0.781108     0.421167     0.865678    Uiso  ? Al
   Al15       1.0     0.448770     0.421741     0.335868    Uiso  ? Al
   Al16       1.0     0.559745     0.546725     0.113428    Uiso  ? Al
   Al17       1.0     0.107432     0.429335     0.873882    Uiso  ? Al
   Al18       1.0     0.885111     0.541984     0.105383    Uiso  ? Al
   Al19       1.0     0.553520     0.539040     0.573131    Uiso  ? Al
   Al20       1.0     0.101721     0.775796     0.340575    Uiso  ? Al
   Al21       1.0     0.227974     0.869599     0.101283    Uiso  ? Al
   Al22       1.0     0.775491     0.771323     0.859554    Uiso  ? Al
   Al23       1.0     0.884006     0.882348     0.596913    Uiso  ? Al
   Al24       1.0     0.554724     0.869133     0.102079    Uiso  ? Al
   Al25       1.0     0.101290     0.773360     0.867049    Uiso  ? Al
   Al26       1.0     0.220297     0.871207     0.601140    Uiso  ? Al
   Al27       1.0     0.776618     0.770087     0.338877    Uiso  ? Al
   Al28       1.0     0.886854     0.874332     0.100239    Uiso  ? Al
   Hf1        1.0     0.226801     0.195930     0.605357    Uiso  ? Hf
   Hf2        1.0     0.877784     0.545068     0.602944    Uiso  ? Hf
   Hf3        1.0     0.220131     0.549731     0.596645    Uiso  ? Hf
   Hf4        1.0     0.453805     0.422559     0.862574    Uiso  ? Hf
   Mg1        1.0     0.779885     0.420788     0.344043    Uiso  ? Mg
   Mg2        1.0     0.439870     0.766431     0.352401    Uiso  ? Mg
   Mg3        1.0     0.445294     0.761570     0.852518    Uiso  ? Mg
   Mg4        1.0     0.555405     0.869480     0.602941    Uiso  ? Mg
   N1         1.0     0.220896     0.204842     0.348017    Uiso  ? N
   N2         1.0     0.111183     0.096879     0.103473    Uiso  ? N
   N3         1.0     0.888267     0.203195     0.863622    Uiso  ? N
   N4         1.0     0.776974     0.095996     0.609325    Uiso  ? N
   N5         1.0     0.559133     0.202729     0.351999    Uiso  ? N
   N6         1.0     0.442071     0.098136     0.106839    Uiso  ? N
   N7         1.0     0.223229     0.206170     0.862834    Uiso  ? N
   N8         1.0     0.101504     0.087845     0.614459    Uiso  ? N
   N9         1.0     0.895965     0.190602     0.355960    Uiso  ? N
   N10        1.0     0.779211     0.094233     0.110178    Uiso  ? N
   N11        1.0     0.570049     0.188562     0.868378    Uiso  ? N
   N12        1.0     0.454988     0.102065     0.608559    Uiso  ? N
   N13        1.0     0.219923     0.539070     0.346301    Uiso  ? N
   N14        1.0     0.111907     0.427257     0.103967    Uiso  ? N
   N15        1.0     0.891022     0.537935     0.861292    Uiso  ? N
   N16        1.0     0.767438     0.419706     0.611798    Uiso  ? N
   N17        1.0     0.550333     0.527944     0.346867    Uiso  ? N
   N18        1.0     0.437428     0.422854     0.111129    Uiso  ? N
   N19        1.0     0.207162     0.549482     0.858121    Uiso  ? N
   N20        1.0     0.110854     0.428135     0.605721    Uiso  ? N
   N21        1.0     0.895288     0.547504     0.348839    Uiso  ? N
   N22        1.0     0.785301     0.425738     0.100703    Uiso  ? N
   N23        1.0     0.572166     0.528375     0.876603    Uiso  ? N
   N24        1.0     0.457494     0.417563     0.604528    Uiso  ? N
   N25        1.0     0.205767     0.881247     0.350431    Uiso  ? N
   N26        1.0     0.108531     0.760966     0.107543    Uiso  ? N
   N27        1.0     0.888849     0.875817     0.863712    Uiso  ? N
   N28        1.0     0.785258     0.772552     0.613999    Uiso  ? N
   N29        1.0     0.565512     0.878494     0.342978    Uiso  ? N
   N30        1.0     0.443087     0.763134     0.105865    Uiso  ? N
   N31        1.0     0.206343     0.877914     0.862778    Uiso  ? N
   N32        1.0     0.097057     0.780992     0.601282    Uiso  ? N
   N33        1.0     0.886416     0.875519     0.352861    Uiso  ? N
   N34        1.0     0.783189     0.759811     0.103153    Uiso  ? N
   N35        1.0     0.563995     0.877547     0.868019    Uiso  ? N
   N36        1.0     0.434578     0.750508     0.603855    Uiso  ? N
