
#======================================================================
# CRYSTAL DATA
#----------------------------------------------------------------------
data_VESTA_phase_1

_chemical_name_common                  'Al   Hf   Mg   N                      '
_cell_length_a                         10.111422
_cell_length_b                         10.083755
_cell_length_c                         8.969159
_cell_angle_alpha                      90.026611
_cell_angle_beta                       89.813248
_cell_angle_gamma                      59.876080
_cell_volume                           790.987456
_space_group_name_H-M_alt              'P 1'
_space_group_IT_number                 1

loop_
_space_group_symop_operation_xyz
   'x, y, z'

loop_
   _atom_site_label
   _atom_site_occupancy
   _atom_site_fract_x
   _atom_site_fract_y
   _atom_site_fract_z
   _atom_site_adp_type
   _atom_site_U_iso_or_equiv
   _atom_site_type_symbol
   Al1        1.0     0.105503     0.087171     0.363102    Uiso  ? Al
   Al2        1.0     0.224828     0.199675     0.120293    Uiso  ? Al
   Al3        1.0     0.784335     0.091239     0.873802    Uiso  ? Al
   Al4        1.0     0.883086     0.203515     0.617759    Uiso  ? Al
   Al5        1.0     0.455444     0.088873     0.359049    Uiso  ? Al
   Al6        1.0     0.561986     0.196249     0.122913    Uiso  ? Al
   Al7        1.0     0.104899     0.093085     0.876890    Uiso  ? Al
   Al8        1.0     0.781670     0.091777     0.370317    Uiso  ? Al
   Al9        1.0     0.891642     0.202048     0.126281    Uiso  ? Al
   Al10       1.0     0.453730     0.087416     0.879254    Uiso  ? Al
   Al11       1.0     0.566803     0.197514     0.612120    Uiso  ? Al
   Al12       1.0     0.109923     0.426862     0.345597    Uiso  ? Al
   Al13       1.0     0.216925     0.543906     0.124209    Uiso  ? Al
   Al14       1.0     0.784990     0.421500     0.877257    Uiso  ? Al
   Al15       1.0     0.449039     0.421075     0.332320    Uiso  ? Al
   Al16       1.0     0.559213     0.546060     0.112106    Uiso  ? Al
   Al17       1.0     0.106972     0.429725     0.886553    Uiso  ? Al
   Al18       1.0     0.885345     0.543689     0.125681    Uiso  ? Al
   Al19       1.0     0.551932     0.538867     0.563843    Uiso  ? Al
   Al20       1.0     0.099688     0.779898     0.354958    Uiso  ? Al
   Al21       1.0     0.226370     0.871969     0.116519    Uiso  ? Al
   Al22       1.0     0.776948     0.766791     0.875302    Uiso  ? Al
   Al23       1.0     0.885434     0.881909     0.625730    Uiso  ? Al
   Al24       1.0     0.556747     0.868531     0.110479    Uiso  ? Al
   Al25       1.0     0.101577     0.770144     0.882426    Uiso  ? Al
   Al26       1.0     0.218742     0.870527     0.626829    Uiso  ? Al
   Al27       1.0     0.776064     0.773903     0.363519    Uiso  ? Al
   Al28       1.0     0.885544     0.874438     0.119190    Uiso  ? Al
   Hf1        1.0     0.227653     0.195899     0.606693    Uiso  ? Hf
   Hf2        1.0     0.877315     0.544071     0.603028    Uiso  ? Hf
   Hf3        1.0     0.221012     0.550060     0.595013    Uiso  ? Hf
   Hf4        1.0     0.451257     0.424378     0.862525    Uiso  ? Hf
   Mg1        1.0     0.779548     0.420023     0.347578    Uiso  ? Mg
   Mg2        1.0     0.437908     0.769025     0.352878    Uiso  ? Mg
   Mg3        1.0     0.446435     0.760551     0.856193    Uiso  ? Mg
   Mg4        1.0     0.554323     0.869742     0.613807    Uiso  ? Mg
   N1         1.0     0.221903     0.201724     0.342848    Uiso  ? N
   N2         1.0     0.110836     0.097539     0.090039    Uiso  ? N
   N3         1.0     0.890024     0.203903     0.839341    Uiso  ? N
   N4         1.0     0.778998     0.094021     0.588239    Uiso  ? N
   N5         1.0     0.560971     0.203378     0.339540    Uiso  ? N
   N6         1.0     0.442548     0.099168     0.096628    Uiso  ? N
   N7         1.0     0.223140     0.208080     0.849543    Uiso  ? N
   N8         1.0     0.101724     0.086111     0.587372    Uiso  ? N
   N9         1.0     0.894966     0.189066     0.338753    Uiso  ? N
   N10        1.0     0.778544     0.095199     0.087752    Uiso  ? N
   N11        1.0     0.569079     0.187167     0.840680    Uiso  ? N
   N12        1.0     0.455565     0.100538     0.580623    Uiso  ? N
   N13        1.0     0.222163     0.540027     0.344459    Uiso  ? N
   N14        1.0     0.111960     0.427436     0.104229    Uiso  ? N
   N15        1.0     0.893339     0.536669     0.847430    Uiso  ? N
   N16        1.0     0.765114     0.420842     0.597919    Uiso  ? N
   N17        1.0     0.548175     0.530384     0.343211    Uiso  ? N
   N18        1.0     0.437697     0.422603     0.106079    Uiso  ? N
   N19        1.0     0.203407     0.549764     0.843277    Uiso  ? N
   N20        1.0     0.111193     0.427408     0.576280    Uiso  ? N
   N21        1.0     0.892846     0.549658     0.345053    Uiso  ? N
   N22        1.0     0.789050     0.423190     0.099370    Uiso  ? N
   N23        1.0     0.574778     0.526587     0.881156    Uiso  ? N
   N24        1.0     0.458714     0.417843     0.606809    Uiso  ? N
   N25        1.0     0.206597     0.880612     0.328966    Uiso  ? N
   N26        1.0     0.108657     0.759839     0.096630    Uiso  ? N
   N27        1.0     0.889440     0.873741     0.843435    Uiso  ? N
   N28        1.0     0.784699     0.774517     0.587144    Uiso  ? N
   N29        1.0     0.565844     0.878186     0.332198    Uiso  ? N
   N30        1.0     0.442723     0.763981     0.101160    Uiso  ? N
   N31        1.0     0.202177     0.879855     0.845199    Uiso  ? N
   N32        1.0     0.095627     0.783953     0.578372    Uiso  ? N
   N33        1.0     0.885314     0.877873     0.331756    Uiso  ? N
   N34        1.0     0.784023     0.758457     0.090967    Uiso  ? N
   N35        1.0     0.564753     0.877944     0.858934    Uiso  ? N
   N36        1.0     0.433060     0.750503     0.602214    Uiso  ? N
