
#======================================================================
# CRYSTAL DATA
#----------------------------------------------------------------------
data_VESTA_phase_1

_chemical_name_common                  'Al   Hf   Mg   N                      '
_cell_length_a                         9.683290
_cell_length_b                         9.665890
_cell_length_c                         10.130168
_cell_angle_alpha                      90.100319
_cell_angle_beta                       90.045799
_cell_angle_gamma                      59.941345
_cell_volume                           820.643197
_space_group_name_H-M_alt              'P 1'
_space_group_IT_number                 1

loop_
_space_group_symop_operation_xyz
   'x, y, z'

loop_
   _atom_site_label
   _atom_site_occupancy
   _atom_site_fract_x
   _atom_site_fract_y
   _atom_site_fract_z
   _atom_site_adp_type
   _atom_site_U_iso_or_equiv
   _atom_site_type_symbol
   Al1        1.0     0.105364     0.090692     0.320436    Uiso  ? Al
   Al2        1.0     0.223556     0.201648     0.073822    Uiso  ? Al
   Al3        1.0     0.784245     0.088486     0.825505    Uiso  ? Al
   Al4        1.0     0.884740     0.199236     0.572794    Uiso  ? Al
   Al5        1.0     0.451963     0.088652     0.317464    Uiso  ? Al
   Al6        1.0     0.562074     0.196576     0.080167    Uiso  ? Al
   Al7        1.0     0.107141     0.089882     0.831872    Uiso  ? Al
   Al8        1.0     0.780843     0.093832     0.325533    Uiso  ? Al
   Al9        1.0     0.888476     0.206776     0.074457    Uiso  ? Al
   Al10       1.0     0.453945     0.086183     0.831562    Uiso  ? Al
   Al11       1.0     0.565581     0.198190     0.569336    Uiso  ? Al
   Al12       1.0     0.108953     0.428229     0.310901    Uiso  ? Al
   Al13       1.0     0.215272     0.545556     0.080138    Uiso  ? Al
   Al14       1.0     0.781069     0.422036     0.831855    Uiso  ? Al
   Al15       1.0     0.450571     0.423460     0.313959    Uiso  ? Al
   Al16       1.0     0.561225     0.543896     0.077721    Uiso  ? Al
   Al17       1.0     0.107443     0.428416     0.840084    Uiso  ? Al
   Al18       1.0     0.884902     0.540391     0.071032    Uiso  ? Al
   Al19       1.0     0.553479     0.538107     0.566987    Uiso  ? Al
   Al20       1.0     0.104846     0.771591     0.318808    Uiso  ? Al
   Al21       1.0     0.223623     0.871957     0.073370    Uiso  ? Al
   Al22       1.0     0.775987     0.769468     0.831897    Uiso  ? Al
   Al23       1.0     0.883271     0.881454     0.571872    Uiso  ? Al
   Al24       1.0     0.555727     0.870295     0.075052    Uiso  ? Al
   Al25       1.0     0.100602     0.774369     0.830388    Uiso  ? Al
   Al26       1.0     0.219426     0.871962     0.571373    Uiso  ? Al
   Al27       1.0     0.776436     0.768323     0.318481    Uiso  ? Al
   Al28       1.0     0.888431     0.874148     0.075168    Uiso  ? Al
   Hf1        1.0     0.228206     0.195050     0.578696    Uiso  ? Hf
   Hf2        1.0     0.879592     0.545730     0.581187    Uiso  ? Hf
   Hf3        1.0     0.227832     0.547700     0.568894    Uiso  ? Hf
   Hf4        1.0     0.448534     0.424578     0.843312    Uiso  ? Hf
   Mg1        1.0     0.776464     0.424928     0.322145    Uiso  ? Mg
   Mg2        1.0     0.443138     0.761713     0.328187    Uiso  ? Mg
   Mg3        1.0     0.442159     0.766368     0.827733    Uiso  ? Mg
   Mg4        1.0     0.555107     0.870206     0.572803    Uiso  ? Mg
   N1         1.0     0.221864     0.206654     0.371829    Uiso  ? N
   N2         1.0     0.110246     0.095649     0.130713    Uiso  ? N
   N3         1.0     0.888771     0.202848     0.883604    Uiso  ? N
   N4         1.0     0.776782     0.094491     0.634410    Uiso  ? N
   N5         1.0     0.554890     0.205167     0.378339    Uiso  ? N
   N6         1.0     0.442824     0.096450     0.128936    Uiso  ? N
   N7         1.0     0.223870     0.203253     0.879267    Uiso  ? N
   N8         1.0     0.101185     0.087689     0.640994    Uiso  ? N
   N9         1.0     0.895508     0.192241     0.387492    Uiso  ? N
   N10        1.0     0.780142     0.094151     0.135617    Uiso  ? N
   N11        1.0     0.570654     0.185810     0.891635    Uiso  ? N
   N12        1.0     0.455039     0.102598     0.643513    Uiso  ? N
   N13        1.0     0.222100     0.537288     0.363446    Uiso  ? N
   N14        1.0     0.109813     0.426963     0.122584    Uiso  ? N
   N15        1.0     0.887413     0.539939     0.875870    Uiso  ? N
   N16        1.0     0.769597     0.416969     0.638368    Uiso  ? N
   N17        1.0     0.547535     0.526746     0.384707    Uiso  ? N
   N18        1.0     0.444106     0.426468     0.118780    Uiso  ? N
   N19        1.0     0.202650     0.552449     0.886178    Uiso  ? N
   N20        1.0     0.116043     0.429612     0.646370    Uiso  ? N
   N21        1.0     0.899271     0.547886     0.378797    Uiso  ? N
   N22        1.0     0.781876     0.426846     0.119598    Uiso  ? N
   N23        1.0     0.572248     0.532141     0.890449    Uiso  ? N
   N24        1.0     0.460288     0.414445     0.635284    Uiso  ? N
   N25        1.0     0.204245     0.880613     0.384997    Uiso  ? N
   N26        1.0     0.108471     0.764331     0.131916    Uiso  ? N
   N27        1.0     0.887857     0.875101     0.886963    Uiso  ? N
   N28        1.0     0.784792     0.773569     0.644055    Uiso  ? N
   N29        1.0     0.565339     0.879403     0.371588    Uiso  ? N
   N30        1.0     0.442735     0.762767     0.119365    Uiso  ? N
   N31        1.0     0.205602     0.879305     0.888091    Uiso  ? N
   N32        1.0     0.098136     0.778242     0.638117    Uiso  ? N
   N33        1.0     0.888895     0.873000     0.381983    Uiso  ? N
   N34        1.0     0.781702     0.760026     0.127827    Uiso  ? N
   N35        1.0     0.564629     0.877314     0.887671    Uiso  ? N
   N36        1.0     0.433154     0.751359     0.622242    Uiso  ? N
