
#======================================================================
# CRYSTAL DATA
#----------------------------------------------------------------------
data_VESTA_phase_1

_chemical_name_common                  'Al   Hf   Mg   N '
_cell_length_a                         9.666320
_cell_length_b                         9.650354
_cell_length_c                         10.160200
_cell_angle_alpha                      90.110336
_cell_angle_beta                       90.063026
_cell_angle_gamma                      59.954632
_cell_volume                           820.422917
_space_group_name_H-M_alt              'P 1'
_space_group_IT_number                 1

loop_
_space_group_symop_operation_xyz
   'x, y, z'

loop_
   _atom_site_label
   _atom_site_occupancy
   _atom_site_fract_x
   _atom_site_fract_y
   _atom_site_fract_z
   _atom_site_adp_type
   _atom_site_U_iso_or_equiv
   _atom_site_type_symbol
   Al1        1.0     0.105399     0.090676     0.291749    Uiso  ? Al
   Al2        1.0     0.223534     0.201748     0.045365    Uiso  ? Al
   Al3        1.0     0.784193     0.088463     0.796911    Uiso  ? Al
   Al4        1.0     0.884691     0.199266     0.544258    Uiso  ? Al
   Al5        1.0     0.452080     0.088587     0.288523    Uiso  ? Al
   Al6        1.0     0.561935     0.197055     0.051387    Uiso  ? Al
   Al7        1.0     0.107305     0.090040     0.803159    Uiso  ? Al
   Al8        1.0     0.780873     0.093853     0.296970    Uiso  ? Al
   Al9        1.0     0.888495     0.206734     0.045658    Uiso  ? Al
   Al10       1.0     0.453555     0.086292     0.802967    Uiso  ? Al
   Al11       1.0     0.565556     0.197875     0.540547    Uiso  ? Al
   Al12       1.0     0.108958     0.428266     0.281902    Uiso  ? Al
   Al13       1.0     0.215687     0.545379     0.051632    Uiso  ? Al
   Al14       1.0     0.781070     0.422141     0.803207    Uiso  ? Al
   Al15       1.0     0.450793     0.423521     0.285597    Uiso  ? Al
   Al16       1.0     0.561001     0.543664     0.048623    Uiso  ? Al
   Al17       1.0     0.107380     0.428376     0.811264    Uiso  ? Al
   Al18       1.0     0.884946     0.540416     0.042473    Uiso  ? Al
   Al19       1.0     0.553481     0.538290     0.538436    Uiso  ? Al
   Al20       1.0     0.104967     0.771634     0.289993    Uiso  ? Al
   Al21       1.0     0.223568     0.872048     0.044504    Uiso  ? Al
   Al22       1.0     0.776044     0.769158     0.803133    Uiso  ? Al
   Al23       1.0     0.883303     0.881318     0.543325    Uiso  ? Al
   Al24       1.0     0.555815     0.870334     0.046075    Uiso  ? Al
   Al25       1.0     0.100738     0.774143     0.801800    Uiso  ? Al
   Al26       1.0     0.219540     0.871952     0.542847    Uiso  ? Al
   Al27       1.0     0.776378     0.768379     0.289743    Uiso  ? Al
   Al28       1.0     0.888411     0.874190     0.046442    Uiso  ? Al
   Hf1        1.0     0.228209     0.195019     0.549139    Uiso  ? Hf
   Hf2        1.0     0.879477     0.545581     0.551783    Uiso  ? Hf
   Hf3        1.0     0.227496     0.547883     0.539328    Uiso  ? Hf
   Hf4        1.0     0.448236     0.424587     0.813230    Uiso  ? Hf
   Mg1        1.0     0.776258     0.425015     0.293041    Uiso  ? Mg
   Mg2        1.0     0.443238     0.761644     0.298893    Uiso  ? Mg
   Mg3        1.0     0.442129     0.766387     0.798953    Uiso  ? Mg
   Mg4        1.0     0.555023     0.870152     0.543991    Uiso  ? Mg
   N1         1.0     0.221991     0.206657     0.342888    Uiso  ? N
   N2         1.0     0.110209     0.095572     0.102496    Uiso  ? N
   N3         1.0     0.888815     0.202860     0.855229    Uiso  ? N
   N4         1.0     0.776733     0.094406     0.606197    Uiso  ? N
   N5         1.0     0.554947     0.205076     0.350161    Uiso  ? N
   N6         1.0     0.443044     0.096385     0.100535    Uiso  ? N
   N7         1.0     0.223802     0.203372     0.851377    Uiso  ? N
   N8         1.0     0.101307     0.087838     0.612715    Uiso  ? N
   N9         1.0     0.895525     0.192437     0.359422    Uiso  ? N
   N10        1.0     0.780134     0.094201     0.107371    Uiso  ? N
   N11        1.0     0.570357     0.186161     0.863280    Uiso  ? N
   N12        1.0     0.454735     0.102595     0.615347    Uiso  ? N
   N13        1.0     0.222053     0.537448     0.334584    Uiso  ? N
   N14        1.0     0.109844     0.427015     0.094340    Uiso  ? N
   N15        1.0     0.887396     0.539962     0.847932    Uiso  ? N
   N16        1.0     0.769594     0.416971     0.610309    Uiso  ? N
   N17        1.0     0.547600     0.527012     0.356840    Uiso  ? N
   N18        1.0     0.444340     0.426511     0.091206    Uiso  ? N
   N19        1.0     0.202804     0.552253     0.858263    Uiso  ? N
   N20        1.0     0.116005     0.429556     0.617850    Uiso  ? N
   N21        1.0     0.899246     0.547825     0.350033    Uiso  ? N
   N22        1.0     0.781690     0.426851     0.091094    Uiso  ? N
   N23        1.0     0.571959     0.531988     0.861930    Uiso  ? N
   N24        1.0     0.459950     0.414476     0.606059    Uiso  ? N
   N25        1.0     0.204470     0.880567     0.356919    Uiso  ? N
   N26        1.0     0.108516     0.764451     0.103567    Uiso  ? N
   N27        1.0     0.887834     0.875005     0.858618    Uiso  ? N
   N28        1.0     0.784864     0.773207     0.615740    Uiso  ? N
   N29        1.0     0.565262     0.879418     0.343414    Uiso  ? N
   N30        1.0     0.442820     0.762678     0.090764    Uiso  ? N
   N31        1.0     0.205624     0.879381     0.859720    Uiso  ? N
   N32        1.0     0.098291     0.778034     0.609942    Uiso  ? N
   N33        1.0     0.889035     0.872924     0.353827    Uiso  ? N
   N34        1.0     0.781610     0.760162     0.099599    Uiso  ? N
   N35        1.0     0.564627     0.877316     0.859293    Uiso  ? N
   N36        1.0     0.433206     0.751362     0.594291    Uiso  ? N
