
#======================================================================
# CRYSTAL DATA
#----------------------------------------------------------------------
data_VESTA_phase_1

_chemical_name_common                  'Al   Hf   Mg   N                      '
_cell_length_a                         9.670136
_cell_length_b                         9.653786
_cell_length_c                         10.160655
_cell_angle_alpha                      90.110901
_cell_angle_beta                       90.062157
_cell_angle_gamma                      59.955219
_cell_volume                           821.080294
_space_group_name_H-M_alt              'P 1'
_space_group_IT_number                 1

loop_
_space_group_symop_operation_xyz
   'x, y, z'

loop_
   _atom_site_label
   _atom_site_occupancy
   _atom_site_fract_x
   _atom_site_fract_y
   _atom_site_fract_z
   _atom_site_adp_type
   _atom_site_U_iso_or_equiv
   _atom_site_type_symbol
   Al1        1.0     0.105369     0.090668     0.295826    Uiso  ? Al
   Al2        1.0     0.223535     0.201761     0.049437    Uiso  ? Al
   Al3        1.0     0.784215     0.088448     0.800989    Uiso  ? Al
   Al4        1.0     0.884703     0.199253     0.548326    Uiso  ? Al
   Al5        1.0     0.452095     0.088573     0.292606    Uiso  ? Al
   Al6        1.0     0.561937     0.197028     0.055452    Uiso  ? Al
   Al7        1.0     0.107295     0.090052     0.807223    Uiso  ? Al
   Al8        1.0     0.780868     0.093832     0.301018    Uiso  ? Al
   Al9        1.0     0.888491     0.206743     0.049715    Uiso  ? Al
   Al10       1.0     0.453593     0.086291     0.807016    Uiso  ? Al
   Al11       1.0     0.565576     0.197890     0.544621    Uiso  ? Al
   Al12       1.0     0.108947     0.428284     0.285992    Uiso  ? Al
   Al13       1.0     0.215679     0.545380     0.055673    Uiso  ? Al
   Al14       1.0     0.781087     0.422130     0.807250    Uiso  ? Al
   Al15       1.0     0.450781     0.423511     0.289652    Uiso  ? Al
   Al16       1.0     0.561018     0.543661     0.052658    Uiso  ? Al
   Al17       1.0     0.107398     0.428398     0.815304    Uiso  ? Al
   Al18       1.0     0.884952     0.540405     0.046531    Uiso  ? Al
   Al19       1.0     0.553480     0.538286     0.542477    Uiso  ? Al
   Al20       1.0     0.104925     0.771646     0.294052    Uiso  ? Al
   Al21       1.0     0.223549     0.872060     0.048572    Uiso  ? Al
   Al22       1.0     0.776067     0.769161     0.807178    Uiso  ? Al
   Al23       1.0     0.883304     0.881329     0.547391    Uiso  ? Al
   Al24       1.0     0.555809     0.870328     0.050109    Uiso  ? Al
   Al25       1.0     0.100737     0.774167     0.805868    Uiso  ? Al
   Al26       1.0     0.219511     0.871969     0.546898    Uiso  ? Al
   Al27       1.0     0.776352     0.768390     0.293807    Uiso  ? Al
   Al28       1.0     0.888406     0.874169     0.050504    Uiso  ? Al
   Hf1        1.0     0.228218     0.195049     0.553245    Uiso  ? Hf
   Hf2        1.0     0.879516     0.545584     0.555849    Uiso  ? Hf
   Hf3        1.0     0.227531     0.547914     0.543441    Uiso  ? Hf
   Hf4        1.0     0.448276     0.424558     0.817330    Uiso  ? Hf
   Mg1        1.0     0.776249     0.424971     0.297116    Uiso  ? Mg
   Mg2        1.0     0.443219     0.761646     0.302959    Uiso  ? Mg
   Mg3        1.0     0.442115     0.766377     0.803030    Uiso  ? Mg
   Mg4        1.0     0.555022     0.870152     0.548086    Uiso  ? Mg
   N1         1.0     0.221977     0.206663     0.346980    Uiso  ? N
   N2         1.0     0.110197     0.095595     0.106550    Uiso  ? N
   N3         1.0     0.888824     0.202861     0.859268    Uiso  ? N
   N4         1.0     0.776742     0.094406     0.610251    Uiso  ? N
   N5         1.0     0.554956     0.205070     0.354202    Uiso  ? N
   N6         1.0     0.443039     0.096377     0.104586    Uiso  ? N
   N7         1.0     0.223813     0.203393     0.855412    Uiso  ? N
   N8         1.0     0.101326     0.087860     0.616746    Uiso  ? N
   N9         1.0     0.895516     0.192388     0.363463    Uiso  ? N
   N10        1.0     0.780130     0.094189     0.111396    Uiso  ? N
   N11        1.0     0.570387     0.186140     0.867324    Uiso  ? N
   N12        1.0     0.454734     0.102628     0.619379    Uiso  ? N
   N13        1.0     0.222045     0.537448     0.338680    Uiso  ? N
   N14        1.0     0.109841     0.427028     0.098400    Uiso  ? N
   N15        1.0     0.887430     0.539946     0.851959    Uiso  ? N
   N16        1.0     0.769619     0.416991     0.614310    Uiso  ? N
   N17        1.0     0.547582     0.526992     0.360852    Uiso  ? N
   N18        1.0     0.444327     0.426499     0.095224    Uiso  ? N
   N19        1.0     0.202844     0.552248     0.862269    Uiso  ? N
   N20        1.0     0.116021     0.429584     0.621855    Uiso  ? N
   N21        1.0     0.899233     0.547836     0.354083    Uiso  ? N
   N22        1.0     0.781690     0.426855     0.095124    Uiso  ? N
   N23        1.0     0.571993     0.531932     0.865943    Uiso  ? N
   N24        1.0     0.459964     0.414480     0.610128    Uiso  ? N
   N25        1.0     0.204426     0.880568     0.360942    Uiso  ? N
   N26        1.0     0.108501     0.764436     0.107606    Uiso  ? N
   N27        1.0     0.887847     0.874993     0.862664    Uiso  ? N
   N28        1.0     0.784892     0.773186     0.619766    Uiso  ? N
   N29        1.0     0.565262     0.879420     0.347462    Uiso  ? N
   N30        1.0     0.442813     0.762675     0.094751    Uiso  ? N
   N31        1.0     0.205580     0.879425     0.863775    Uiso  ? N
   N32        1.0     0.098274     0.778058     0.613981    Uiso  ? N
   N33        1.0     0.889010     0.872927     0.357862    Uiso  ? N
   N34        1.0     0.781594     0.760154     0.103632    Uiso  ? N
   N35        1.0     0.564656     0.877316     0.863298    Uiso  ? N
   N36        1.0     0.433159     0.751352     0.598304    Uiso  ? N
