
#======================================================================
# CRYSTAL DATA
#----------------------------------------------------------------------
data_VESTA_phase_1

_chemical_name_common                  'Al   Hf   Mg   N                      '
_cell_length_a                         10.234383
_cell_length_b                         10.206793
_cell_length_c                         8.617855
_cell_angle_alpha                      90.041367
_cell_angle_beta                       89.866692
_cell_angle_gamma                      59.857391
_cell_volume                           778.489339
_space_group_name_H-M_alt              'P 1'
_space_group_IT_number                 1

loop_
_space_group_symop_operation_xyz
   'x, y, z'

loop_
   _atom_site_label
   _atom_site_occupancy
   _atom_site_fract_x
   _atom_site_fract_y
   _atom_site_fract_z
   _atom_site_adp_type
   _atom_site_U_iso_or_equiv
   _atom_site_type_symbol
   Al1        1.0     0.106644     0.089119     0.343966    Uiso  ? Al
   Al2        1.0     0.225267     0.200867     0.104543    Uiso  ? Al
   Al3        1.0     0.783948     0.091638     0.862303    Uiso  ? Al
   Al4        1.0     0.884622     0.201839     0.600188    Uiso  ? Al
   Al5        1.0     0.453294     0.088800     0.344866    Uiso  ? Al
   Al6        1.0     0.560798     0.196698     0.110176    Uiso  ? Al
   Al7        1.0     0.103938     0.091436     0.867023    Uiso  ? Al
   Al8        1.0     0.782480     0.091546     0.350700    Uiso  ? Al
   Al9        1.0     0.889370     0.205701     0.111351    Uiso  ? Al
   Al10       1.0     0.456243     0.086719     0.864106    Uiso  ? Al
   Al11       1.0     0.566128     0.198718     0.589774    Uiso  ? Al
   Al12       1.0     0.109543     0.427371     0.336330    Uiso  ? Al
   Al13       1.0     0.217063     0.543350     0.112999    Uiso  ? Al
   Al14       1.0     0.781597     0.421043     0.866463    Uiso  ? Al
   Al15       1.0     0.449143     0.421536     0.336852    Uiso  ? Al
   Al16       1.0     0.559776     0.546609     0.113290    Uiso  ? Al
   Al17       1.0     0.107371     0.429499     0.876889    Uiso  ? Al
   Al18       1.0     0.885053     0.542276     0.108958    Uiso  ? Al
   Al19       1.0     0.553178     0.539384     0.572951    Uiso  ? Al
   Al20       1.0     0.100925     0.777616     0.345524    Uiso  ? Al
   Al21       1.0     0.227935     0.870259     0.107489    Uiso  ? Al
   Al22       1.0     0.775623     0.770170     0.863822    Uiso  ? Al
   Al23       1.0     0.884691     0.882355     0.610256    Uiso  ? Al
   Al24       1.0     0.555343     0.868720     0.103788    Uiso  ? Al
   Al25       1.0     0.101544     0.772187     0.874843    Uiso  ? Al
   Al26       1.0     0.220273     0.870502     0.613389    Uiso  ? Al
   Al27       1.0     0.776418     0.771046     0.346240    Uiso  ? Al
   Al28       1.0     0.886293     0.873958     0.108409    Uiso  ? Al
   Hf1        1.0     0.226939     0.196112     0.604710    Uiso  ? Hf
   Hf2        1.0     0.877932     0.544829     0.602389    Uiso  ? Hf
   Hf3        1.0     0.219788     0.550284     0.595585    Uiso  ? Hf
   Hf4        1.0     0.453260     0.422771     0.862046    Uiso  ? Hf
   Mg1        1.0     0.779321     0.420915     0.345292    Uiso  ? Mg
   Mg2        1.0     0.438937     0.766915     0.353046    Uiso  ? Mg
   Mg3        1.0     0.446210     0.760936     0.853682    Uiso  ? Mg
   Mg4        1.0     0.554930     0.869402     0.604308    Uiso  ? Mg
   N1         1.0     0.221361     0.204226     0.345761    Uiso  ? N
   N2         1.0     0.110838     0.097309     0.100425    Uiso  ? N
   N3         1.0     0.889063     0.203117     0.854976    Uiso  ? N
   N4         1.0     0.777424     0.095384     0.600790    Uiso  ? N
   N5         1.0     0.559500     0.202880     0.349858    Uiso  ? N
   N6         1.0     0.442537     0.098248     0.104732    Uiso  ? N
   N7         1.0     0.222907     0.206846     0.861154    Uiso  ? N
   N8         1.0     0.102530     0.087124     0.604549    Uiso  ? N
   N9         1.0     0.895412     0.191070     0.351130    Uiso  ? N
   N10        1.0     0.779081     0.094709     0.103555    Uiso  ? N
   N11        1.0     0.569603     0.188660     0.861524    Uiso  ? N
   N12        1.0     0.454672     0.101478     0.601929    Uiso  ? N
   N13        1.0     0.220616     0.538996     0.344994    Uiso  ? N
   N14        1.0     0.111991     0.427353     0.104475    Uiso  ? N
   N15        1.0     0.891805     0.537844     0.859443    Uiso  ? N
   N16        1.0     0.766944     0.420590     0.609749    Uiso  ? N
   N17        1.0     0.549985     0.528544     0.345994    Uiso  ? N
   N18        1.0     0.437632     0.422525     0.110290    Uiso  ? N
   N19        1.0     0.206412     0.549565     0.855578    Uiso  ? N
   N20        1.0     0.110891     0.428124     0.597374    Uiso  ? N
   N21        1.0     0.894471     0.547621     0.346967    Uiso  ? N
   N22        1.0     0.785916     0.425024     0.099501    Uiso  ? N
   N23        1.0     0.572583     0.527547     0.875537    Uiso  ? N
   N24        1.0     0.457055     0.417963     0.602922    Uiso  ? N
   N25        1.0     0.206729     0.880628     0.341434    Uiso  ? N
   N26        1.0     0.108451     0.760475     0.104590    Uiso  ? N
   N27        1.0     0.889309     0.875228     0.855599    Uiso  ? N
   N28        1.0     0.785120     0.772622     0.605429    Uiso  ? N
   N29        1.0     0.565175     0.878172     0.341054    Uiso  ? N
   N30        1.0     0.443356     0.762965     0.103864    Uiso  ? N
   N31        1.0     0.204785     0.878581     0.856094    Uiso  ? N
   N32        1.0     0.096976     0.781540     0.591303    Uiso  ? N
   N33        1.0     0.886103     0.875956     0.344320    Uiso  ? N
   N34        1.0     0.783062     0.759646     0.100247    Uiso  ? N
   N35        1.0     0.564306     0.877647     0.865832    Uiso  ? N
   N36        1.0     0.434063     0.750539     0.604087    Uiso  ? N
