
#======================================================================
# CRYSTAL DATA
#----------------------------------------------------------------------
data_VESTA_phase_1

_chemical_name_common                  'Al   Hf   Mg   N                      '
_cell_length_a                         9.723427
_cell_length_b                         9.699389
_cell_length_c                         10.117758
_cell_angle_alpha                      90.009590
_cell_angle_beta                       89.557510
_cell_angle_gamma                      60.053024
_cell_volume                           826.785451
_space_group_name_H-M_alt              'P 1'
_space_group_IT_number                 1

loop_
_space_group_symop_operation_xyz
   'x, y, z'

loop_
   _atom_site_label
   _atom_site_occupancy
   _atom_site_fract_x
   _atom_site_fract_y
   _atom_site_fract_z
   _atom_site_adp_type
   _atom_site_U_iso_or_equiv
   _atom_site_type_symbol
   Al1        1.0     0.104458     0.089803     0.377688    Uiso  ? Al
   Al2        1.0     0.224575     0.200934     0.135538    Uiso  ? Al
   Al3        1.0     0.787407     0.085917     0.886045    Uiso  ? Al
   Al4        1.0     0.881541     0.204277     0.635215    Uiso  ? Al
   Al5        1.0     0.452342     0.094286     0.376569    Uiso  ? Al
   Al6        1.0     0.563941     0.192000     0.131700    Uiso  ? Al
   Al7        1.0     0.108700     0.090232     0.888744    Uiso  ? Al
   Al8        1.0     0.778408     0.095512     0.381875    Uiso  ? Al
   Al9        1.0     0.894591     0.198221     0.138218    Uiso  ? Al
   Al10       1.0     0.455009     0.081045     0.891961    Uiso  ? Al
   Al11       1.0     0.569233     0.193716     0.637911    Uiso  ? Al
   Al12       1.0     0.108466     0.427747     0.368325    Uiso  ? Al
   Al13       1.0     0.211162     0.547198     0.136051    Uiso  ? Al
   Al14       1.0     0.792507     0.416965     0.897804    Uiso  ? Al
   Al15       1.0     0.446914     0.426657     0.313199    Uiso  ? Al
   Al16       1.0     0.560104     0.544855     0.086441    Uiso  ? Al
   Al17       1.0     0.106589     0.428912     0.895473    Uiso  ? Al
   Al18       1.0     0.889291     0.543360     0.139501    Uiso  ? Al
   Al19       1.0     0.549276     0.535750     0.555154    Uiso  ? Al
   Al20       1.0     0.101436     0.776249     0.376267    Uiso  ? Al
   Al21       1.0     0.222963     0.872733     0.135580    Uiso  ? Al
   Al22       1.0     0.773817     0.768031     0.890553    Uiso  ? Al
   Al23       1.0     0.882632     0.881907     0.633703    Uiso  ? Al
   Al24       1.0     0.557335     0.871156     0.137554    Uiso  ? Al
   Al25       1.0     0.099984     0.771859     0.885922    Uiso  ? Al
   Al26       1.0     0.218186     0.872408     0.635055    Uiso  ? Al
   Al27       1.0     0.778208     0.770095     0.377558    Uiso  ? Al
   Al28       1.0     0.888504     0.873283     0.135247    Uiso  ? Al
   Hf1        1.0     0.227967     0.194436     0.628512    Uiso  ? Hf
   Hf2        1.0     0.874301     0.545304     0.631338    Uiso  ? Hf
   Hf3        1.0     0.223591     0.547845     0.614406    Uiso  ? Hf
   Hf4        1.0     0.447974     0.423487     0.865175    Uiso  ? Hf
   Mg1        1.0     0.781793     0.422024     0.363492    Uiso  ? Mg
   Mg2        1.0     0.436760     0.770601     0.369766    Uiso  ? Mg
   Mg3        1.0     0.441180     0.769857     0.876322    Uiso  ? Mg
   Mg4        1.0     0.554083     0.870381     0.630343    Uiso  ? Mg
   N1         1.0     0.222634     0.202955     0.328765    Uiso  ? N
   N2         1.0     0.113198     0.094234     0.075917    Uiso  ? N
   N3         1.0     0.891598     0.203488     0.828525    Uiso  ? N
   N4         1.0     0.777706     0.095342     0.574847    Uiso  ? N
   N5         1.0     0.559986     0.202834     0.319709    Uiso  ? N
   N6         1.0     0.444140     0.094805     0.079629    Uiso  ? N
   N7         1.0     0.225008     0.206230     0.836770    Uiso  ? N
   N8         1.0     0.099160     0.088728     0.570793    Uiso  ? N
   N9         1.0     0.895484     0.188138     0.321472    Uiso  ? N
   N10        1.0     0.781494     0.091932     0.073908    Uiso  ? N
   N11        1.0     0.572579     0.179974     0.830806    Uiso  ? N
   N12        1.0     0.454400     0.105361     0.564863    Uiso  ? N
   N13        1.0     0.218631     0.542525     0.332563    Uiso  ? N
   N14        1.0     0.113549     0.426717     0.083293    Uiso  ? N
   N15        1.0     0.891480     0.536251     0.839902    Uiso  ? N
   N16        1.0     0.771111     0.417369     0.580945    Uiso  ? N
   N17        1.0     0.544764     0.529982     0.366092    Uiso  ? N
   N18        1.0     0.440430     0.426683     0.101560    Uiso  ? N
   N19        1.0     0.196500     0.551906     0.824884    Uiso  ? N
   N20        1.0     0.108134     0.425368     0.561444    Uiso  ? N
   N21        1.0     0.895064     0.550935     0.325953    Uiso  ? N
   N22        1.0     0.791283     0.420849     0.091031    Uiso  ? N
   N23        1.0     0.575508     0.528968     0.890252    Uiso  ? N
   N24        1.0     0.463998     0.418092     0.637683    Uiso  ? N
   N25        1.0     0.203804     0.881616     0.318856    Uiso  ? N
   N26        1.0     0.109482     0.761478     0.075624    Uiso  ? N
   N27        1.0     0.888418     0.871243     0.825043    Uiso  ? N
   N28        1.0     0.785359     0.772054     0.566253    Uiso  ? N
   N29        1.0     0.565811     0.882226     0.323390    Uiso  ? N
   N30        1.0     0.442392     0.766847     0.095916    Uiso  ? N
   N31        1.0     0.201600     0.881080     0.823711    Uiso  ? N
   N32        1.0     0.095183     0.784559     0.567497    Uiso  ? N
   N33        1.0     0.886892     0.877404     0.322248    Uiso  ? N
   N34        1.0     0.781101     0.761129     0.078910    Uiso  ? N
   N35        1.0     0.566945     0.876227     0.833087    Uiso  ? N
   N36        1.0     0.430412     0.755312     0.587312    Uiso  ? N
