
#======================================================================
# CRYSTAL DATA
#----------------------------------------------------------------------
data_VESTA_phase_1

_chemical_name_common                  'Al   Hf   Mg   N                      '
_cell_length_a                         9.840994
_cell_length_b                         9.813231
_cell_length_c                         9.780901
_cell_angle_alpha                      90.026566
_cell_angle_beta                       89.677338
_cell_angle_gamma                      59.945808
_cell_volume                           817.547563
_space_group_name_H-M_alt              'P 1'
_space_group_IT_number                 1

loop_
_space_group_symop_operation_xyz
   'x, y, z'

loop_
   _atom_site_label
   _atom_site_occupancy
   _atom_site_fract_x
   _atom_site_fract_y
   _atom_site_fract_z
   _atom_site_adp_type
   _atom_site_U_iso_or_equiv
   _atom_site_type_symbol
   Al1        1.0     0.103576     0.088158     0.376797    Uiso  ? Al
   Al2        1.0     0.224510     0.200128     0.134808    Uiso  ? Al
   Al3        1.0     0.786296     0.087824     0.883392    Uiso  ? Al
   Al4        1.0     0.880684     0.205187     0.632600    Uiso  ? Al
   Al5        1.0     0.455335     0.091834     0.374314    Uiso  ? Al
   Al6        1.0     0.563162     0.192444     0.128990    Uiso  ? Al
   Al7        1.0     0.107925     0.091711     0.885100    Uiso  ? Al
   Al8        1.0     0.779244     0.094457     0.380692    Uiso  ? Al
   Al9        1.0     0.894827     0.197690     0.135208    Uiso  ? Al
   Al10       1.0     0.453391     0.083619     0.888443    Uiso  ? Al
   Al11       1.0     0.569061     0.194605     0.633584    Uiso  ? Al
   Al12       1.0     0.109823     0.426475     0.364914    Uiso  ? Al
   Al13       1.0     0.211735     0.546861     0.135349    Uiso  ? Al
   Al14       1.0     0.790218     0.420213     0.895482    Uiso  ? Al
   Al15       1.0     0.447344     0.423672     0.315675    Uiso  ? Al
   Al16       1.0     0.559255     0.545494     0.100717    Uiso  ? Al
   Al17       1.0     0.106466     0.429928     0.891687    Uiso  ? Al
   Al18       1.0     0.888736     0.544382     0.140348    Uiso  ? Al
   Al19       1.0     0.550060     0.536201     0.551644    Uiso  ? Al
   Al20       1.0     0.099350     0.779718     0.373615    Uiso  ? Al
   Al21       1.0     0.222928     0.873159     0.130943    Uiso  ? Al
   Al22       1.0     0.775183     0.766699     0.885922    Uiso  ? Al
   Al23       1.0     0.883440     0.882191     0.633422    Uiso  ? Al
   Al24       1.0     0.557347     0.871031     0.130500    Uiso  ? Al
   Al25       1.0     0.100840     0.770373     0.884164    Uiso  ? Al
   Al26       1.0     0.218253     0.871469     0.633998    Uiso  ? Al
   Al27       1.0     0.777223     0.773197     0.376560    Uiso  ? Al
   Al28       1.0     0.887819     0.873398     0.131466    Uiso  ? Al
   Hf1        1.0     0.228743     0.193786     0.620249    Uiso  ? Hf
   Hf2        1.0     0.875051     0.543740     0.618262    Uiso  ? Hf
   Hf3        1.0     0.224938     0.547688     0.604117    Uiso  ? Hf
   Hf4        1.0     0.448483     0.425566     0.864543    Uiso  ? Hf
   Mg1        1.0     0.781707     0.419739     0.354726    Uiso  ? Mg
   Mg2        1.0     0.436972     0.771298     0.360423    Uiso  ? Mg
   Mg3        1.0     0.443559     0.765852     0.870225    Uiso  ? Mg
   Mg4        1.0     0.554304     0.869323     0.627999    Uiso  ? Mg
   N1         1.0     0.223113     0.201225     0.334696    Uiso  ? N
   N2         1.0     0.112961     0.095532     0.077934    Uiso  ? N
   N3         1.0     0.890386     0.205108     0.831156    Uiso  ? N
   N4         1.0     0.778412     0.094850     0.577901    Uiso  ? N
   N5         1.0     0.560594     0.202803     0.323491    Uiso  ? N
   N6         1.0     0.442496     0.096571     0.082367    Uiso  ? N
   N7         1.0     0.223998     0.207243     0.835667    Uiso  ? N
   N8         1.0     0.098490     0.087601     0.574681    Uiso  ? N
   N9         1.0     0.895809     0.186266     0.324202    Uiso  ? N
   N10        1.0     0.780468     0.092642     0.076285    Uiso  ? N
   N11        1.0     0.570773     0.183151     0.832837    Uiso  ? N
   N12        1.0     0.457120     0.102307     0.568018    Uiso  ? N
   N13        1.0     0.220465     0.541770     0.339957    Uiso  ? N
   N14        1.0     0.112475     0.427319     0.088685    Uiso  ? N
   N15        1.0     0.891984     0.536041     0.835934    Uiso  ? N
   N16        1.0     0.767842     0.417377     0.579383    Uiso  ? N
   N17        1.0     0.546082     0.531592     0.349576    Uiso  ? N
   N18        1.0     0.437681     0.425667     0.101923    Uiso  ? N
   N19        1.0     0.198706     0.551279     0.825197    Uiso  ? N
   N20        1.0     0.110445     0.425010     0.563335    Uiso  ? N
   N21        1.0     0.894430     0.551280     0.335146    Uiso  ? N
   N22        1.0     0.791619     0.422059     0.096442    Uiso  ? N
   N23        1.0     0.575822     0.528247     0.890835    Uiso  ? N
   N24        1.0     0.463860     0.416987     0.626270    Uiso  ? N
   N25        1.0     0.203500     0.881753     0.320459    Uiso  ? N
   N26        1.0     0.109300     0.760564     0.079550    Uiso  ? N
   N27        1.0     0.888480     0.872292     0.829054    Uiso  ? N
   N28        1.0     0.784493     0.774577     0.570996    Uiso  ? N
   N29        1.0     0.566920     0.881485     0.323802    Uiso  ? N
   N30        1.0     0.441772     0.767170     0.098576    Uiso  ? N
   N31        1.0     0.201543     0.880811     0.828241    Uiso  ? N
   N32        1.0     0.094483     0.785576     0.570019    Uiso  ? N
   N33        1.0     0.886223     0.877875     0.323725    Uiso  ? N
   N34        1.0     0.782718     0.759410     0.080510    Uiso  ? N
   N35        1.0     0.565983     0.877031     0.838509    Uiso  ? N
   N36        1.0     0.431247     0.752290     0.589392    Uiso  ? N
