
#======================================================================
# CRYSTAL DATA
#----------------------------------------------------------------------
data_VESTA_phase_1

_chemical_name_common                  'Al   Hf   Mg   N                      '
_cell_length_a                         9.955125
_cell_length_b                         9.926777
_cell_length_c                         9.440143
_cell_angle_alpha                      90.026810
_cell_angle_beta                       89.743408
_cell_angle_gamma                      59.904598
_cell_volume                           807.122333
_space_group_name_H-M_alt              'P 1'
_space_group_IT_number                 1

loop_
_space_group_symop_operation_xyz
   'x, y, z'

loop_
   _atom_site_label
   _atom_site_occupancy
   _atom_site_fract_x
   _atom_site_fract_y
   _atom_site_fract_z
   _atom_site_adp_type
   _atom_site_U_iso_or_equiv
   _atom_site_type_symbol
   Al1        1.0     0.103670     0.087074     0.373595    Uiso  ? Al
   Al2        1.0     0.224777     0.199278     0.132232    Uiso  ? Al
   Al3        1.0     0.785429     0.089250     0.880033    Uiso  ? Al
   Al4        1.0     0.881184     0.205056     0.628753    Uiso  ? Al
   Al5        1.0     0.456762     0.089801     0.369748    Uiso  ? Al
   Al6        1.0     0.562641     0.193916     0.126922    Uiso  ? Al
   Al7        1.0     0.107082     0.092807     0.881958    Uiso  ? Al
   Al8        1.0     0.780238     0.093367     0.378150    Uiso  ? Al
   Al9        1.0     0.894031     0.198729     0.131912    Uiso  ? Al
   Al10       1.0     0.452486     0.085998     0.885472    Uiso  ? Al
   Al11       1.0     0.568199     0.195783     0.627209    Uiso  ? Al
   Al12       1.0     0.110214     0.426513     0.357515    Uiso  ? Al
   Al13       1.0     0.214071     0.545855     0.132922    Uiso  ? Al
   Al14       1.0     0.788293     0.421673     0.889916    Uiso  ? Al
   Al15       1.0     0.448167     0.421760     0.322691    Uiso  ? Al
   Al16       1.0     0.558744     0.545855     0.108763    Uiso  ? Al
   Al17       1.0     0.106559     0.429860     0.890214    Uiso  ? Al
   Al18       1.0     0.887079     0.544670     0.138008    Uiso  ? Al
   Al19       1.0     0.550746     0.537407     0.555563    Uiso  ? Al
   Al20       1.0     0.098849     0.780985     0.367852    Uiso  ? Al
   Al21       1.0     0.224181     0.872880     0.125499    Uiso  ? Al
   Al22       1.0     0.776779     0.765620     0.882072    Uiso  ? Al
   Al23       1.0     0.884435     0.882146     0.631615    Uiso  ? Al
   Al24       1.0     0.557156     0.870024     0.121497    Uiso  ? Al
   Al25       1.0     0.101293     0.769718     0.883912    Uiso  ? Al
   Al26       1.0     0.217988     0.871139     0.632615    Uiso  ? Al
   Al27       1.0     0.776080     0.774972     0.373408    Uiso  ? Al
   Al28       1.0     0.886896     0.873766     0.127199    Uiso  ? Al
   Hf1        1.0     0.228456     0.194639     0.612809    Uiso  ? Hf
   Hf2        1.0     0.875999     0.543591     0.608748    Uiso  ? Hf
   Hf3        1.0     0.223612     0.548547     0.598813    Uiso  ? Hf
   Hf4        1.0     0.449356     0.425717     0.864157    Uiso  ? Hf
   Mg1        1.0     0.780700     0.418884     0.350803    Uiso  ? Mg
   Mg2        1.0     0.437486     0.770813     0.355657    Uiso  ? Mg
   Mg3        1.0     0.445198     0.762519     0.862577    Uiso  ? Mg
   Mg4        1.0     0.554473     0.869671     0.624904    Uiso  ? Mg
   N1         1.0     0.222957     0.200536     0.339716    Uiso  ? N
   N2         1.0     0.112466     0.096590     0.081725    Uiso  ? N
   N3         1.0     0.890160     0.205145     0.834245    Uiso  ? N
   N4         1.0     0.778856     0.094547     0.581741    Uiso  ? N
   N5         1.0     0.561083     0.202960     0.328875    Uiso  ? N
   N6         1.0     0.441754     0.098335     0.087192    Uiso  ? N
   N7         1.0     0.223411     0.208088     0.838185    Uiso  ? N
   N8         1.0     0.099124     0.086831     0.579193    Uiso  ? N
   N9         1.0     0.895572     0.186541     0.328624    Uiso  ? N
   N10        1.0     0.779521     0.093598     0.079714    Uiso  ? N
   N11        1.0     0.569700     0.185197     0.834923    Uiso  ? N
   N12        1.0     0.457512     0.100798     0.571816    Uiso  ? N
   N13        1.0     0.221635     0.541307     0.343327    Uiso  ? N
   N14        1.0     0.112039     0.427376     0.096627    Uiso  ? N
   N15        1.0     0.893062     0.535935     0.837232    Uiso  ? N
   N16        1.0     0.765806     0.418640     0.584617    Uiso  ? N
   N17        1.0     0.546667     0.531671     0.343544    Uiso  ? N
   N18        1.0     0.437077     0.424420     0.103004    Uiso  ? N
   N19        1.0     0.200608     0.550508     0.830729    Uiso  ? N
   N20        1.0     0.111272     0.425960     0.566102    Uiso  ? N
   N21        1.0     0.893104     0.551118     0.341838    Uiso  ? N
   N22        1.0     0.790965     0.422835     0.098946    Uiso  ? N
   N23        1.0     0.576014     0.527084     0.887049    Uiso  ? N
   N24        1.0     0.461742     0.416709     0.616388    Uiso  ? N
   N25        1.0     0.204767     0.881371     0.323038    Uiso  ? N
   N26        1.0     0.109104     0.760034     0.085798    Uiso  ? N
   N27        1.0     0.888976     0.872761     0.834072    Uiso  ? N
   N28        1.0     0.784049     0.775645     0.576564    Uiso  ? N
   N29        1.0     0.566841     0.880062     0.325205    Uiso  ? N
   N30        1.0     0.441889     0.765958     0.099686    Uiso  ? N
   N31        1.0     0.201262     0.880620     0.834533    Uiso  ? N
   N32        1.0     0.094691     0.785436     0.572491    Uiso  ? N
   N33        1.0     0.885606     0.878250     0.326219    Uiso  ? N
   N34        1.0     0.784119     0.758181     0.083770    Uiso  ? N
   N35        1.0     0.565513     0.877537     0.847196    Uiso  ? N
   N36        1.0     0.432245     0.751000     0.595980    Uiso  ? N
