
#======================================================================
# CRYSTAL DATA
#----------------------------------------------------------------------
data_VESTA_phase_1

_chemical_name_common                  'Al   Hf   Mg   N                      '
_cell_length_a                         9.681297
_cell_length_b                         9.661866
_cell_length_c                         10.158331
_cell_angle_alpha                      90.108795
_cell_angle_beta                       90.018661
_cell_angle_gamma                      59.943783
_cell_volume                           822.432698
_space_group_name_H-M_alt              'P 1'
_space_group_IT_number                 1

loop_
_space_group_symop_operation_xyz
   'x, y, z'

loop_
   _atom_site_label
   _atom_site_occupancy
   _atom_site_fract_x
   _atom_site_fract_y
   _atom_site_fract_z
   _atom_site_adp_type
   _atom_site_U_iso_or_equiv
   _atom_site_type_symbol
   Al1        1.0     0.105823     0.089615     0.384028    Uiso  ? Al
   Al2        1.0     0.224430     0.201360     0.144054    Uiso  ? Al
   Al3        1.0     0.783459     0.089114     0.893154    Uiso  ? Al
   Al4        1.0     0.883946     0.202181     0.644258    Uiso  ? Al
   Al5        1.0     0.451961     0.091303     0.384533    Uiso  ? Al
   Al6        1.0     0.559763     0.200629     0.147457    Uiso  ? Al
   Al7        1.0     0.107262     0.091198     0.898677    Uiso  ? Al
   Al8        1.0     0.781258     0.093641     0.389493    Uiso  ? Al
   Al9        1.0     0.889869     0.203121     0.144559    Uiso  ? Al
   Al10       1.0     0.453688     0.084523     0.900965    Uiso  ? Al
   Al11       1.0     0.567535     0.195503     0.637789    Uiso  ? Al
   Al12       1.0     0.108870     0.426746     0.375595    Uiso  ? Al
   Al13       1.0     0.220700     0.542786     0.152487    Uiso  ? Al
   Al14       1.0     0.781941     0.423002     0.900128    Uiso  ? Al
   Al15       1.0     0.455260     0.422202     0.386105    Uiso  ? Al
   Al16       1.0     0.555201     0.544201     0.150956    Uiso  ? Al
   Al17       1.0     0.106793     0.428799     0.906281    Uiso  ? Al
   Al18       1.0     0.886402     0.542660     0.145792    Uiso  ? Al
   Al19       1.0     0.557510     0.538572     0.640981    Uiso  ? Al
   Al20       1.0     0.103278     0.775704     0.384240    Uiso  ? Al
   Al21       1.0     0.225408     0.871008     0.144259    Uiso  ? Al
   Al22       1.0     0.773485     0.769086     0.900252    Uiso  ? Al
   Al23       1.0     0.882699     0.882346     0.642319    Uiso  ? Al
   Al24       1.0     0.556099     0.870019     0.144668    Uiso  ? Al
   Al25       1.0     0.101127     0.771699     0.895926    Uiso  ? Al
   Al26       1.0     0.217792     0.872831     0.645250    Uiso  ? Al
   Al27       1.0     0.778482     0.768441     0.383995    Uiso  ? Al
   Al28       1.0     0.888381     0.873471     0.142877    Uiso  ? Al
   Hf1        1.0     0.228561     0.193279     0.639073    Uiso  ? Hf
   Hf2        1.0     0.878059     0.545632     0.641023    Uiso  ? Hf
   Hf3        1.0     0.222088     0.548690     0.620367    Uiso  ? Hf
   Hf4        1.0     0.444746     0.426198     0.891064    Uiso  ? Hf
   Mg1        1.0     0.777156     0.424358     0.383139    Uiso  ? Mg
   Mg2        1.0     0.442148     0.761402     0.389882    Uiso  ? Mg
   Mg3        1.0     0.443512     0.766684     0.889302    Uiso  ? Mg
   Mg4        1.0     0.555285     0.870713     0.641268    Uiso  ? Mg
   N1         1.0     0.223040     0.202215     0.335994    Uiso  ? N
   N2         1.0     0.111497     0.095092     0.084980    Uiso  ? N
   N3         1.0     0.889994     0.204296     0.836264    Uiso  ? N
   N4         1.0     0.779395     0.094653     0.582158    Uiso  ? N
   N5         1.0     0.559358     0.203591     0.333853    Uiso  ? N
   N6         1.0     0.444715     0.096991     0.088692    Uiso  ? N
   N7         1.0     0.223258     0.206971     0.846532    Uiso  ? N
   N8         1.0     0.100180     0.088064     0.577943    Uiso  ? N
   N9         1.0     0.894551     0.190798     0.328233    Uiso  ? N
   N10        1.0     0.777181     0.094503     0.081361    Uiso  ? N
   N11        1.0     0.565270     0.189849     0.829636    Uiso  ? N
   N12        1.0     0.453640     0.101837     0.572173    Uiso  ? N
   N13        1.0     0.223188     0.540188     0.347448    Uiso  ? N
   N14        1.0     0.114138     0.427967     0.093628    Uiso  ? N
   N15        1.0     0.890725     0.538275     0.848564    Uiso  ? N
   N16        1.0     0.772820     0.417766     0.590065    Uiso  ? N
   N17        1.0     0.549508     0.531285     0.330108    Uiso  ? N
   N18        1.0     0.442202     0.426246     0.094958    Uiso  ? N
   N19        1.0     0.202074     0.548167     0.829638    Uiso  ? N
   N20        1.0     0.108895     0.423853     0.568628    Uiso  ? N
   N21        1.0     0.894296     0.548581     0.332305    Uiso  ? N
   N22        1.0     0.779431     0.426791     0.088318    Uiso  ? N
   N23        1.0     0.573633     0.526054     0.830677    Uiso  ? N
   N24        1.0     0.463354     0.414323     0.585322    Uiso  ? N
   N25        1.0     0.208283     0.879355     0.327672    Uiso  ? N
   N26        1.0     0.111508     0.758784     0.085226    Uiso  ? N
   N27        1.0     0.887848     0.871982     0.833576    Uiso  ? N
   N28        1.0     0.785847     0.771923     0.573124    Uiso  ? N
   N29        1.0     0.564471     0.879109     0.330550    Uiso  ? N
   N30        1.0     0.444428     0.761215     0.095839    Uiso  ? N
   N31        1.0     0.201697     0.881270     0.832494    Uiso  ? N
   N32        1.0     0.094617     0.785694     0.575153    Uiso  ? N
   N33        1.0     0.887892     0.876193     0.329404    Uiso  ? N
   N34        1.0     0.780391     0.761687     0.087200    Uiso  ? N
   N35        1.0     0.565548     0.878511     0.842652    Uiso  ? N
   N36        1.0     0.431621     0.753039     0.597865    Uiso  ? N
