# generated using pymatgen
data_LiGe2N3
_symmetry_space_group_name_H-M   'P 1'
_cell_length_a   5.40148909
_cell_length_b   5.58498766
_cell_length_c   5.56543269
_cell_angle_alpha   119.87011167
_cell_angle_beta   89.63263259
_cell_angle_gamma   90.57205499
_symmetry_Int_Tables_number   1
_chemical_formula_structural   LiGe2N3
_chemical_formula_sum   'Li2 Ge4 N6'
_cell_volume   145.58276987
_cell_formula_units_Z   2
loop_
 _symmetry_equiv_pos_site_id
 _symmetry_equiv_pos_as_xyz
  1  'x, y, z'
loop_
 _atom_site_type_symbol
 _atom_site_label
 _atom_site_symmetry_multiplicity
 _atom_site_fract_x
 _atom_site_fract_y
 _atom_site_fract_z
 _atom_site_occupancy
  Ge  Ge0  1  0.10261787  0.66290109  0.98515310  1
  Ge  Ge1  1  0.95872315  0.97619238  0.65824181  1
  Ge  Ge2  1  0.57518730  0.98661283  0.31098903  1
  Ge  Ge3  1  0.45038230  0.29915525  0.98677341  1
  N  N4  1  0.05920513  0.67472092  0.66979949  1
  N  N5  1  0.09806414  0.30159378  0.94597676  1
  N  N6  1  0.99269693  0.95490613  0.31425150  1
  N  N7  1  0.56137822  0.29564563  0.29024874  1
  N  N8  1  0.46572396  0.65489573  0.02006647  1
  N  N9  1  0.60028279  0.02125568  0.66348438  1
  Li  Li10  1  0.96175922  0.32641229  0.32202184  1
  Li  Li11  1  0.46920631  0.64570200  0.63298820  1
