# generated using pymatgen
data_LiGe2N3
_symmetry_space_group_name_H-M   'P 1'
_cell_length_a   5.17162008
_cell_length_b   5.54889859
_cell_length_c   5.54650308
_cell_angle_alpha   119.81102755
_cell_angle_beta   89.70788178
_cell_angle_gamma   89.89233929
_symmetry_Int_Tables_number   1
_chemical_formula_structural   LiGe2N3
_chemical_formula_sum   'Li2 Ge4 N6'
_cell_volume   138.10069711
_cell_formula_units_Z   2
loop_
 _symmetry_equiv_pos_site_id
 _symmetry_equiv_pos_as_xyz
  1  'x, y, z'
loop_
 _atom_site_type_symbol
 _atom_site_label
 _atom_site_symmetry_multiplicity
 _atom_site_fract_x
 _atom_site_fract_y
 _atom_site_fract_z
 _atom_site_occupancy
  Ge  Ge0  1  0.96756821  0.65387050  0.97929150  1
  Ge  Ge1  1  0.96176890  0.98175893  0.65332634  1
  Ge  Ge2  1  0.46278584  0.98563943  0.31523263  1
  Ge  Ge3  1  0.46254684  0.31385962  0.98914269  1
  N  N4  1  0.06303942  0.68209272  0.67898621  1
  N  N5  1  0.09604693  0.31823614  0.94690553  1
  N  N6  1  0.09541108  0.94929700  0.31922573  1
  N  N7  1  0.56367868  0.28143099  0.28391620  1
  N  N8  1  0.59402135  0.64730530  0.01927973  1
  N  N9  1  0.59577427  0.02111629  0.64968209  1
  Li  Li10  1  0.95909632  0.32285053  0.32235655  1
  Li  Li11  1  0.47352790  0.64253624  0.64264958  1
