# generated using pymatgen
data_LiGe2N3
_symmetry_space_group_name_H-M   'P 1'
_cell_length_a   5.11868006
_cell_length_b   5.55912336
_cell_length_c   5.55910098
_cell_angle_alpha   119.85896597
_cell_angle_beta   89.99598285
_cell_angle_gamma   89.99131406
_symmetry_Int_Tables_number   1
_chemical_formula_structural   LiGe2N3
_chemical_formula_sum   'Li2 Ge4 N6'
_cell_volume   137.18762141
_cell_formula_units_Z   2
loop_
 _symmetry_equiv_pos_site_id
 _symmetry_equiv_pos_as_xyz
  1  'x, y, z'
loop_
 _atom_site_type_symbol
 _atom_site_label
 _atom_site_symmetry_multiplicity
 _atom_site_fract_x
 _atom_site_fract_y
 _atom_site_fract_z
 _atom_site_occupancy
  Ge  Ge0  1  0.96430853  0.65336905  0.98022437  1
  Ge  Ge1  1  0.96431371  0.98022966  0.65336533  1
  Ge  Ge2  1  0.46429251  0.98644185  0.31329735  1
  Ge  Ge3  1  0.46429927  0.31329979  0.98644263  1
  N  N4  1  0.06542345  0.68485973  0.68486018  1
  N  N5  1  0.09637427  0.31893149  0.94463147  1
  N  N6  1  0.09637152  0.94463312  0.31892949  1
  N  N7  1  0.56540229  0.28178142  0.28178614  1
  N  N8  1  0.59637743  0.64770898  0.02201909  1
  N  N9  1  0.59637880  0.02201820  0.64771074  1
  Li  Li10  1  0.96851276  0.32464378  0.32464157  1
  Li  Li11  1  0.46858236  0.64208400  0.64208484  1
