# generated using pymatgen
data_LiGe2N3
_symmetry_space_group_name_H-M   'P 1'
_cell_length_a   5.48990463
_cell_length_b   5.54378342
_cell_length_c   5.55637221
_cell_angle_alpha   119.58528226
_cell_angle_beta   89.33417867
_cell_angle_gamma   90.65339914
_symmetry_Int_Tables_number   1
_chemical_formula_structural   LiGe2N3
_chemical_formula_sum   'Li2 Ge4 N6'
_cell_volume   147.04634994
_cell_formula_units_Z   2
loop_
 _symmetry_equiv_pos_site_id
 _symmetry_equiv_pos_as_xyz
  1  'x, y, z'
loop_
 _atom_site_type_symbol
 _atom_site_label
 _atom_site_symmetry_multiplicity
 _atom_site_fract_x
 _atom_site_fract_y
 _atom_site_fract_z
 _atom_site_occupancy
  Ge  Ge0  1  0.10308697  0.66324790  0.98328845  1
  Ge  Ge1  1  0.94958937  0.98067698  0.66659759  1
  Ge  Ge2  1  0.60489875  0.98244512  0.30218435  1
  Ge  Ge3  1  0.44974295  0.30232097  0.98729773  1
  N  N4  1  0.02653047  0.66968839  0.67328226  1
  N  N5  1  0.10376827  0.29799743  0.93899466  1
  N  N6  1  0.95016939  0.93015267  0.30169118  1
  N  N7  1  0.56201576  0.29717599  0.28751631  1
  N  N8  1  0.44909582  0.66749746  0.03233979  1
  N  N9  1  0.60221491  0.03294997  0.66734941  1
  Li  Li10  1  0.96473752  0.33199719  0.31461974  1
  Li  Li11  1  0.52418406  0.64384492  0.64483089  1
