# generated using pymatgen
data_Al11BN12
_symmetry_space_group_name_H-M   'P 1'
_cell_length_a   9.29120557
_cell_length_b   9.29172228
_cell_length_c   9.99168138
_cell_angle_alpha   89.40052554
_cell_angle_beta   89.37635939
_cell_angle_gamma   59.96988392
_symmetry_Int_Tables_number   1
_chemical_formula_structural   Al11BN12
_chemical_formula_sum   'Al33 B3 N36'
_cell_volume   746.74548799
_cell_formula_units_Z   3
loop_
 _symmetry_equiv_pos_site_id
 _symmetry_equiv_pos_as_xyz
  1  'x, y, z'
loop_
 _atom_site_type_symbol
 _atom_site_label
 _atom_site_symmetry_multiplicity
 _atom_site_fract_x
 _atom_site_fract_y
 _atom_site_fract_z
 _atom_site_occupancy
  Al  Al0  1  0.10002518  0.09501436  0.40616484  1
  Al  Al1  1  0.22496284  0.20031337  0.15119117  1
  Al  Al2  1  0.77834328  0.09618017  0.84837354  1
  Al  Al3  1  0.45047687  0.08884724  0.38936486  1
  Al  Al4  1  0.56052968  0.19903541  0.08334549  1
  Al  Al5  1  0.10894599  0.09625658  0.89849596  1
  Al  Al6  1  0.21835390  0.20559621  0.64960572  1
  Al  Al7  1  0.88699518  0.20360822  0.15034512  1
  Al  Al8  1  0.44198267  0.08623019  0.90008636  1
  Al  Al9  1  0.56918771  0.20152643  0.59262941  1
  Al  Al10  1  0.11042618  0.42725792  0.40119737  1
  Al  Al11  1  0.22216696  0.53928822  0.15153368  1
  Al  Al12  1  0.77959722  0.42567485  0.89858386  1
  Al  Al13  1  0.88922530  0.53440293  0.64978252  1
  Al  Al14  1  0.44893291  0.42924969  0.39609159  1
  Al  Al15  1  0.55929825  0.54256792  0.15068757  1
  Al  Al16  1  0.11114383  0.42766946  0.89975898  1
  Al  Al17  1  0.22236870  0.53801102  0.64921419  1
  Al  Al18  1  0.77846826  0.41669098  0.40608574  1
  Al  Al19  1  0.88361901  0.54180954  0.15124480  1
  Al  Al20  1  0.44067777  0.43432660  0.89874731  1
  Al  Al21  1  0.55904326  0.53478575  0.65054792  1
  Al  Al22  1  0.11151644  0.76630994  0.39701512  1
  Al  Al23  1  0.22568395  0.87590419  0.15069495  1
  Al  Al24  1  0.76953301  0.75877198  0.89975909  1
  Al  Al25  1  0.88581479  0.88399081  0.59875244  1
  Al  Al26  1  0.44666107  0.76324998  0.39456276  1
  Al  Al27  1  0.11745961  0.75752049  0.89818460  1
  Al  Al28  1  0.21863035  0.87558738  0.65060564  1
  Al  Al29  1  0.77257440  0.76756643  0.39017303  1
  Al  Al30  1  0.88227975  0.87719897  0.08402026  1
  Al  Al31  1  0.44649746  0.76318801  0.90435091  1
  Al  Al32  1  0.55494465  0.87172291  0.64727706  1
  B  B33  1  0.89115909  0.20778403  0.66283688  1
  B  B34  1  0.77881350  0.09443924  0.36312905  1
  B  B35  1  0.55520487  0.87193709  0.15248004  1
  N  N36  1  0.21971589  0.20436234  0.34230316  1
  N  N37  1  0.10902366  0.09698332  0.08944547  1
  N  N38  1  0.89607163  0.21281840  0.82419195  1
  N  N39  1  0.78931830  0.10643313  0.64725400  1
  N  N40  1  0.59075373  0.18990072  0.38169808  1
  N  N41  1  0.45471639  0.06671780  0.09828560  1
  N  N42  1  0.22296355  0.20512799  0.84021604  1
  N  N43  1  0.08515009  0.10698730  0.59871869  1
  N  N44  1  0.87450050  0.19096814  0.34358555  1
  N  N45  1  0.78234552  0.09879941  0.09054919  1
  N  N46  1  0.54909745  0.20680677  0.87971030  1
  N  N47  1  0.44278187  0.09171283  0.58386581  1
  N  N48  1  0.22198674  0.53941631  0.34124671  1
  N  N49  1  0.11143560  0.42806601  0.09118725  1
  N  N50  1  0.88859416  0.53951576  0.84030885  1
  N  N51  1  0.79053261  0.40154739  0.59866845  1
  N  N52  1  0.55957107  0.53962880  0.34071964  1
  N  N53  1  0.44332427  0.43425090  0.09366224  1
  N  N54  1  0.22223196  0.53872082  0.83854719  1
  N  N55  1  0.11130155  0.42769561  0.59057155  1
  N  N56  1  0.88755088  0.53673185  0.34244093  1
  N  N57  1  0.78042843  0.42566998  0.08951598  1
  N  N58  1  0.55551797  0.54159830  0.84139492  1
  N  N59  1  0.44309810  0.43165661  0.58853079  1
  N  N60  1  0.22288169  0.87597092  0.34087362  1
  N  N61  1  0.11718291  0.76016997  0.09286616  1
  N  N62  1  0.88994801  0.86605066  0.87692682  1
  N  N63  1  0.77539418  0.75905929  0.58464097  1
  N  N64  1  0.55602210  0.87220401  0.31685776  1
  N  N65  1  0.45685173  0.77356491  0.09761203  1
  N  N66  1  0.22504833  0.87220087  0.84135544  1
  N  N67  1  0.11549177  0.75927284  0.58934031  1
  N  N68  1  0.87338782  0.90709829  0.38092730  1
  N  N69  1  0.75022246  0.77142350  0.09769161  1
  N  N70  1  0.55431352  0.87114700  0.83442883  1
  N  N71  1  0.44505101  0.76135127  0.58614886  1
