# generated using pymatgen
data_Al11BN12
_symmetry_space_group_name_H-M   'P 1'
_cell_length_a   9.28980061
_cell_length_b   9.29196373
_cell_length_c   9.96861457
_cell_angle_alpha   89.45521519
_cell_angle_beta   89.38748961
_cell_angle_gamma   59.96582209
_symmetry_Int_Tables_number   1
_chemical_formula_structural   Al11BN12
_chemical_formula_sum   'Al33 B3 N36'
_cell_volume   744.90319295
_cell_formula_units_Z   3
loop_
 _symmetry_equiv_pos_site_id
 _symmetry_equiv_pos_as_xyz
  1  'x, y, z'
loop_
 _atom_site_type_symbol
 _atom_site_label
 _atom_site_symmetry_multiplicity
 _atom_site_fract_x
 _atom_site_fract_y
 _atom_site_fract_z
 _atom_site_occupancy
  Al  Al0  1  0.09964892  0.09485454  0.40586902  1
  Al  Al1  1  0.22494062  0.20036662  0.15124100  1
  Al  Al2  1  0.77799316  0.09866815  0.85473168  1
  Al  Al3  1  0.45047980  0.08868698  0.38915591  1
  Al  Al4  1  0.56016420  0.19936175  0.08291208  1
  Al  Al5  1  0.10913273  0.09633650  0.89812259  1
  Al  Al6  1  0.21847925  0.20553712  0.64921441  1
  Al  Al7  1  0.88693628  0.20342729  0.14908034  1
  Al  Al8  1  0.44179488  0.08631270  0.89962572  1
  Al  Al9  1  0.57080221  0.20044261  0.59234527  1
  Al  Al10  1  0.11021428  0.42755714  0.40100489  1
  Al  Al11  1  0.22204678  0.53930626  0.15164101  1
  Al  Al12  1  0.77964289  0.42626911  0.89821573  1
  Al  Al13  1  0.88913656  0.53411410  0.64942545  1
  Al  Al14  1  0.44869649  0.42916805  0.39579356  1
  Al  Al15  1  0.55931799  0.54276348  0.15075719  1
  Al  Al16  1  0.11119809  0.42766261  0.89947914  1
  Al  Al17  1  0.22304707  0.53749486  0.64878748  1
  Al  Al18  1  0.77842331  0.41651583  0.40567413  1
  Al  Al19  1  0.88388839  0.54157099  0.15137158  1
  Al  Al20  1  0.44022317  0.43473118  0.89831953  1
  Al  Al21  1  0.55921955  0.53451400  0.65023217  1
  Al  Al22  1  0.10717585  0.76875388  0.39825515  1
  Al  Al23  1  0.22562279  0.87593883  0.15079714  1
  Al  Al24  1  0.77032181  0.75975144  0.89983505  1
  Al  Al25  1  0.88886213  0.87718776  0.63148170  1
  Al  Al26  1  0.44645965  0.76310598  0.39432944  1
  Al  Al27  1  0.11582040  0.75843064  0.89781961  1
  Al  Al28  1  0.21886941  0.87574888  0.65012806  1
  Al  Al29  1  0.77364426  0.76918426  0.39125018  1
  Al  Al30  1  0.88225577  0.87731603  0.10168563  1
  Al  Al31  1  0.44648948  0.76325598  0.90408323  1
  Al  Al32  1  0.55483454  0.87181971  0.64710071  1
  B  B33  1  0.89065598  0.20730227  0.66272068  1
  B  B34  1  0.77944903  0.09221584  0.36267413  1
  B  B35  1  0.55456685  0.87249175  0.15285087  1
  N  N36  1  0.21954239  0.20435194  0.34237098  1
  N  N37  1  0.10929260  0.09677425  0.08943169  1
  N  N38  1  0.89627359  0.21339393  0.82425867  1
  N  N39  1  0.78986048  0.10755290  0.64615213  1
  N  N40  1  0.59077699  0.18935494  0.38029005  1
  N  N41  1  0.45514114  0.06660735  0.09853165  1
  N  N42  1  0.22292762  0.20515017  0.84019947  1
  N  N43  1  0.08546328  0.10696149  0.59854691  1
  N  N44  1  0.87397947  0.19042212  0.34233827  1
  N  N45  1  0.78435368  0.09850540  0.07974027  1
  N  N46  1  0.54751411  0.20764888  0.87907305  1
  N  N47  1  0.44309387  0.09165728  0.58384103  1
  N  N48  1  0.22126834  0.54038983  0.34147235  1
  N  N49  1  0.11157009  0.42794340  0.09127160  1
  N  N50  1  0.88853005  0.53995808  0.84047865  1
  N  N51  1  0.79049191  0.40176518  0.59839763  1
  N  N52  1  0.55948982  0.53947476  0.34071687  1
  N  N53  1  0.44338809  0.43441507  0.09386940  1
  N  N54  1  0.22193309  0.53908039  0.83862040  1
  N  N55  1  0.11134045  0.42769869  0.59065293  1
  N  N56  1  0.88710085  0.53734382  0.34268524  1
  N  N57  1  0.78036628  0.42584108  0.08952557  1
  N  N58  1  0.55548790  0.54162601  0.84144542  1
  N  N59  1  0.44354421  0.43106456  0.58838316  1
  N  N60  1  0.22239478  0.87543040  0.34116255  1
  N  N61  1  0.11570651  0.76064582  0.09127338  1
  N  N62  1  0.89076924  0.86467044  0.85840894  1
  N  N63  1  0.77620727  0.76027373  0.58522478  1
  N  N64  1  0.55628006  0.87172392  0.31692830  1
  N  N65  1  0.45697335  0.77365635  0.09770030  1
  N  N66  1  0.22494971  0.87215477  0.84146591  1
  N  N67  1  0.11416244  0.75996243  0.58975075  1
  N  N68  1  0.87356426  0.90536267  0.36365859  1
  N  N69  1  0.75136888  0.77194863  0.09652826  1
  N  N70  1  0.55451137  0.87102239  0.83466706  1
  N  N71  1  0.44527864  0.76114638  0.58613426  1
