# generated using pymatgen
data_Al11BN12
_symmetry_space_group_name_H-M   'P 1'
_cell_length_a   9.25677589
_cell_length_b   9.25677524
_cell_length_c   9.88912875
_cell_angle_alpha   90.07594160
_cell_angle_beta   90.07594310
_cell_angle_gamma   60.02533405
_symmetry_Int_Tables_number   1
_chemical_formula_structural   Al11BN12
_chemical_formula_sum   'Al33 B3 N36'
_cell_volume   734.03781526
_cell_formula_units_Z   3
loop_
 _symmetry_equiv_pos_site_id
 _symmetry_equiv_pos_as_xyz
  1  'x, y, z'
loop_
 _atom_site_type_symbol
 _atom_site_label
 _atom_site_symmetry_multiplicity
 _atom_site_fract_x
 _atom_site_fract_y
 _atom_site_fract_z
 _atom_site_occupancy
  Al  Al0  1  0.10517357  0.09435844  0.31082022  1
  Al  Al1  1  0.22516040  0.19936180  0.05390049  1
  Al  Al2  1  0.78048389  0.09716055  0.80141702  1
  Al  Al3  1  0.45187395  0.08781964  0.29951322  1
  Al  Al4  1  0.56141517  0.19891006  0.06008306  1
  Al  Al5  1  0.10419388  0.09755244  0.79902465  1
  Al  Al6  1  0.21893233  0.20595468  0.55374362  1
  Al  Al7  1  0.88807550  0.20475268  0.06160578  1
  Al  Al8  1  0.44685624  0.09224978  0.81058422  1
  Al  Al9  1  0.56417663  0.20335920  0.54983628  1
  Al  Al10  1  0.11119606  0.42787194  0.30242905  1
  Al  Al11  1  0.22246795  0.53914509  0.05308057  1
  Al  Al12  1  0.78087522  0.42087111  0.79902452  1
  Al  Al13  1  0.88927634  0.53561047  0.55374374  1
  Al  Al14  1  0.44960448  0.42430415  0.30330929  1
  Al  Al15  1  0.55908691  0.54144773  0.05349350  1
  Al  Al16  1  0.11069476  0.42737125  0.80396471  1
  Al  Al17  1  0.22191893  0.53859671  0.55322943  1
  Al  Al18  1  0.77768117  0.42185095  0.31082033  1
  Al  Al19  1  0.88268537  0.54183645  0.05390035  1
  Al  Al20  1  0.44591897  0.42577213  0.80397414  1
  Al  Al21  1  0.55796779  0.53565490  0.55380574  1
  Al  Al22  1  0.10762662  0.76628133  0.30330917  1
  Al  Al23  1  0.22477062  0.87576432  0.05349373  1
  Al  Al24  1  0.77557222  0.76353340  0.81058459  1
  Al  Al25  1  0.88668205  0.88085350  0.54983628  1
  Al  Al26  1  0.44700705  0.76368491  0.29924158  1
  Al  Al27  1  0.10909451  0.76259660  0.80397436  1
  Al  Al28  1  0.21897607  0.87464667  0.55380560  1
  Al  Al29  1  0.77114343  0.76854986  0.29951306  1
  Al  Al30  1  0.88223265  0.87809212  0.06008323  1
  Al  Al31  1  0.44582290  0.76250131  0.81025653  1
  Al  Al32  1  0.55578288  0.87246014  0.55514047  1
  B  B33  1  0.88421838  0.20089617  0.54730905  1
  B  B34  1  0.77704378  0.09372103  0.30590947  1
  B  B35  1  0.55575787  0.87243485  0.04966550  1
  N  N36  1  0.22567676  0.20444815  0.36143187  1
  N  N37  1  0.10989480  0.09513091  0.11886858  1
  N  N38  1  0.88830743  0.20498468  0.87060268  1
  N  N39  1  0.79041408  0.10709112  0.60884977  1
  N  N40  1  0.57964860  0.19186431  0.35521956  1
  N  N41  1  0.45734491  0.06937190  0.10533067  1
  N  N42  1  0.22092018  0.20374803  0.86122816  1
  N  N43  1  0.08468670  0.10683407  0.60265204  1
  N  N44  1  0.87675015  0.19342746  0.37683917  1
  N  N45  1  0.77948431  0.09616133  0.13943979  1
  N  N46  1  0.56016999  0.20357762  0.86664448  1
  N  N47  1  0.44645318  0.09461398  0.61606704  1
  N  N48  1  0.22265431  0.53933126  0.36146960  1
  N  N49  1  0.11066936  0.42734589  0.11071831  1
  N  N50  1  0.88707127  0.53759697  0.86122801  1
  N  N51  1  0.79015566  0.40136482  0.60265188  1
  N  N52  1  0.55347788  0.54210323  0.36241786  1
  N  N53  1  0.44561168  0.42773316  0.11203397  1
  N  N54  1  0.22243128  0.53910876  0.86175605  1
  N  N55  1  0.11096336  0.42764139  0.61277926  1
  N  N56  1  0.88777189  0.54235311  0.36143192  1
  N  N57  1  0.77845352  0.42657191  0.11886858  1
  N  N58  1  0.55851348  0.53692553  0.86118983  1
  N  N59  1  0.44521856  0.42537659  0.61122707  1
  N  N60  1  0.22542537  0.87015529  0.36241785  1
  N  N61  1  0.11105589  0.76228883  0.11203399  1
  N  N62  1  0.88690027  0.87684699  0.86664467  1
  N  N63  1  0.77793634  0.76313084  0.61606733  1
  N  N64  1  0.55534094  0.87201727  0.36665899  1
  N  N65  1  0.45691470  0.77359186  0.10438935  1
  N  N66  1  0.22024764  0.87519110  0.86119024  1
  N  N67  1  0.10869910  0.76189627  0.61122726  1
  N  N68  1  0.87518700  0.89632554  0.35521956  1
  N  N69  1  0.75269520  0.77402121  0.10533049  1
  N  N70  1  0.55571492  0.87239237  0.88403398  1
  N  N71  1  0.44509309  0.76177182  0.61738155  1
