# generated using pymatgen
data_Al11BN12
_symmetry_space_group_name_H-M   'P 1'
_cell_length_a   9.25676742
_cell_length_b   9.25676672
_cell_length_c   9.88915952
_cell_angle_alpha   90.07592101
_cell_angle_beta   90.07591275
_cell_angle_gamma   60.02533493
_symmetry_Int_Tables_number   1
_chemical_formula_structural   Al11BN12
_chemical_formula_sum   'Al33 B3 N36'
_cell_volume   734.03875926
_cell_formula_units_Z   3
loop_
 _symmetry_equiv_pos_site_id
 _symmetry_equiv_pos_as_xyz
  1  'x, y, z'
loop_
 _atom_site_type_symbol
 _atom_site_label
 _atom_site_symmetry_multiplicity
 _atom_site_fract_x
 _atom_site_fract_y
 _atom_site_fract_z
 _atom_site_occupancy
  Al  Al0  1  0.10518640  0.09437729  0.31621666  1
  Al  Al1  1  0.22517090  0.19938122  0.05929301  1
  Al  Al2  1  0.78049646  0.09717941  0.80680999  1
  Al  Al3  1  0.45188552  0.08783848  0.30489960  1
  Al  Al4  1  0.56142768  0.19892973  0.06547672  1
  Al  Al5  1  0.10420593  0.09757130  0.80441248  1
  Al  Al6  1  0.21894690  0.20597308  0.55913705  1
  Al  Al7  1  0.88808869  0.20477223  0.06699921  1
  Al  Al8  1  0.44686903  0.09226867  0.81597785  1
  Al  Al9  1  0.56418879  0.20337749  0.55522509  1
  Al  Al10  1  0.11120855  0.42789079  0.30782592  1
  Al  Al11  1  0.22248024  0.53916367  0.05847632  1
  Al  Al12  1  0.78088778  0.42088947  0.80441230  1
  Al  Al13  1  0.88928843  0.53563133  0.55913717  1
  Al  Al14  1  0.44961622  0.42432377  0.30870363  1
  Al  Al15  1  0.55910089  0.54146466  0.05888679  1
  Al  Al16  1  0.11070723  0.42739004  0.80935786  1
  Al  Al17  1  0.22193164  0.53861577  0.55862566  1
  Al  Al18  1  0.77769366  0.42187013  0.31621676  1
  Al  Al19  1  0.88269842  0.54185329  0.05929283  1
  Al  Al20  1  0.44593187  0.42579047  0.80936820  1
  Al  Al21  1  0.55797840  0.53567558  0.55919827  1
  Al  Al22  1  0.10763993  0.76629941  0.30870346  1
  Al  Al23  1  0.22478127  0.87578460  0.05888700  1
  Al  Al24  1  0.77558485  0.76355247  0.81597818  1
  Al  Al25  1  0.88669403  0.88087199  0.55522508  1
  Al  Al26  1  0.44701911  0.76370330  0.30462784  1
  Al  Al27  1  0.10910659  0.76261580  0.80936844  1
  Al  Al28  1  0.21899045  0.87466361  0.55919814  1
  Al  Al29  1  0.77115594  0.76856774  0.30489941  1
  Al  Al30  1  0.88224604  0.87811089  0.06547684  1
  Al  Al31  1  0.44583539  0.76252006  0.81565116  1
  Al  Al32  1  0.55579535  0.87247891  0.56052641  1
  B  B33  1  0.88422993  0.20091410  0.55269884  1
  B  B34  1  0.77705600  0.09373959  0.31129849  1
  B  B35  1  0.55577027  0.87245357  0.05505333  1
  N  N36  1  0.22569080  0.20446649  0.36682541  1
  N  N37  1  0.10990771  0.09514964  0.12426419  1
  N  N38  1  0.88832036  0.20500396  0.87599410  1
  N  N39  1  0.79042633  0.10710976  0.61424096  1
  N  N40  1  0.57966063  0.19188230  0.36060823  1
  N  N41  1  0.45735680  0.06939067  0.11071895  1
  N  N42  1  0.22093176  0.20376665  0.86662035  1
  N  N43  1  0.08469925  0.10685262  0.60804113  1
  N  N44  1  0.87676188  0.19344560  0.38223110  1
  N  N45  1  0.77949678  0.09618010  0.14483056  1
  N  N46  1  0.56018293  0.20359659  0.87203810  1
  N  N47  1  0.44646716  0.09463168  0.62145870  1
  N  N48  1  0.22266674  0.53935007  0.36686514  1
  N  N49  1  0.11068187  0.42736475  0.11611396  1
  N  N50  1  0.88708356  0.53761486  0.86662020  1
  N  N51  1  0.79016787  0.40138372  0.60804096  1
  N  N52  1  0.55348909  0.54212348  0.36781053  1
  N  N53  1  0.44562350  0.42775257  0.11742843  1
  N  N54  1  0.22244374  0.53912750  0.86715120  1
  N  N55  1  0.11097550  0.42765986  0.61817266  1
  N  N56  1  0.88778388  0.54237349  0.36682542  1
  N  N57  1  0.77846588  0.42659118  0.12426421  1
  N  N58  1  0.55852724  0.53694308  0.86658291  1
  N  N59  1  0.44523235  0.42539408  0.61662060  1
  N  N60  1  0.22543928  0.87017287  0.36781047  1
  N  N61  1  0.11106899  0.76230701  0.11742834  1
  N  N62  1  0.88691292  0.87686627  0.87203829  1
  N  N63  1  0.77794772  0.76315111  0.62145901  1
  N  N64  1  0.55535335  0.87203601  0.37204449  1
  N  N65  1  0.45692695  0.77361047  0.10977729  1
  N  N66  1  0.22025892  0.87521118  0.86658328  1
  N  N67  1  0.10871025  0.76191641  0.61662079  1
  N  N68  1  0.87519865  0.89634394  0.36060825  1
  N  N69  1  0.75270763  0.77403946  0.11071879  1
  N  N70  1  0.55572751  0.87241128  0.88942498  1
  N  N71  1  0.44510636  0.76179136  0.62277481  1
