# generated using pymatgen
data_Al11BN12
_symmetry_space_group_name_H-M   'P 1'
_cell_length_a   9.25303578
_cell_length_b   9.25319253
_cell_length_c   9.90433909
_cell_angle_alpha   89.98346879
_cell_angle_beta   89.94281700
_cell_angle_gamma   60.02116166
_symmetry_Int_Tables_number   1
_chemical_formula_structural   Al11BN12
_chemical_formula_sum   'Al33 B3 N36'
_cell_volume   734.55498829
_cell_formula_units_Z   3
loop_
 _symmetry_equiv_pos_site_id
 _symmetry_equiv_pos_as_xyz
  1  'x, y, z'
loop_
 _atom_site_type_symbol
 _atom_site_label
 _atom_site_symmetry_multiplicity
 _atom_site_fract_x
 _atom_site_fract_y
 _atom_site_fract_z
 _atom_site_occupancy
  Al  Al0  1  0.10469129  0.09426230  0.31830842  1
  Al  Al1  1  0.22539515  0.19937392  0.06251358  1
  Al  Al2  1  0.78050693  0.09710759  0.81101684  1
  Al  Al3  1  0.45169509  0.08795111  0.30820966  1
  Al  Al4  1  0.56091625  0.19882338  0.06826991  1
  Al  Al5  1  0.10445640  0.09758576  0.80953571  1
  Al  Al6  1  0.21884568  0.20615402  0.56237059  1
  Al  Al7  1  0.88779526  0.20455335  0.07093908  1
  Al  Al8  1  0.44698997  0.09222329  0.81870919  1
  Al  Al9  1  0.56486681  0.20369099  0.55814901  1
  Al  Al10  1  0.11095517  0.42768970  0.31117967  1
  Al  Al11  1  0.22240300  0.53900757  0.06162634  1
  Al  Al12  1  0.78099696  0.42104611  0.80922458  1
  Al  Al13  1  0.88953479  0.53555642  0.56237588  1
  Al  Al14  1  0.44961155  0.42428045  0.31177500  1
  Al  Al15  1  0.55855004  0.54171506  0.06181617  1
  Al  Al16  1  0.11097035  0.42749874  0.81231512  1
  Al  Al17  1  0.22222715  0.53886131  0.56150278  1
  Al  Al18  1  0.77748867  0.42153651  0.31830941  1
  Al  Al19  1  0.88275246  0.54199675  0.06233199  1
  Al  Al20  1  0.44589839  0.42590202  0.81225607  1
  Al  Al21  1  0.55860306  0.53553865  0.56249256  1
  Al  Al22  1  0.10753835  0.76630339  0.31186746  1
  Al  Al23  1  0.22508607  0.87512417  0.06202923  1
  Al  Al24  1  0.77563550  0.76362828  0.81872760  1
  Al  Al25  1  0.88702891  0.88152515  0.55817607  1
  Al  Al26  1  0.44695750  0.76367145  0.30809342  1
  Al  Al27  1  0.10933065  0.76250398  0.81231874  1
  Al  Al28  1  0.21879755  0.87536849  0.56251803  1
  Al  Al29  1  0.77127442  0.76837458  0.30814264  1
  Al  Al30  1  0.88223315  0.87754481  0.06832787  1
  Al  Al31  1  0.44599261  0.76266242  0.81848122  1
  Al  Al32  1  0.55607313  0.87274047  0.56337148  1
  B  B33  1  0.88502070  0.20175120  0.56010552  1
  B  B34  1  0.77735159  0.09417019  0.31376223  1
  B  B35  1  0.55564220  0.87228661  0.05855113  1
  N  N36  1  0.22509117  0.20411151  0.37021244  1
  N  N37  1  0.11020711  0.09466615  0.12669757  1
  N  N38  1  0.88811772  0.20493080  0.88035072  1
  N  N39  1  0.79086939  0.10759146  0.61860285  1
  N  N40  1  0.57954285  0.19198853  0.36375259  1
  N  N41  1  0.45717451  0.06919529  0.11420333  1
  N  N42  1  0.22121721  0.20402877  0.87017218  1
  N  N43  1  0.08425787  0.10750906  0.61309900  1
  N  N44  1  0.87639558  0.19322973  0.38286798  1
  N  N45  1  0.77890174  0.09562091  0.14719797  1
  N  N46  1  0.55973011  0.20375576  0.87517745  1
  N  N47  1  0.44664502  0.09491628  0.62440205  1
  N  N48  1  0.22248848  0.53921346  0.37007070  1
  N  N49  1  0.11052135  0.42724744  0.11966415  1
  N  N50  1  0.88737711  0.53783443  0.86998933  1
  N  N51  1  0.79079941  0.40096710  0.61289716  1
  N  N52  1  0.55356803  0.54193280  0.37130141  1
  N  N53  1  0.44545841  0.42762081  0.12068301  1
  N  N54  1  0.22248019  0.53912709  0.87046356  1
  N  N55  1  0.11120741  0.42787180  0.62138669  1
  N  N56  1  0.88734830  0.54190411  0.37024675  1
  N  N57  1  0.77792189  0.42701258  0.12668473  1
  N  N58  1  0.55809091  0.53724068  0.86986215  1
  N  N59  1  0.44541800  0.42560922  0.61983861  1
  N  N60  1  0.22511006  0.87039997  0.37129281  1
  N  N61  1  0.11094411  0.76207190  0.12079470  1
  N  N62  1  0.88712580  0.87641860  0.87523439  1
  N  N63  1  0.77818053  0.76339750  0.62442991  1
  N  N64  1  0.55528494  0.87201831  0.37522425  1
  N  N65  1  0.45682915  0.77345881  0.11334355  1
  N  N66  1  0.22058502  0.87471209  0.87008485  1
  N  N67  1  0.10891599  0.76212355  0.61987386  1
  N  N68  1  0.87517839  0.89631927  0.36377562  1
  N  N69  1  0.75257442  0.77379766  0.11412368  1
  N  N70  1  0.55574935  0.87239944  0.89268107  1
  N  N71  1  0.44525295  0.76204185  0.62587076  1
