# generated using pymatgen
data_Al11BN12
_symmetry_space_group_name_H-M   'P 1'
_cell_length_a   9.27070288
_cell_length_b   9.27065976
_cell_length_c   10.04649287
_cell_angle_alpha   89.52622680
_cell_angle_beta   89.52585166
_cell_angle_gamma   59.99402748
_symmetry_Int_Tables_number   1
_chemical_formula_structural   Al11BN12
_chemical_formula_sum   'Al33 B3 N36'
_cell_volume   747.69153683
_cell_formula_units_Z   3
loop_
 _symmetry_equiv_pos_site_id
 _symmetry_equiv_pos_as_xyz
  1  'x, y, z'
loop_
 _atom_site_type_symbol
 _atom_site_label
 _atom_site_symmetry_multiplicity
 _atom_site_fract_x
 _atom_site_fract_y
 _atom_site_fract_z
 _atom_site_occupancy
  Al  Al0  1  0.09867764  0.09607627  0.39701622  1
  Al  Al1  1  0.22257746  0.19981811  0.14123505  1
  Al  Al2  1  0.77752010  0.09406969  0.81765040  1
  Al  Al3  1  0.44790230  0.08894437  0.37664091  1
  Al  Al4  1  0.56023312  0.19792164  0.08423191  1
  Al  Al5  1  0.11008202  0.09640926  0.88619501  1
  Al  Al6  1  0.22084006  0.20594963  0.63959055  1
  Al  Al7  1  0.88933152  0.20592553  0.14551126  1
  Al  Al8  1  0.44555877  0.08665233  0.89414002  1
  Al  Al9  1  0.57214178  0.20052233  0.56453693  1
  Al  Al10  1  0.10996034  0.42652863  0.39169244  1
  Al  Al11  1  0.22148147  0.53806810  0.14290520  1
  Al  Al12  1  0.77984571  0.42664167  0.88618574  1
  Al  Al13  1  0.88939120  0.53740075  0.63957563  1
  Al  Al14  1  0.44745389  0.42997645  0.38319914  1
  Al  Al15  1  0.55881455  0.54311231  0.14150731  1
  Al  Al16  1  0.11202173  0.42859154  0.88964123  1
  Al  Al17  1  0.22289279  0.53946290  0.63895697  1
  Al  Al18  1  0.77950276  0.41525462  0.39700316  1
  Al  Al19  1  0.88322726  0.53916140  0.14122949  1
  Al  Al20  1  0.44338993  0.43320322  0.89321243  1
  Al  Al21  1  0.55872050  0.53440596  0.64055074  1
  Al  Al22  1  0.11341242  0.76401790  0.38319798  1
  Al  Al23  1  0.22652074  0.87540936  0.14152352  1
  Al  Al24  1  0.77009061  0.76211494  0.89414096  1
  Al  Al25  1  0.88394831  0.88871593  0.56452311  1
  Al  Al26  1  0.44645658  0.76301935  0.38625079  1
  Al  Al27  1  0.11664098  0.75995333  0.89322779  1
  Al  Al28  1  0.21784705  0.87527513  0.64055363  1
  Al  Al29  1  0.77237087  0.76448081  0.37662111  1
  Al  Al30  1  0.88132356  0.87682761  0.08424377  1
  Al  Al31  1  0.44733446  0.76390045  0.89335733  1
  Al  Al32  1  0.55624491  0.87279742  0.63690628  1
  B  B33  1  0.89344307  0.21000129  0.64967601  1
  B  B34  1  0.77515751  0.09174189  0.31151260  1
  B  B35  1  0.55365668  0.87025249  0.14329577  1
  N  N36  1  0.21783862  0.20429867  0.33110861  1
  N  N37  1  0.10627096  0.09566475  0.07607192  1
  N  N38  1  0.89573302  0.21228889  0.81238651  1
  N  N39  1  0.78884815  0.10541296  0.63039519  1
  N  N40  1  0.58497121  0.19171614  0.36766845  1
  N  N41  1  0.45230304  0.06604824  0.08976172  1
  N  N42  1  0.22660432  0.20544342  0.83014088  1
  N  N43  1  0.08585097  0.10781778  0.58956874  1
  N  N44  1  0.87879962  0.19537197  0.33317211  1
  N  N45  1  0.77285511  0.08945473  0.15131425  1
  N  N46  1  0.56322304  0.20169372  0.88720420  1
  N  N47  1  0.44328372  0.09186307  0.57168857  1
  N  N48  1  0.22135583  0.53791967  0.33050278  1
  N  N49  1  0.11065909  0.42725070  0.08016502  1
  N  N50  1  0.88887914  0.54316523  0.83012967  1
  N  N51  1  0.79125930  0.40241130  0.58955956  1
  N  N52  1  0.55987600  0.53986923  0.33045561  1
  N  N53  1  0.44274372  0.43442892  0.08641794  1
  N  N54  1  0.22356052  0.54012882  0.82938711  1
  N  N55  1  0.11168132  0.42823732  0.58061646  1
  N  N56  1  0.88772893  0.53441258  0.33110145  1
  N  N57  1  0.77907428  0.42285906  0.07606282  1
  N  N58  1  0.55545789  0.54166850  0.83084480  1
  N  N59  1  0.44366942  0.43110003  0.57664191  1
  N  N60  1  0.22330057  0.87644841  0.33046999  1
  N  N61  1  0.11783485  0.75933892  0.08643552  1
  N  N62  1  0.88513233  0.87977781  0.88721072  1
  N  N63  1  0.77530202  0.75984624  0.57167141  1
  N  N64  1  0.55459267  0.87117450  0.30599227  1
  N  N65  1  0.45646462  0.77306054  0.08638910  1
  N  N66  1  0.22510434  0.87201943  0.83084976  1
  N  N67  1  0.11452531  0.76023925  0.57663981  1
  N  N68  1  0.87515012  0.90154195  0.36765155  1
  N  N69  1  0.74945692  0.76888938  0.08976302  1
  N  N70  1  0.55625380  0.87281118  0.82439371  1
  N  N71  1  0.44513924  0.76169586  0.57710252  1
