# generated using pymatgen
data_Al11BN12
_symmetry_space_group_name_H-M   'P 1'
_cell_length_a   9.25049027
_cell_length_b   9.25125518
_cell_length_c   9.92587732
_cell_angle_alpha   89.89056146
_cell_angle_beta   89.85291019
_cell_angle_gamma   60.00136150
_symmetry_Int_Tables_number   1
_chemical_formula_structural   Al11BN12
_chemical_formula_sum   'Al33 B3 N36'
_cell_volume   735.64681587
_cell_formula_units_Z   3
loop_
 _symmetry_equiv_pos_site_id
 _symmetry_equiv_pos_as_xyz
  1  'x, y, z'
loop_
 _atom_site_type_symbol
 _atom_site_label
 _atom_site_symmetry_multiplicity
 _atom_site_fract_x
 _atom_site_fract_y
 _atom_site_fract_z
 _atom_site_occupancy
  Al  Al0  1  0.10057069  0.09513614  0.40405111  1
  Al  Al1  1  0.22466002  0.20015851  0.14944243  1
  Al  Al2  1  0.77901185  0.09559336  0.88777564  1
  Al  Al3  1  0.45100238  0.09035747  0.39228179  1
  Al  Al4  1  0.56314817  0.19793605  0.14818623  1
  Al  Al5  1  0.10828371  0.09627297  0.89282890  1
  Al  Al6  1  0.21968457  0.20577898  0.64809437  1
  Al  Al7  1  0.88660458  0.20323885  0.14768769  1
  Al  Al8  1  0.44743149  0.09022275  0.90251274  1
  Al  Al9  1  0.56272474  0.20503480  0.64459213  1
  Al  Al10  1  0.11053465  0.42720948  0.39991525  1
  Al  Al11  1  0.22211645  0.53874702  0.15001474  1
  Al  Al12  1  0.77963408  0.42491328  0.89277757  1
  Al  Al13  1  0.88920872  0.53625349  0.64819503  1
  Al  Al14  1  0.45052477  0.42365137  0.39844953  1
  Al  Al15  1  0.55890342  0.54188197  0.14890941  1
  Al  Al16  1  0.11139497  0.42798949  0.89886609  1
  Al  Al17  1  0.22274714  0.53932461  0.64855528  1
  Al  Al18  1  0.77846859  0.41728413  0.40403369  1
  Al  Al19  1  0.88357182  0.54123362  0.14942890  1
  Al  Al20  1  0.44481781  0.42722793  0.89914810  1
  Al  Al21  1  0.55894938  0.53536621  0.64887116  1
  Al  Al22  1  0.10696981  0.76718830  0.39852733  1
  Al  Al23  1  0.22523337  0.87552430  0.14895327  1
  Al  Al24  1  0.77357008  0.76410415  0.90262597  1
  Al  Al25  1  0.88846763  0.87923255  0.64464298  1
  Al  Al26  1  0.44589683  0.76261919  0.39326330  1
  Al  Al27  1  0.11049818  0.76148152  0.89930080  1
  Al  Al28  1  0.21875486  0.87551582  0.64895793  1
  Al  Al29  1  0.77363670  0.76763962  0.39238192  1
  Al  Al30  1  0.88121324  0.87983034  0.14846824  1
  Al  Al31  1  0.44734787  0.76399445  0.90263326  1
  Al  Al32  1  0.55643287  0.87302631  0.64748881  1
  B  B33  1  0.88787718  0.20434251  0.64972296  1
  B  B34  1  0.78000863  0.09676040  0.38551122  1
  B  B35  1  0.55584259  0.87238034  0.15304637  1
  N  N36  1  0.22032636  0.20343202  0.34123653  1
  N  N37  1  0.10788260  0.09644106  0.08579971  1
  N  N38  1  0.88927153  0.20584086  0.81676842  1
  N  N39  1  0.79150905  0.10799109  0.59148840  1
  N  N40  1  0.58448105  0.19158797  0.34371434  1
  N  N41  1  0.45737069  0.07068652  0.09839378  1
  N  N42  1  0.22496707  0.20469173  0.84031298  1
  N  N43  1  0.08695175  0.10691694  0.59668320  1
  N  N44  1  0.87501036  0.19167924  0.34015495  1
  N  N45  1  0.77909553  0.09556272  0.07826462  1
  N  N46  1  0.55352099  0.20552646  0.83796546  1
  N  N47  1  0.44601777  0.09400430  0.58398033  1
  N  N48  1  0.22239584  0.53904082  0.34054293  1
  N  N49  1  0.11081899  0.42732776  0.09060778  1
  N  N50  1  0.88810843  0.54158526  0.84041212  1
  N  N51  1  0.79042947  0.40348794  0.59666489  1
  N  N52  1  0.55822474  0.53794011  0.33977927  1
  N  N53  1  0.44607270  0.42633519  0.09189924  1
  N  N54  1  0.22271226  0.53936902  0.84003871  1
  N  N55  1  0.11156900  0.42810146  0.59008590  1
  N  N56  1  0.88680176  0.53697405  0.34122047  1
  N  N57  1  0.77989076  0.42441856  0.08574800  1
  N  N58  1  0.55435503  0.54124974  0.84086425  1
  N  N59  1  0.44484056  0.42813756  0.58836540  1
  N  N60  1  0.22126178  0.87485899  0.33981045  1
  N  N61  1  0.10963511  0.76267982  0.09205886  1
  N  N62  1  0.88892044  0.87009021  0.83797726  1
  N  N63  1  0.77750086  0.76247325  0.58404927  1
  N  N64  1  0.55548662  0.87214515  0.31737930  1
  N  N65  1  0.45729920  0.77386649  0.09693775  1
  N  N66  1  0.22459738  0.87094067  0.84096221  1
  N  N67  1  0.11163095  0.76133697  0.58841301  1
  N  N68  1  0.87485146  0.90117720  0.34392271  1
  N  N69  1  0.75410446  0.77394810  0.09849888  1
  N  N70  1  0.55615532  0.87272245  0.83627846  1
  N  N71  1  0.44553971  0.76212460  0.58578590  1
