# generated using pymatgen
data_Al11BN12
_symmetry_space_group_name_H-M   'P 1'
_cell_length_a   9.25061928
_cell_length_b   9.25183349
_cell_length_c   9.93699386
_cell_angle_alpha   89.84627282
_cell_angle_beta   89.79600341
_cell_angle_gamma   59.99431762
_symmetry_Int_Tables_number   1
_chemical_formula_structural   Al11BN12
_chemical_formula_sum   'Al33 B3 N36'
_cell_volume   736.47228777
_cell_formula_units_Z   3
loop_
 _symmetry_equiv_pos_site_id
 _symmetry_equiv_pos_as_xyz
  1  'x, y, z'
loop_
 _atom_site_type_symbol
 _atom_site_label
 _atom_site_symmetry_multiplicity
 _atom_site_fract_x
 _atom_site_fract_y
 _atom_site_fract_z
 _atom_site_occupancy
  Al  Al0  1  0.10020752  0.09489120  0.40448845  1
  Al  Al1  1  0.22466444  0.20017787  0.14968737  1
  Al  Al2  1  0.77925691  0.09576967  0.88589829  1
  Al  Al3  1  0.45099708  0.09013075  0.39219745  1
  Al  Al4  1  0.56274204  0.19807578  0.14595669  1
  Al  Al5  1  0.10878220  0.09631942  0.89336174  1
  Al  Al6  1  0.21977100  0.20569481  0.64811910  1
  Al  Al7  1  0.88671982  0.20335124  0.14647946  1
  Al  Al8  1  0.44719119  0.09014621  0.90250567  1
  Al  Al9  1  0.56315103  0.20508565  0.64585584  1
  Al  Al10  1  0.11044373  0.42714221  0.40020806  1
  Al  Al11  1  0.22209311  0.53871961  0.15016652  1
  Al  Al12  1  0.77966297  0.42543056  0.89327837  1
  Al  Al13  1  0.88913496  0.53633040  0.64829090  1
  Al  Al14  1  0.45066988  0.42352203  0.39839347  1
  Al  Al15  1  0.55884099  0.54203833  0.14909731  1
  Al  Al16  1  0.11143049  0.42802540  0.89879297  1
  Al  Al17  1  0.22275430  0.53931393  0.64846558  1
  Al  Al18  1  0.77819985  0.41697912  0.40446054  1
  Al  Al19  1  0.88362271  0.54120072  0.14967472  1
  Al  Al20  1  0.44452885  0.42763811  0.89926103  1
  Al  Al21  1  0.55909321  0.53520697  0.64893139  1
  Al  Al22  1  0.10681867  0.76735639  0.39853796  1
  Al  Al23  1  0.22537377  0.87545333  0.14916139  1
  Al  Al24  1  0.77349255  0.76392293  0.90274391  1
  Al  Al25  1  0.88857330  0.87956017  0.64593805  1
  Al  Al26  1  0.44577018  0.76256212  0.39351892  1
  Al  Al27  1  0.11079133  0.76124773  0.89955770  1
  Al  Al28  1  0.21859362  0.87563014  0.64909219  1
  Al  Al29  1  0.77334318  0.76762862  0.39237270  1
  Al  Al30  1  0.88130488  0.87944642  0.14660132  1
  Al  Al31  1  0.44731500  0.76397162  0.90258933  1
  Al  Al32  1  0.55653424  0.87310202  0.64739693  1
  B  B33  1  0.88750360  0.20386251  0.65208495  1
  B  B34  1  0.77897920  0.09589971  0.37580125  1
  B  B35  1  0.55576088  0.87225719  0.15297102  1
  N  N36  1  0.22015452  0.20338331  0.34136757  1
  N  N37  1  0.10833710  0.09627744  0.08610440  1
  N  N38  1  0.89037061  0.20692443  0.81867238  1
  N  N39  1  0.79215824  0.10853038  0.60087850  1
  N  N40  1  0.58485310  0.19113453  0.34186739  1
  N  N41  1  0.45720487  0.07045165  0.09823032  1
  N  N42  1  0.22511115  0.20473874  0.84021755  1
  N  N43  1  0.08717817  0.10681730  0.59688675  1
  N  N44  1  0.87436706  0.19109613  0.33927671  1
  N  N45  1  0.77928089  0.09557591  0.07725752  1
  N  N46  1  0.55253111  0.20609043  0.83916363  1
  N  N47  1  0.44647825  0.09422746  0.58377078  1
  N  N48  1  0.22232316  0.53899324  0.34056989  1
  N  N49  1  0.11088683  0.42733122  0.09059135  1
  N  N50  1  0.88814534  0.54177275  0.84039304  1
  N  N51  1  0.79039444  0.40368082  0.59685344  1
  N  N52  1  0.55818802  0.53789331  0.33980598  1
  N  N53  1  0.44588232  0.42686357  0.09184225  1
  N  N54  1  0.22273073  0.53946564  0.83984403  1
  N  N55  1  0.11159442  0.42810847  0.59012443  1
  N  N56  1  0.88674542  0.53681931  0.34134628  1
  N  N57  1  0.77975805  0.42483337  0.08602476  1
  N  N58  1  0.55443792  0.54126147  0.84085755  1
  N  N59  1  0.44500781  0.42788021  0.58811033  1
  N  N60  1  0.22116338  0.87484716  0.33984948  1
  N  N61  1  0.11006287  0.76250132  0.09215161  1
  N  N62  1  0.88947988  0.86907470  0.83913998  1
  N  N63  1  0.77777513  0.76285133  0.58387762  1
  N  N64  1  0.55536652  0.87206304  0.31733299  1
  N  N65  1  0.45731699  0.77385275  0.09693215  1
  N  N66  1  0.22456307  0.87101141  0.84104605  1
  N  N67  1  0.11144570  0.76143811  0.58818884  1
  N  N68  1  0.87429489  0.90163475  0.34228413  1
  N  N69  1  0.75391015  0.77377645  0.09845666  1
  N  N70  1  0.55617694  0.87269721  0.83613155  1
  N  N71  1  0.44556363  0.76215432  0.58582151  1
