# generated using pymatgen
data_Al11BN12
_symmetry_space_group_name_H-M   'P 1'
_cell_length_a   9.28273432
_cell_length_b   9.28407613
_cell_length_c   9.95618317
_cell_angle_alpha   89.86344573
_cell_angle_beta   89.60150261
_cell_angle_gamma   60.05810605
_symmetry_Int_Tables_number   1
_chemical_formula_structural   Al11BN12
_chemical_formula_sum   'Al33 B3 N36'
_cell_volume   743.50050051
_cell_formula_units_Z   3
loop_
 _symmetry_equiv_pos_site_id
 _symmetry_equiv_pos_as_xyz
  1  'x, y, z'
loop_
 _atom_site_type_symbol
 _atom_site_label
 _atom_site_symmetry_multiplicity
 _atom_site_fract_x
 _atom_site_fract_y
 _atom_site_fract_z
 _atom_site_occupancy
  Al  Al0  1  0.09396961  0.10128812  0.36870856  1
  Al  Al1  1  0.22762345  0.19852250  0.10996235  1
  Al  Al2  1  0.78094699  0.09727803  0.81436973  1
  Al  Al3  1  0.45708129  0.08583687  0.31113978  1
  Al  Al4  1  0.55797256  0.19805151  0.06331647  1
  Al  Al5  1  0.10855532  0.09861114  0.88577271  1
  Al  Al6  1  0.21889499  0.20551439  0.59905740  1
  Al  Al7  1  0.88160015  0.20501356  0.09038546  1
  Al  Al8  1  0.44886017  0.09045620  0.81697572  1
  Al  Al9  1  0.56802971  0.20514965  0.55519066  1
  Al  Al10  1  0.10887021  0.43239903  0.31374884  1
  Al  Al11  1  0.22244670  0.53805966  0.06008191  1
  Al  Al12  1  0.78130356  0.42079823  0.81539914  1
  Al  Al13  1  0.89001351  0.53624055  0.56104035  1
  Al  Al14  1  0.45009963  0.42435746  0.31012681  1
  Al  Al15  1  0.55764160  0.54196674  0.05850433  1
  Al  Al16  1  0.10917017  0.43134385  0.81052982  1
  Al  Al17  1  0.22352422  0.53995675  0.55902413  1
  Al  Al18  1  0.77455065  0.42443238  0.31025658  1
  Al  Al19  1  0.88220165  0.54309964  0.05948206  1
  Al  Al20  1  0.44520290  0.42591963  0.81078587  1
  Al  Al21  1  0.55999460  0.53418831  0.56211585  1
  Al  Al22  1  0.10658755  0.76808809  0.31035670  1
  Al  Al23  1  0.23144238  0.86339226  0.06448458  1
  Al  Al24  1  0.77531582  0.76392346  0.81661500  1
  Al  Al25  1  0.88863009  0.88273963  0.55608297  1
  Al  Al26  1  0.44735651  0.76389301  0.30792667  1
  Al  Al27  1  0.10971635  0.76235249  0.81099048  1
  Al  Al28  1  0.22147517  0.87083301  0.56343638  1
  Al  Al29  1  0.77257263  0.76776957  0.30641549  1
  Al  Al30  1  0.88191202  0.87444500  0.06412990  1
  Al  Al31  1  0.44594961  0.76290885  0.81697899  1
  Al  Al32  1  0.55872174  0.87161477  0.56107685  1
  B  B33  1  0.88934828  0.20594799  0.59440243  1
  B  B34  1  0.77670963  0.09618869  0.30069352  1
  B  B35  1  0.55680304  0.87076721  0.05823812  1
  N  N36  1  0.22505241  0.20392075  0.34756297  1
  N  N37  1  0.11324493  0.09103841  0.08511452  1
  N  N38  1  0.87954988  0.20867289  0.88597370  1
  N  N39  1  0.79477098  0.11064055  0.61992950  1
  N  N40  1  0.58004634  0.19326049  0.36203329  1
  N  N41  1  0.46071372  0.06576134  0.11512670  1
  N  N42  1  0.22097343  0.20468361  0.83676496  1
  N  N43  1  0.07742246  0.11208727  0.57604463  1
  N  N44  1  0.87096122  0.19376813  0.33041402  1
  N  N45  1  0.77125941  0.08845300  0.13802178  1
  N  N46  1  0.55775979  0.20402774  0.87217621  1
  N  N47  1  0.45441044  0.09230377  0.62043671  1
  N  N48  1  0.22294206  0.54109877  0.36914523  1
  N  N49  1  0.10721132  0.43175756  0.12027548  1
  N  N50  1  0.88716051  0.53932891  0.86848056  1
  N  N51  1  0.79408294  0.39808311  0.61771590  1
  N  N52  1  0.55390647  0.54187948  0.37183595  1
  N  N53  1  0.44532272  0.42678595  0.11900781  1
  N  N54  1  0.22209769  0.53934608  0.86966658  1
  N  N55  1  0.10914024  0.43412843  0.61808463  1
  N  N56  1  0.88524283  0.54112676  0.37032470  1
  N  N57  1  0.77363192  0.43424634  0.12097513  1
  N  N58  1  0.55628902  0.53819405  0.86762154  1
  N  N59  1  0.44583969  0.42579598  0.61872199  1
  N  N60  1  0.22617273  0.86889687  0.37025735  1
  N  N61  1  0.10960571  0.76023655  0.12053496  1
  N  N62  1  0.88751610  0.87503424  0.87232788  1
  N  N63  1  0.77910358  0.76373228  0.62293089  1
  N  N64  1  0.55720842  0.87004107  0.37436018  1
  N  N65  1  0.45857455  0.77125489  0.11423448  1
  N  N66  1  0.22417856  0.86688130  0.87064577  1
  N  N67  1  0.10909988  0.76234211  0.61953861  1
  N  N68  1  0.87546075  0.89615006  0.36231062  1
  N  N69  1  0.75292245  0.77217012  0.11285524  1
  N  N70  1  0.55575818  0.87187281  0.89220713  1
  N  N71  1  0.44694548  0.76194500  0.62479392  1
