# generated using pymatgen
data_Al11BN12
_symmetry_space_group_name_H-M   'P 1'
_cell_length_a   9.27488881
_cell_length_b   9.27557125
_cell_length_c   9.95255360
_cell_angle_alpha   89.83277630
_cell_angle_beta   89.61700868
_cell_angle_gamma   60.01124275
_symmetry_Int_Tables_number   1
_chemical_formula_structural   Al11BN12
_chemical_formula_sum   'Al33 B3 N36'
_cell_volume   741.57310372
_cell_formula_units_Z   3
loop_
 _symmetry_equiv_pos_site_id
 _symmetry_equiv_pos_as_xyz
  1  'x, y, z'
loop_
 _atom_site_type_symbol
 _atom_site_label
 _atom_site_symmetry_multiplicity
 _atom_site_fract_x
 _atom_site_fract_y
 _atom_site_fract_z
 _atom_site_occupancy
  Al  Al0  1  0.09677271  0.09797711  0.34861086  1
  Al  Al1  1  0.23042655  0.20240351  0.06789462  1
  Al  Al2  1  0.78059106  0.09708604  0.81426214  1
  Al  Al3  1  0.45306872  0.08755493  0.30801999  1
  Al  Al4  1  0.55865213  0.19805039  0.06384207  1
  Al  Al5  1  0.10648681  0.09669503  0.87873330  1
  Al  Al6  1  0.21958672  0.20791806  0.56312461  1
  Al  Al7  1  0.88224470  0.20513892  0.09075694  1
  Al  Al8  1  0.44721864  0.09181198  0.81653562  1
  Al  Al9  1  0.56726901  0.20479242  0.55598731  1
  Al  Al10  1  0.11043129  0.42891464  0.31146404  1
  Al  Al11  1  0.22253567  0.53852202  0.06064068  1
  Al  Al12  1  0.78103425  0.42142697  0.81521120  1
  Al  Al13  1  0.89080389  0.53528355  0.56220838  1
  Al  Al14  1  0.45004400  0.42402890  0.31064339  1
  Al  Al15  1  0.55776834  0.54218699  0.05896922  1
  Al  Al16  1  0.11137882  0.42801713  0.81114222  1
  Al  Al17  1  0.22314540  0.53920043  0.56019200  1
  Al  Al18  1  0.77452528  0.42442407  0.31128149  1
  Al  Al19  1  0.88281901  0.54288102  0.06029430  1
  Al  Al20  1  0.44541281  0.42603871  0.81092365  1
  Al  Al21  1  0.55983551  0.53428173  0.56239728  1
  Al  Al22  1  0.10649704  0.76649508  0.31102211  1
  Al  Al23  1  0.23077449  0.86520140  0.06640169  1
  Al  Al24  1  0.77560262  0.76368768  0.81692599  1
  Al  Al25  1  0.88847390  0.88310968  0.55628410  1
  Al  Al26  1  0.44795283  0.76340317  0.30819146  1
  Al  Al27  1  0.10968785  0.76182915  0.81099313  1
  Al  Al28  1  0.21917455  0.87425189  0.56342552  1
  Al  Al29  1  0.77212741  0.76800754  0.30721302  1
  Al  Al30  1  0.88192275  0.87449080  0.06461933  1
  Al  Al31  1  0.44633820  0.76276599  0.81688678  1
  Al  Al32  1  0.55717016  0.87274257  0.56184766  1
  B  B33  1  0.89177652  0.20475253  0.59526716  1
  B  B34  1  0.77602206  0.09599072  0.30154706  1
  B  B35  1  0.55635814  0.87122527  0.05866890  1
  N  N36  1  0.22574276  0.20507841  0.36833247  1
  N  N37  1  0.11405688  0.09176007  0.09682381  1
  N  N38  1  0.87949627  0.20874858  0.88719551  1
  N  N39  1  0.79432674  0.11045280  0.62049622  1
  N  N40  1  0.57878963  0.19261238  0.36229818  1
  N  N41  1  0.45843817  0.06772643  0.11512852  1
  N  N42  1  0.22474424  0.20811863  0.87212371  1
  N  N43  1  0.07856187  0.11181076  0.58519346  1
  N  N44  1  0.86961178  0.19407582  0.33271287  1
  N  N45  1  0.77166563  0.08858407  0.13853916  1
  N  N46  1  0.55790876  0.20399145  0.87227040  1
  N  N47  1  0.44804477  0.09489257  0.62271495  1
  N  N48  1  0.22254627  0.53956219  0.36979318  1
  N  N49  1  0.10937193  0.42925046  0.12093856  1
  N  N50  1  0.88825334  0.53850031  0.86881424  1
  N  N51  1  0.79362476  0.39851889  0.61822752  1
  N  N52  1  0.55367214  0.54182636  0.37212905  1
  N  N53  1  0.44561044  0.42700204  0.11936305  1
  N  N54  1  0.22222630  0.53916724  0.86985712  1
  N  N55  1  0.11166896  0.42880839  0.62100247  1
  N  N56  1  0.88646851  0.54033712  0.37077208  1
  N  N57  1  0.77384509  0.43432383  0.12167372  1
  N  N58  1  0.55633212  0.53828014  0.86808487  1
  N  N59  1  0.44581337  0.42570531  0.61904581  1
  N  N60  1  0.22608290  0.86827245  0.36989842  1
  N  N61  1  0.10965770  0.76032339  0.12103205  1
  N  N62  1  0.88773514  0.87493739  0.87283228  1
  N  N63  1  0.77869672  0.76404620  0.62311508  1
  N  N64  1  0.55587580  0.87163536  0.37458807  1
  N  N65  1  0.45883036  0.77140025  0.11445410  1
  N  N66  1  0.22415853  0.86706913  0.87195679  1
  N  N67  1  0.10921178  0.76205284  0.61957818  1
  N  N68  1  0.87530572  0.89600265  0.36260199  1
  N  N69  1  0.75274309  0.77242250  0.11329662  1
  N  N70  1  0.55552532  0.87231723  0.89204060  1
  N  N71  1  0.44609963  0.76209320  0.62489974  1
