# generated using pymatgen
data_Al11BN12
_symmetry_space_group_name_H-M   'P 1'
_cell_length_a   9.28772688
_cell_length_b   9.28804094
_cell_length_c   10.00924016
_cell_angle_alpha   89.37667005
_cell_angle_beta   89.36483285
_cell_angle_gamma   59.97243511
_symmetry_Int_Tables_number   1
_chemical_formula_structural   Al11BN12
_chemical_formula_sum   'Al33 B3 N36'
_cell_volume   747.49738601
_cell_formula_units_Z   3
loop_
 _symmetry_equiv_pos_site_id
 _symmetry_equiv_pos_as_xyz
  1  'x, y, z'
loop_
 _atom_site_type_symbol
 _atom_site_label
 _atom_site_symmetry_multiplicity
 _atom_site_fract_x
 _atom_site_fract_y
 _atom_site_fract_z
 _atom_site_occupancy
  Al  Al0  1  0.10017227  0.09515640  0.40643684  1
  Al  Al1  1  0.22484150  0.20021977  0.15117853  1
  Al  Al2  1  0.77805394  0.09512876  0.84303715  1
  Al  Al3  1  0.45034290  0.08886824  0.38920913  1
  Al  Al4  1  0.56080403  0.19867071  0.08375393  1
  Al  Al5  1  0.10883324  0.09619001  0.89854577  1
  Al  Al6  1  0.21847612  0.20568199  0.64979692  1
  Al  Al7  1  0.88716931  0.20379740  0.15133583  1
  Al  Al8  1  0.44222123  0.08615211  0.90049504  1
  Al  Al9  1  0.56918748  0.20162416  0.59022937  1
  Al  Al10  1  0.11049095  0.42718371  0.40131617  1
  Al  Al11  1  0.22222315  0.53910806  0.15154186  1
  Al  Al12  1  0.77955808  0.42548337  0.89859015  1
  Al  Al13  1  0.88921236  0.53481730  0.64988368  1
  Al  Al14  1  0.44883150  0.42958359  0.39605623  1
  Al  Al15  1  0.55926482  0.54243678  0.15070500  1
  Al  Al16  1  0.11115001  0.42771026  0.89986722  1
  Al  Al17  1  0.22214911  0.53834835  0.64930618  1
  Al  Al18  1  0.77857567  0.41680097  0.40640215  1
  Al  Al19  1  0.88354762  0.54159331  0.15119139  1
  Al  Al20  1  0.44093123  0.43416858  0.89915176  1
  Al  Al21  1  0.55892765  0.53485633  0.65071960  1
  Al  Al22  1  0.11264004  0.76568093  0.39647911  1
  Al  Al23  1  0.22568388  0.87588079  0.15069660  1
  Al  Al24  1  0.76949246  0.75888117  0.90029345  1
  Al  Al25  1  0.88529176  0.88525872  0.59196441  1
  Al  Al26  1  0.44673862  0.76333417  0.39471175  1
  Al  Al27  1  0.11747590  0.75761367  0.89885230  1
  Al  Al28  1  0.21844501  0.87549205  0.65075557  1
  Al  Al29  1  0.77236797  0.76709098  0.38959048  1
  Al  Al30  1  0.88197622  0.87746015  0.08365922  1
  Al  Al31  1  0.44653961  0.76318746  0.90435852  1
  Al  Al32  1  0.55512134  0.87177243  0.64725445  1
  B  B33  1  0.89152348  0.20813062  0.66239469  1
  B  B34  1  0.77872198  0.09503549  0.36032408  1
  B  B35  1  0.55514675  0.87176697  0.15226682  1
  N  N36  1  0.21970618  0.20442280  0.34213776  1
  N  N37  1  0.10873258  0.09698839  0.08920566  1
  N  N38  1  0.89577038  0.21242938  0.82405926  1
  N  N39  1  0.78919467  0.10600172  0.64629936  1
  N  N40  1  0.59066399  0.19016450  0.38242598  1
  N  N41  1  0.45430976  0.06662566  0.09813993  1
  N  N42  1  0.22313465  0.20513621  0.84018184  1
  N  N43  1  0.08512302  0.10711404  0.59887638  1
  N  N44  1  0.87508207  0.19162984  0.34427613  1
  N  N45  1  0.78090876  0.09747949  0.10110984  1
  N  N46  1  0.55080784  0.20602785  0.88146238  1
  N  N47  1  0.44263289  0.09177183  0.58363628  1
  N  N48  1  0.22218045  0.53912500  0.34101141  1
  N  N49  1  0.11137243  0.42800647  0.09102808  1
  N  N50  1  0.88857848  0.53968281  0.84022232  1
  N  N51  1  0.79059746  0.40162088  0.59885575  1
  N  N52  1  0.55968675  0.53973054  0.34061660  1
  N  N53  1  0.44323694  0.43421678  0.09360191  1
  N  N54  1  0.22229278  0.53880468  0.83850937  1
  N  N55  1  0.11129734  0.42777129  0.59049042  1
  N  N56  1  0.88773726  0.53647962  0.34219205  1
  N  N57  1  0.78039165  0.42537055  0.08924011  1
  N  N58  1  0.55551598  0.54158287  0.84128589  1
  N  N59  1  0.44296562  0.43185034  0.58842237  1
  N  N60  1  0.22306633  0.87620925  0.34067458  1
  N  N61  1  0.11740992  0.75996559  0.09325815  1
  N  N62  1  0.88930616  0.86754994  0.88059570  1
  N  N63  1  0.77530803  0.75903503  0.58399685  1
  N  N64  1  0.55590856  0.87232058  0.31662023  1
  N  N65  1  0.45677769  0.77344667  0.09742902  1
  N  N66  1  0.22500651  0.87215972  0.84126574  1
  N  N67  1  0.11545177  0.75936627  0.58880413  1
  N  N68  1  0.87356295  0.90723574  0.38262397  1
  N  N69  1  0.75002252  0.77097540  0.09788079  1
  N  N70  1  0.55449365  0.87122569  0.83427419  1
  N  N71  1  0.44498815  0.76145537  0.58614615  1
