# generated using pymatgen
data_Al11BN12
_symmetry_space_group_name_H-M   'P 1'
_cell_length_a   9.27071487
_cell_length_b   9.27073060
_cell_length_c   10.04638128
_cell_angle_alpha   89.52616225
_cell_angle_beta   89.52579708
_cell_angle_gamma   59.99378173
_symmetry_Int_Tables_number   1
_chemical_formula_structural   Al11BN12
_chemical_formula_sum   'Al33 B3 N36'
_cell_volume   747.68805222
_cell_formula_units_Z   3
loop_
 _symmetry_equiv_pos_site_id
 _symmetry_equiv_pos_as_xyz
  1  'x, y, z'
loop_
 _atom_site_type_symbol
 _atom_site_label
 _atom_site_symmetry_multiplicity
 _atom_site_fract_x
 _atom_site_fract_y
 _atom_site_fract_z
 _atom_site_occupancy
  Al  Al0  1  0.09865700  0.09603411  0.39453351  1
  Al  Al1  1  0.22256181  0.19976987  0.13875629  1
  Al  Al2  1  0.77749011  0.09403949  0.81518017  1
  Al  Al3  1  0.44788303  0.08890093  0.37415702  1
  Al  Al4  1  0.56022006  0.19787141  0.08176567  1
  Al  Al5  1  0.11005704  0.09637114  0.88371756  1
  Al  Al6  1  0.22081397  0.20591004  0.63710183  1
  Al  Al7  1  0.88931981  0.20587646  0.14304037  1
  Al  Al8  1  0.44553167  0.08661901  0.89166080  1
  Al  Al9  1  0.57212310  0.20048010  0.56205122  1
  Al  Al10  1  0.10993640  0.42648846  0.38921765  1
  Al  Al11  1  0.22146660  0.53801755  0.14042620  1
  Al  Al12  1  0.77982265  0.42660704  0.88371842  1
  Al  Al13  1  0.88936207  0.53736282  0.63710243  1
  Al  Al14  1  0.44742562  0.42994095  0.38072059  1
  Al  Al15  1  0.55880339  0.54306653  0.13904069  1
  Al  Al16  1  0.11200379  0.42855000  0.88715220  1
  Al  Al17  1  0.22287089  0.53942105  0.63646971  1
  Al  Al18  1  0.77947892  0.41521370  0.39453362  1
  Al  Al19  1  0.88321782  0.53911542  0.13875563  1
  Al  Al20  1  0.44336581  0.43316939  0.89074491  1
  Al  Al21  1  0.55868877  0.53436925  0.63807631  1
  Al  Al22  1  0.11338140  0.76398248  0.38070345  1
  Al  Al23  1  0.22651345  0.87535932  0.13903803  1
  Al  Al24  1  0.77007149  0.76208096  0.89166135  1
  Al  Al25  1  0.88393486  0.88867019  0.56204899  1
  Al  Al26  1  0.44642823  0.76298428  0.38377849  1
  Al  Al27  1  0.11662058  0.75991349  0.89074305  1
  Al  Al28  1  0.21781950  0.87523753  0.63807349  1
  Al  Al29  1  0.77234685  0.76443617  0.37415732  1
  Al  Al30  1  0.88131518  0.87677774  0.08176622  1
  Al  Al31  1  0.44731493  0.76386300  0.89087895  1
  Al  Al32  1  0.55621729  0.87276386  0.63443063  1
  B  B33  1  0.89341528  0.20996386  0.64720271  1
  B  B34  1  0.77513657  0.09169752  0.30903578  1
  B  B35  1  0.55364828  0.87019994  0.14081798  1
  N  N36  1  0.21781704  0.20425836  0.32863123  1
  N  N37  1  0.10625678  0.09561725  0.07359529  1
  N  N38  1  0.89570488  0.21225461  0.80991482  1
  N  N39  1  0.78882547  0.10537239  0.62792107  1
  N  N40  1  0.58494463  0.19167933  0.36518048  1
  N  N41  1  0.45228885  0.06599895  0.08728574  1
  N  N42  1  0.22658023  0.20540190  0.82765554  1
  N  N43  1  0.08582409  0.10777935  0.58708882  1
  N  N44  1  0.87877428  0.19533105  0.33070150  1
  N  N45  1  0.77284587  0.08940497  0.14883698  1
  N  N46  1  0.56319385  0.20165983  0.88473236  1
  N  N47  1  0.44326158  0.09182449  0.56920454  1
  N  N48  1  0.22132882  0.53787896  0.32802423  1
  N  N49  1  0.11064869  0.42719887  0.07768169  1
  N  N50  1  0.88885533  0.54312862  0.82765649  1
  N  N51  1  0.79123013  0.40237405  0.58708916  1
  N  N52  1  0.55985184  0.53983260  0.32798867  1
  N  N53  1  0.44273430  0.43438062  0.08395252  1
  N  N54  1  0.22354203  0.54008889  0.82690467  1
  N  N55  1  0.11165234  0.42819953  0.57814077  1
  N  N56  1  0.88770585  0.53437080  0.32863070  1
  N  N57  1  0.77906279  0.42281201  0.07359645  1
  N  N58  1  0.55543493  0.54163077  0.82837311  1
  N  N59  1  0.44364916  0.43105507  0.57416165  1
  N  N60  1  0.22327783  0.87640897  0.32798593  1
  N  N61  1  0.11782443  0.75928839  0.08395919  1
  N  N62  1  0.88511116  0.87974461  0.88473315  1
  N  N63  1  0.77527881  0.75980920  0.56920436  1
  N  N64  1  0.55457451  0.87112799  0.30351724  1
  N  N65  1  0.45645827  0.77300976  0.08391132  1
  N  N66  1  0.22508257  0.87198270  0.82837238  1
  N  N67  1  0.11450800  0.76019643  0.57415609  1
  N  N68  1  0.87512049  0.90150211  0.36517805  1
  N  N69  1  0.74944699  0.76884226  0.08728576  1
  N  N70  1  0.55623126  0.87277788  0.82191806  1
  N  N71  1  0.44511291  0.76166081  0.57462964  1
