# generated using pymatgen
data_Al11BN12
_symmetry_space_group_name_H-M   'P 1'
_cell_length_a   9.27105825
_cell_length_b   9.27105700
_cell_length_c   10.13623267
_cell_angle_alpha   89.82383662
_cell_angle_beta   89.82300835
_cell_angle_gamma   60.15148263
_symmetry_Int_Tables_number   1
_chemical_formula_structural   Al11BN12
_chemical_formula_sum   'Al33 B3 N36'
_cell_volume   755.65561139
_cell_formula_units_Z   3
loop_
 _symmetry_equiv_pos_site_id
 _symmetry_equiv_pos_as_xyz
  1  'x, y, z'
loop_
 _atom_site_type_symbol
 _atom_site_label
 _atom_site_symmetry_multiplicity
 _atom_site_fract_x
 _atom_site_fract_y
 _atom_site_fract_z
 _atom_site_occupancy
  Al  Al0  1  0.09928471  0.09549689  0.39555999  1
  Al  Al1  1  0.21824331  0.20023179  0.13646018  1
  Al  Al2  1  0.78002991  0.09657287  0.81371233  1
  Al  Al3  1  0.45558036  0.08311128  0.31440067  1
  Al  Al4  1  0.55750522  0.19741070  0.07176356  1
  Al  Al5  1  0.11019095  0.09635735  0.88692877  1
  Al  Al6  1  0.21504789  0.21000912  0.64223760  1
  Al  Al7  1  0.88642231  0.20296610  0.14484352  1
  Al  Al8  1  0.45345268  0.09218306  0.82510509  1
  Al  Al9  1  0.56903805  0.20378286  0.56298015  1
  Al  Al10  1  0.10767305  0.42421794  0.38790258  1
  Al  Al11  1  0.22269841  0.53924192  0.09337900  1
  Al  Al12  1  0.77981446  0.42673490  0.88692864  1
  Al  Al13  1  0.89346686  0.53158988  0.64223812  1
  Al  Al14  1  0.44967748  0.41724662  0.32077363  1
  Al  Al15  1  0.56092021  0.54487721  0.14066142  1
  Al  Al16  1  0.11054720  0.42709080  0.89165323  1
  Al  Al17  1  0.22515236  0.54169504  0.58159445  1
  Al  Al18  1  0.77895349  0.41582909  0.39555979  1
  Al  Al19  1  0.88368865  0.53478625  0.13646006  1
  Al  Al20  1  0.44462980  0.42432162  0.82086644  1
  Al  Al21  1  0.56487591  0.53821618  0.64092026  1
  Al  Al22  1  0.10070319  0.76622046  0.32077351  1
  Al  Al23  1  0.22833235  0.87746432  0.14066149  1
  Al  Al24  1  0.77563825  0.76999789  0.82510483  1
  Al  Al25  1  0.88723924  0.88558098  0.56298024  1
  Al  Al26  1  0.44015537  0.75669894  0.39199573  1
  Al  Al27  1  0.10777784  0.76117269  0.82086672  1
  Al  Al28  1  0.22167193  0.88141891  0.64092023  1
  Al  Al29  1  0.76656673  0.77212532  0.31440053  1
  Al  Al30  1  0.88086634  0.87404876  0.07176377  1
  Al  Al31  1  0.44435157  0.76089609  0.89544606  1
  Al  Al32  1  0.56036301  0.87690631  0.56943510  1
  B  B33  1  0.89270449  0.20924700  0.64666465  1
  B  B34  1  0.77383341  0.09037802  0.31155963  1
  B  B35  1  0.55865313  0.87519736  0.06286247  1
  N  N36  1  0.21773167  0.20350685  0.32806643  1
  N  N37  1  0.10341615  0.09452657  0.07466338  1
  N  N38  1  0.89682786  0.21337054  0.80983261  1
  N  N39  1  0.79056196  0.10710613  0.62679992  1
  N  N40  1  0.58093241  0.18918172  0.37161025  1
  N  N41  1  0.45709827  0.06554695  0.12149751  1
  N  N42  1  0.22090519  0.20860880  0.83183225  1
  N  N43  1  0.08665945  0.10876012  0.58617875  1
  N  N44  1  0.87691364  0.19345674  0.33167535  1
  N  N45  1  0.76971069  0.08625547  0.14924620  1
  N  N46  1  0.56333257  0.20538258  0.88452532  1
  N  N47  1  0.45359610  0.09403651  0.63242270  1
  N  N48  1  0.22366786  0.54021211  0.36832871  1
  N  N49  1  0.10716913  0.42371124  0.08104650  1
  N  N50  1  0.89206575  0.53745001  0.83183275  1
  N  N51  1  0.79221804  0.40320201  0.58617873  1
  N  N52  1  0.56113295  0.53909466  0.33157525  1
  N  N53  1  0.44668209  0.42046436  0.13029101  1
  N  N54  1  0.22455965  0.54110354  0.86931051  1
  N  N55  1  0.10913731  0.42567864  0.57714340  1
  N  N56  1  0.88696299  0.53427668  0.32806660  1
  N  N57  1  0.77798391  0.41995871  0.07466323  1
  N  N58  1  0.55973948  0.54424549  0.83000255  1
  N  N59  1  0.44817255  0.42166854  0.62664848  1
  N  N60  1  0.22255208  0.87767503  0.33157536  1
  N  N61  1  0.10391931  0.76322650  0.13029083  1
  N  N62  1  0.88883779  0.87987733  0.88452556  1
  N  N63  1  0.77749251  0.77013847  0.63242228  1
  N  N64  1  0.55670549  0.87325132  0.38397352  1
  N  N65  1  0.45335898  0.76990260  0.08413409  1
  N  N66  1  0.22770247  0.87628150  0.83000246  1
  N  N67  1  0.10512370  0.76471630  0.62664877  1
  N  N68  1  0.87263702  0.89747697  0.37161013  1
  N  N69  1  0.74900300  0.77364126  0.12149715  1
  N  N70  1  0.56216661  0.87871212  0.90060246  1
  N  N71  1  0.44241880  0.75896170  0.58142694  1
