# generated using pymatgen
data_Al11BN12
_symmetry_space_group_name_H-M   'P 1'
_cell_length_a   9.29530382
_cell_length_b   9.28264466
_cell_length_c   10.03291080
_cell_angle_alpha   89.80157111
_cell_angle_beta   89.67753038
_cell_angle_gamma   60.08089821
_symmetry_Int_Tables_number   1
_chemical_formula_structural   Al11BN12
_chemical_formula_sum   'Al33 B3 N36'
_cell_volume   750.30760439
_cell_formula_units_Z   3
loop_
 _symmetry_equiv_pos_site_id
 _symmetry_equiv_pos_as_xyz
  1  'x, y, z'
loop_
 _atom_site_type_symbol
 _atom_site_label
 _atom_site_symmetry_multiplicity
 _atom_site_fract_x
 _atom_site_fract_y
 _atom_site_fract_z
 _atom_site_occupancy
  Al  Al0  1  0.09804936  0.10063811  0.39415428  1
  Al  Al1  1  0.22022367  0.19783918  0.13499562  1
  Al  Al2  1  0.77912524  0.09475735  0.81399308  1
  Al  Al3  1  0.45839317  0.08359209  0.31679867  1
  Al  Al4  1  0.55723085  0.19858776  0.07321588  1
  Al  Al5  1  0.10684620  0.10049598  0.88581271  1
  Al  Al6  1  0.21770062  0.20337251  0.63949813  1
  Al  Al7  1  0.88615578  0.20443530  0.14460542  1
  Al  Al8  1  0.45491834  0.08921749  0.82797465  1
  Al  Al9  1  0.56812708  0.20351239  0.56413609  1
  Al  Al10  1  0.10934491  0.43076625  0.33318575  1
  Al  Al11  1  0.22235956  0.53945663  0.07142807  1
  Al  Al12  1  0.78015732  0.42229672  0.88019978  1
  Al  Al13  1  0.89031337  0.53929235  0.57655730  1
  Al  Al14  1  0.45104548  0.42401005  0.31932564  1
  Al  Al15  1  0.55021108  0.54439756  0.06908824  1
  Al  Al16  1  0.11069330  0.43256537  0.83312507  1
  Al  Al17  1  0.22381763  0.53941336  0.56897734  1
  Al  Al18  1  0.78081985  0.41030915  0.39237950  1
  Al  Al19  1  0.88343741  0.54473831  0.07116761  1
  Al  Al20  1  0.44533750  0.42657504  0.81890334  1
  Al  Al21  1  0.55402185  0.53852148  0.57713280  1
  Al  Al22  1  0.10766724  0.76858307  0.31941672  1
  Al  Al23  1  0.22782926  0.86792165  0.06883805  1
  Al  Al24  1  0.77572749  0.76671291  0.82421634  1
  Al  Al25  1  0.88762139  0.88431779  0.56390982  1
  Al  Al26  1  0.44668830  0.76334460  0.31772240  1
  Al  Al27  1  0.11002718  0.76305122  0.81910550  1
  Al  Al28  1  0.22213426  0.87095147  0.57582492  1
  Al  Al29  1  0.77173394  0.76592068  0.31532637  1
  Al  Al30  1  0.88212778  0.87437094  0.07334840  1
  Al  Al31  1  0.44622902  0.76443872  0.82499575  1
  Al  Al32  1  0.55779106  0.87365575  0.57011423  1
  B  B33  1  0.89189215  0.20978443  0.64667300  1
  B  B34  1  0.77463136  0.08884445  0.31096316  1
  B  B35  1  0.55533281  0.87276316  0.06734534  1
  N  N36  1  0.22221413  0.19897159  0.33248442  1
  N  N37  1  0.10101284  0.09966366  0.07681373  1
  N  N38  1  0.89641946  0.21089037  0.80918345  1
  N  N39  1  0.78953376  0.10566784  0.62611605  1
  N  N40  1  0.58087950  0.19160760  0.37043182  1
  N  N41  1  0.45851975  0.06583368  0.12148060  1
  N  N42  1  0.22437301  0.20271195  0.83499326  1
  N  N43  1  0.08405772  0.11033556  0.58741510  1
  N  N44  1  0.87842235  0.19128416  0.33159030  1
  N  N45  1  0.77001683  0.08689098  0.14833697  1
  N  N46  1  0.56185272  0.20553192  0.88389132  1
  N  N47  1  0.45532089  0.09224801  0.63149814  1
  N  N48  1  0.22448831  0.54072988  0.37886951  1
  N  N49  1  0.10716948  0.43174037  0.12295959  1
  N  N50  1  0.88843981  0.54578333  0.87734084  1
  N  N51  1  0.79152825  0.39921484  0.58980356  1
  N  N52  1  0.55110882  0.54262079  0.38200191  1
  N  N53  1  0.44451904  0.42631472  0.13048344  1
  N  N54  1  0.22455292  0.54113065  0.88113900  1
  N  N55  1  0.11134110  0.43139849  0.62227645  1
  N  N56  1  0.88509452  0.54291366  0.38000979  1
  N  N57  1  0.77927129  0.41749264  0.07816593  1
  N  N58  1  0.54939278  0.54234100  0.87620238  1
  N  N59  1  0.44514593  0.42476911  0.62913564  1
  N  N60  1  0.22631053  0.86860049  0.38218201  1
  N  N61  1  0.10980281  0.76276593  0.13035677  1
  N  N62  1  0.88843733  0.87793328  0.88336075  1
  N  N63  1  0.77824586  0.76663927  0.63230450  1
  N  N64  1  0.55667606  0.87008161  0.38382504  1
  N  N65  1  0.45541224  0.77315574  0.12418202  1
  N  N66  1  0.22463193  0.86796445  0.87724517  1
  N  N67  1  0.10860155  0.76216905  0.62897062  1
  N  N68  1  0.87507464  0.89576610  0.36990561  1
  N  N69  1  0.75134445  0.77214179  0.12339977  1
  N  N70  1  0.55712818  0.87161238  0.90198172  1
  N  N71  1  0.44655058  0.76415801  0.63500021  1
