# generated using pymatgen
data_Al11BN12
_symmetry_space_group_name_H-M   'P 1'
_cell_length_a   9.27999527
_cell_length_b   9.29047028
_cell_length_c   10.02996505
_cell_angle_alpha   89.52820960
_cell_angle_beta   89.44345878
_cell_angle_gamma   59.97690232
_symmetry_Int_Tables_number   1
_chemical_formula_structural   Al11BN12
_chemical_formula_sum   'Al33 B3 N36'
_cell_volume   748.67027411
_cell_formula_units_Z   3
loop_
 _symmetry_equiv_pos_site_id
 _symmetry_equiv_pos_as_xyz
  1  'x, y, z'
loop_
 _atom_site_type_symbol
 _atom_site_label
 _atom_site_symmetry_multiplicity
 _atom_site_fract_x
 _atom_site_fract_y
 _atom_site_fract_z
 _atom_site_occupancy
  Al  Al0  1  0.09780345  0.09632971  0.39469938  1
  Al  Al1  1  0.22219643  0.19985853  0.13891993  1
  Al  Al2  1  0.77695872  0.09467455  0.81400879  1
  Al  Al3  1  0.44730609  0.08903070  0.37357435  1
  Al  Al4  1  0.55991568  0.19769329  0.08166619  1
  Al  Al5  1  0.10995998  0.09680404  0.88369670  1
  Al  Al6  1  0.22133435  0.20545222  0.63660476  1
  Al  Al7  1  0.88858842  0.20644352  0.14234903  1
  Al  Al8  1  0.44568350  0.08628733  0.89116234  1
  Al  Al9  1  0.57370871  0.19920259  0.56105171  1
  Al  Al10  1  0.10946320  0.42595466  0.38930920  1
  Al  Al11  1  0.22262681  0.53400164  0.13836284  1
  Al  Al12  1  0.77997464  0.42663908  0.88308532  1
  Al  Al13  1  0.88968298  0.53786332  0.63635912  1
  Al  Al14  1  0.44662401  0.43068446  0.38112834  1
  Al  Al15  1  0.55863337  0.54313065  0.13886986  1
  Al  Al16  1  0.11216408  0.42673102  0.88716690  1
  Al  Al17  1  0.22506679  0.53549173  0.63456575  1
  Al  Al18  1  0.77899686  0.41556942  0.39412473  1
  Al  Al19  1  0.88263002  0.53984303  0.13835544  1
  Al  Al20  1  0.44457352  0.43238985  0.89086593  1
  Al  Al21  1  0.55913673  0.53419998  0.63761711  1
  Al  Al22  1  0.10363290  0.76877785  0.33188998  1
  Al  Al23  1  0.22830239  0.87795050  0.13678840  1
  Al  Al24  1  0.77013665  0.76161977  0.89193884  1
  Al  Al25  1  0.89092959  0.88606292  0.55919503  1
  Al  Al26  1  0.44581248  0.76297043  0.38383878  1
  Al  Al27  1  0.10975858  0.76228537  0.84765481  1
  Al  Al28  1  0.22060907  0.87687507  0.63617691  1
  Al  Al29  1  0.77122136  0.76434302  0.37495356  1
  Al  Al30  1  0.88286471  0.87701006  0.07965098  1
  Al  Al31  1  0.44851186  0.76330241  0.89083794  1
  Al  Al32  1  0.55813931  0.87257193  0.63378047  1
  B  B33  1  0.89360887  0.20963445  0.64662838  1
  B  B34  1  0.77285775  0.09381179  0.30792212  1
  B  B35  1  0.55443064  0.87013956  0.14079323  1
  N  N36  1  0.21718540  0.20420733  0.32864492  1
  N  N37  1  0.10561974  0.09697381  0.07318017  1
  N  N38  1  0.89568557  0.21198646  0.80980114  1
  N  N39  1  0.78991676  0.10475611  0.62658341  1
  N  N40  1  0.58401597  0.19226246  0.36389854  1
  N  N41  1  0.45195883  0.06606895  0.08718206  1
  N  N42  1  0.22694051  0.20454931  0.82728350  1
  N  N43  1  0.08606481  0.10838341  0.58673702  1
  N  N44  1  0.87786342  0.19571105  0.33028355  1
  N  N45  1  0.77227102  0.09002490  0.14767036  1
  N  N46  1  0.56360203  0.20091156  0.88441736  1
  N  N47  1  0.44395334  0.09150812  0.56885318  1
  N  N48  1  0.22238110  0.53412671  0.32887604  1
  N  N49  1  0.11005576  0.42617018  0.07723160  1
  N  N50  1  0.88926938  0.54319731  0.82744529  1
  N  N51  1  0.79165554  0.40247413  0.58685523  1
  N  N52  1  0.55925175  0.54008206  0.32785406  1
  N  N53  1  0.44315799  0.43429961  0.08339950  1
  N  N54  1  0.22667538  0.53370853  0.82819185  1
  N  N55  1  0.11193681  0.42688350  0.57790435  1
  N  N56  1  0.88726782  0.53479029  0.32835061  1
  N  N57  1  0.77883016  0.42331510  0.07328763  1
  N  N58  1  0.55562300  0.54149739  0.82813803  1
  N  N59  1  0.44542216  0.42974990  0.57400511  1
  N  N60  1  0.22402970  0.87861072  0.32911454  1
  N  N61  1  0.11038138  0.76307891  0.11478551  1
  N  N62  1  0.88624842  0.87974853  0.88613461  1
  N  N63  1  0.77686771  0.75997477  0.56855769  1
  N  N64  1  0.55439993  0.87108697  0.30335657  1
  N  N65  1  0.45745739  0.77253642  0.08351036  1
  N  N66  1  0.22774990  0.87363069  0.82993577  1
  N  N67  1  0.11016035  0.76209406  0.60498768  1
  N  N68  1  0.87323698  0.90275416  0.36513462  1
  N  N69  1  0.74951614  0.76959071  0.08678366  1
  N  N70  1  0.55726822  0.87248350  0.82164187  1
  N  N71  1  0.44710964  0.76118951  0.57441109  1
