# generated using pymatgen
data_Al11BN12
_symmetry_space_group_name_H-M   'P 1'
_cell_length_a   9.28458771
_cell_length_b   9.28481184
_cell_length_c   10.02070371
_cell_angle_alpha   89.36791674
_cell_angle_beta   89.36098430
_cell_angle_gamma   59.97318004
_symmetry_Int_Tables_number   1
_chemical_formula_structural   Al11BN12
_chemical_formula_sum   'Al33 B3 N36'
_cell_volume   747.84488950
_cell_formula_units_Z   3
loop_
 _symmetry_equiv_pos_site_id
 _symmetry_equiv_pos_as_xyz
  1  'x, y, z'
loop_
 _atom_site_type_symbol
 _atom_site_label
 _atom_site_symmetry_multiplicity
 _atom_site_fract_x
 _atom_site_fract_y
 _atom_site_fract_z
 _atom_site_occupancy
  Al  Al0  1  0.10011713  0.09532959  0.40662508  1
  Al  Al1  1  0.22464083  0.20013249  0.15118097  1
  Al  Al2  1  0.77770257  0.09454263  0.83847296  1
  Al  Al3  1  0.45017827  0.08891493  0.38889630  1
  Al  Al4  1  0.56097068  0.19836386  0.08456451  1
  Al  Al5  1  0.10887308  0.09613971  0.89842192  1
  Al  Al6  1  0.21870070  0.20574195  0.64985256  1
  Al  Al7  1  0.88742255  0.20404937  0.15221215  1
  Al  Al8  1  0.44253818  0.08611158  0.90093108  1
  Al  Al9  1  0.56953078  0.20153826  0.58745465  1
  Al  Al10  1  0.11049535  0.42714440  0.40136148  1
  Al  Al11  1  0.22220179  0.53898235  0.15161887  1
  Al  Al12  1  0.77951937  0.42549836  0.89844815  1
  Al  Al13  1  0.88922564  0.53515197  0.64990226  1
  Al  Al14  1  0.44868990  0.42981053  0.39582244  1
  Al  Al15  1  0.55921510  0.54238744  0.15075937  1
  Al  Al16  1  0.11119097  0.42776518  0.89993247  1
  Al  Al17  1  0.22212591  0.53851591  0.64930686  1
  Al  Al18  1  0.77873544  0.41673774  0.40660652  1
  Al  Al19  1  0.88347874  0.54134240  0.15118307  1
  Al  Al20  1  0.44119212  0.43404952  0.89959132  1
  Al  Al21  1  0.55884053  0.53486328  0.65078347  1
  Al  Al22  1  0.11306417  0.76540308  0.39605913  1
  Al  Al23  1  0.22568866  0.87583318  0.15075001  1
  Al  Al24  1  0.76947328  0.75916228  0.90079936  1
  Al  Al25  1  0.88504564  0.88592051  0.58815400  1
  Al  Al26  1  0.44677766  0.76337820  0.39481743  1
  Al  Al27  1  0.11740602  0.75782836  0.89940870  1
  Al  Al28  1  0.21836231  0.87541841  0.65080503  1
  Al  Al29  1  0.77235556  0.76684063  0.38911426  1
  Al  Al30  1  0.88169686  0.87761748  0.08440672  1
  Al  Al31  1  0.44659208  0.76322297  0.90432154  1
  Al  Al32  1  0.55524853  0.87186668  0.64719048  1
  B  B33  1  0.89185383  0.20845696  0.66191161  1
  B  B34  1  0.77857662  0.09506613  0.35525980  1
  B  B35  1  0.55501663  0.87161960  0.15218557  1
  N  N36  1  0.21960721  0.20445744  0.34198797  1
  N  N37  1  0.10839866  0.09690526  0.08884485  1
  N  N38  1  0.89551898  0.21214976  0.82402991  1
  N  N39  1  0.78911156  0.10582309  0.64517739  1
  N  N40  1  0.59031888  0.19041877  0.38257905  1
  N  N41  1  0.45392228  0.06652973  0.09809433  1
  N  N42  1  0.22343181  0.20516919  0.84013799  1
  N  N43  1  0.08515072  0.10723518  0.59905767  1
  N  N44  1  0.87576751  0.19235016  0.34457018  1
  N  N45  1  0.77926436  0.09584811  0.11288526  1
  N  N46  1  0.55272581  0.20523008  0.88359308  1
  N  N47  1  0.44260775  0.09181682  0.58339105  1
  N  N48  1  0.22220997  0.53899643  0.34085292  1
  N  N49  1  0.11130128  0.42793001  0.09089936  1
  N  N50  1  0.88859772  0.53999110  0.84015903  1
  N  N51  1  0.79068663  0.40169252  0.59904728  1
  N  N52  1  0.55978984  0.53979190  0.34053804  1
  N  N53  1  0.44316190  0.43421283  0.09367598  1
  N  N54  1  0.22237120  0.53890808  0.83851683  1
  N  N55  1  0.11131740  0.42783395  0.59042968  1
  N  N56  1  0.88781106  0.53630184  0.34201471  1
  N  N57  1  0.78029693  0.42502868  0.08886488  1
  N  N58  1  0.55549764  0.54158978  0.84118439  1
  N  N59  1  0.44296629  0.43187237  0.58827423  1
  N  N60  1  0.22315344  0.87635399  0.34056622  1
  N  N61  1  0.11749352  0.75984334  0.09348364  1
  N  N62  1  0.88856175  0.86939516  0.88320094  1
  N  N63  1  0.77530010  0.75908427  0.58359358  1
  N  N64  1  0.55582374  0.87232018  0.31642088  1
  N  N65  1  0.45670356  0.77335238  0.09727472  1
  N  N66  1  0.22500149  0.87212500  0.84117103  1
  N  N67  1  0.11537520  0.75945944  0.58848932  1
  N  N68  1  0.87379490  0.90694342  0.38281218  1
  N  N69  1  0.74990876  0.77056754  0.09794669  1
  N  N70  1  0.55467328  0.87135668  0.83417190  1
  N  N71  1  0.44498474  0.76151219  0.58615866  1
