# generated using pymatgen
data_Al11BN12
_symmetry_space_group_name_H-M   'P 1'
_cell_length_a   9.26165767
_cell_length_b   9.26731647
_cell_length_c   10.07402811
_cell_angle_alpha   89.85589591
_cell_angle_beta   89.59296586
_cell_angle_gamma   60.04679849
_symmetry_Int_Tables_number   1
_chemical_formula_structural   Al11BN12
_chemical_formula_sum   'Al33 B3 N36'
_cell_volume   749.15183838
_cell_formula_units_Z   3
loop_
 _symmetry_equiv_pos_site_id
 _symmetry_equiv_pos_as_xyz
  1  'x, y, z'
loop_
 _atom_site_type_symbol
 _atom_site_label
 _atom_site_symmetry_multiplicity
 _atom_site_fract_x
 _atom_site_fract_y
 _atom_site_fract_z
 _atom_site_occupancy
  Al  Al0  1  0.09164097  0.10642831  0.39634537  1
  Al  Al1  1  0.22109286  0.19637510  0.13487055  1
  Al  Al2  1  0.77909356  0.09169825  0.81570130  1
  Al  Al3  1  0.45624579  0.08518986  0.31753618  1
  Al  Al4  1  0.55648888  0.19838004  0.07225712  1
  Al  Al5  1  0.10932407  0.09968944  0.88716043  1
  Al  Al6  1  0.21887801  0.20196060  0.63890326  1
  Al  Al7  1  0.88942699  0.19749539  0.14381056  1
  Al  Al8  1  0.45465374  0.08845463  0.82730522  1
  Al  Al9  1  0.56876398  0.20389893  0.56328173  1
  Al  Al10  1  0.10717132  0.43492431  0.31882158  1
  Al  Al11  1  0.22218593  0.53862763  0.06822137  1
  Al  Al12  1  0.77788355  0.43183303  0.81470848  1
  Al  Al13  1  0.89037877  0.53620620  0.56861321  1
  Al  Al14  1  0.44869424  0.42477410  0.31786907  1
  Al  Al15  1  0.55807414  0.54043535  0.06809192  1
  Al  Al16  1  0.10878239  0.43525513  0.82042128  1
  Al  Al17  1  0.22351283  0.53847258  0.56748122  1
  Al  Al18  1  0.77147719  0.43042413  0.32329934  1
  Al  Al19  1  0.88181484  0.54161222  0.06797878  1
  Al  Al20  1  0.44720519  0.42580404  0.81826998  1
  Al  Al21  1  0.56045446  0.53466224  0.56911844  1
  Al  Al22  1  0.10675455  0.76980887  0.31907796  1
  Al  Al23  1  0.22922035  0.86555289  0.06782614  1
  Al  Al24  1  0.77664625  0.76384510  0.82425204  1
  Al  Al25  1  0.88779123  0.88333084  0.56412764  1
  Al  Al26  1  0.44297017  0.76702431  0.31638191  1
  Al  Al27  1  0.11112215  0.76221937  0.81804337  1
  Al  Al28  1  0.22319971  0.86986593  0.57469665  1
  Al  Al29  1  0.77103422  0.76881626  0.31409283  1
  Al  Al30  1  0.88218072  0.87269777  0.07248865  1
  Al  Al31  1  0.44826628  0.76143175  0.82482594  1
  Al  Al32  1  0.55889463  0.87187466  0.56979783  1
  B  B33  1  0.89555942  0.20268577  0.65106864  1
  B  B34  1  0.77383245  0.09144675  0.31242223  1
  B  B35  1  0.55581535  0.87158311  0.06759769  1
  N  N36  1  0.21916057  0.20169657  0.33224131  1
  N  N37  1  0.10227076  0.09873486  0.07585416  1
  N  N38  1  0.90006226  0.20149366  0.81501297  1
  N  N39  1  0.79004438  0.10540601  0.62738475  1
  N  N40  1  0.57925995  0.19288811  0.37026758  1
  N  N41  1  0.45867192  0.06531270  0.12198544  1
  N  N42  1  0.22397734  0.20374707  0.83386459  1
  N  N43  1  0.08262401  0.11129801  0.58833416  1
  N  N44  1  0.87497470  0.19259889  0.33292120  1
  N  N45  1  0.76955429  0.08591985  0.14715227  1
  N  N46  1  0.56109751  0.20466385  0.88362857  1
  N  N47  1  0.45648764  0.09135660  0.63069651  1
  N  N48  1  0.22191967  0.54108643  0.37846190  1
  N  N49  1  0.10577037  0.43367407  0.12678651  1
  N  N50  1  0.88780931  0.54015450  0.87958349  1
  N  N51  1  0.78782183  0.41020137  0.62402304  1
  N  N52  1  0.55049706  0.54395600  0.37977140  1
  N  N53  1  0.44459395  0.42653032  0.12880225  1
  N  N54  1  0.22423472  0.53971186  0.87938181  1
  N  N55  1  0.10913086  0.43369432  0.62837380  1
  N  N56  1  0.88532691  0.54339986  0.37874352  1
  N  N57  1  0.77528822  0.42949113  0.13054535  1
  N  N58  1  0.55875467  0.53649659  0.87918650  1
  N  N59  1  0.44641801  0.42563223  0.62766851  1
  N  N60  1  0.22346634  0.87195172  0.38247886  1
  N  N61  1  0.10998875  0.76185673  0.13023727  1
  N  N62  1  0.88939232  0.87436645  0.88319685  1
  N  N63  1  0.77996374  0.76345195  0.63193430  1
  N  N64  1  0.55569040  0.87081780  0.38368613  1
  N  N65  1  0.45564519  0.77279907  0.12336625  1
  N  N66  1  0.22671560  0.86557846  0.87761757  1
  N  N67  1  0.10918182  0.76160999  0.62862402  1
  N  N68  1  0.87401967  0.89709645  0.37046478  1
  N  N69  1  0.75189560  0.77127235  0.12236524  1
  N  N70  1  0.55738021  0.87074788  0.90159678  1
  N  N71  1  0.44839575  0.76097504  0.63451679  1
