# generated using pymatgen
data_Al11BN12
_symmetry_space_group_name_H-M   'P 1'
_cell_length_a   9.27982231
_cell_length_b   9.27724322
_cell_length_c   10.03401633
_cell_angle_alpha   89.86377518
_cell_angle_beta   89.63540928
_cell_angle_gamma   60.11394242
_symmetry_Int_Tables_number   1
_chemical_formula_structural   Al11BN12
_chemical_formula_sum   'Al33 B3 N36'
_cell_volume   748.94954124
_cell_formula_units_Z   3
loop_
 _symmetry_equiv_pos_site_id
 _symmetry_equiv_pos_as_xyz
  1  'x, y, z'
loop_
 _atom_site_type_symbol
 _atom_site_label
 _atom_site_symmetry_multiplicity
 _atom_site_fract_x
 _atom_site_fract_y
 _atom_site_fract_z
 _atom_site_occupancy
  Al  Al0  1  0.09722687  0.10198154  0.39505846  1
  Al  Al1  1  0.22152670  0.19621188  0.13463398  1
  Al  Al2  1  0.77904377  0.09361211  0.81571613  1
  Al  Al3  1  0.45755203  0.08391786  0.31779493  1
  Al  Al4  1  0.55772076  0.19860650  0.07398401  1
  Al  Al5  1  0.10783787  0.10101414  0.88886690  1
  Al  Al6  1  0.21890142  0.20163305  0.63983691  1
  Al  Al7  1  0.88673878  0.20317946  0.14601838  1
  Al  Al8  1  0.45431840  0.08944001  0.82927312  1
  Al  Al9  1  0.56826308  0.20373634  0.56443399  1
  Al  Al10  1  0.10764694  0.43353214  0.32003976  1
  Al  Al11  1  0.22168293  0.53871100  0.06998399  1
  Al  Al12  1  0.77765389  0.43105120  0.83126985  1
  Al  Al13  1  0.89160079  0.53879115  0.57397690  1
  Al  Al14  1  0.44937340  0.42394178  0.31892715  1
  Al  Al15  1  0.55683212  0.54067410  0.06844539  1
  Al  Al16  1  0.10955218  0.43544329  0.82174319  1
  Al  Al17  1  0.22301329  0.53848635  0.56821793  1
  Al  Al18  1  0.77707916  0.41913387  0.36337002  1
  Al  Al19  1  0.88191003  0.54147837  0.06868789  1
  Al  Al20  1  0.44500163  0.42629046  0.81965766  1
  Al  Al21  1  0.55511993  0.53757994  0.57559932  1
  Al  Al22  1  0.10742477  0.76832109  0.31994293  1
  Al  Al23  1  0.22857344  0.86628885  0.06970725  1
  Al  Al24  1  0.77594707  0.76677151  0.82525590  1
  Al  Al25  1  0.88763244  0.88407477  0.56454468  1
  Al  Al26  1  0.44575488  0.76396837  0.31708990  1
  Al  Al27  1  0.11034526  0.76315540  0.81958571  1
  Al  Al28  1  0.22244936  0.87021246  0.57576251  1
  Al  Al29  1  0.77160380  0.76647626  0.31493355  1
  Al  Al30  1  0.88224301  0.87369182  0.07420426  1
  Al  Al31  1  0.44593724  0.76450963  0.82591179  1
  Al  Al32  1  0.55838116  0.87277961  0.57070323  1
  B  B33  1  0.89481161  0.20483040  0.64914419  1
  B  B34  1  0.77453022  0.08903124  0.31267337  1
  B  B35  1  0.55622632  0.87140485  0.06813814  1
  N  N36  1  0.22127997  0.20055634  0.33305491  1
  N  N37  1  0.10161454  0.09845506  0.07861322  1
  N  N38  1  0.89990399  0.20431593  0.81242671  1
  N  N39  1  0.78980286  0.10584849  0.62701538  1
  N  N40  1  0.58026565  0.19184488  0.37107292  1
  N  N41  1  0.45931521  0.06523493  0.12216378  1
  N  N42  1  0.22387735  0.20416984  0.83620325  1
  N  N43  1  0.08366933  0.11068624  0.58788406  1
  N  N44  1  0.87791244  0.18983527  0.33560135  1
  N  N45  1  0.77043286  0.08631934  0.14944510  1
  N  N46  1  0.56169277  0.20540403  0.88456331  1
  N  N47  1  0.45588558  0.09173138  0.63194974  1
  N  N48  1  0.22248365  0.53992271  0.37896483  1
  N  N49  1  0.10561312  0.43338846  0.12772596  1
  N  N50  1  0.88886776  0.54375828  0.87780918  1
  N  N51  1  0.78876811  0.40698818  0.61290310  1
  N  N52  1  0.54951886  0.54302717  0.38375471  1
  N  N53  1  0.44383635  0.42670642  0.12977669  1
  N  N54  1  0.22333552  0.54082208  0.88077233  1
  N  N55  1  0.11030127  0.43297270  0.62988141  1
  N  N56  1  0.88725308  0.54273696  0.38218193  1
  N  N57  1  0.77693388  0.42438253  0.11007716  1
  N  N58  1  0.55340317  0.54009997  0.87683241  1
  N  N59  1  0.44458106  0.42495400  0.62928797  1
  N  N60  1  0.22583364  0.86901691  0.38257638  1
  N  N61  1  0.10990582  0.76164630  0.13089631  1
  N  N62  1  0.88878777  0.87711460  0.88417068  1
  N  N63  1  0.77892875  0.76579791  0.63297155  1
  N  N64  1  0.55660025  0.86966434  0.38424084  1
  N  N65  1  0.45572716  0.77247391  0.12393721  1
  N  N66  1  0.22498188  0.86768518  0.87838558  1
  N  N67  1  0.10874997  0.76159007  0.62922449  1
  N  N68  1  0.87472108  0.89551573  0.37082577  1
  N  N69  1  0.75226272  0.77112067  0.12302036  1
  N  N70  1  0.55728682  0.87135625  0.90235792  1
  N  N71  1  0.44667792  0.76352087  0.63565972  1
