# generated using pymatgen
data_Al11BN12
_symmetry_space_group_name_H-M   'P 1'
_cell_length_a   9.25627904
_cell_length_b   9.25632501
_cell_length_c   9.89191586
_cell_angle_alpha   90.05800533
_cell_angle_beta   90.05337962
_cell_angle_gamma   60.01624641
_symmetry_Int_Tables_number   1
_chemical_formula_structural   Al11BN12
_chemical_formula_sum   'Al33 B3 N36'
_cell_volume   734.10279702
_cell_formula_units_Z   3
loop_
 _symmetry_equiv_pos_site_id
 _symmetry_equiv_pos_as_xyz
  1  'x, y, z'
loop_
 _atom_site_type_symbol
 _atom_site_label
 _atom_site_symmetry_multiplicity
 _atom_site_fract_x
 _atom_site_fract_y
 _atom_site_fract_z
 _atom_site_occupancy
  Al  Al0  1  0.10186150  0.09575227  0.40321502  1
  Al  Al1  1  0.22474388  0.20014390  0.14883403  1
  Al  Al2  1  0.77851499  0.09512740  0.89026122  1
  Al  Al3  1  0.45090499  0.09093007  0.39257681  1
  Al  Al4  1  0.56404043  0.19772519  0.15301957  1
  Al  Al5  1  0.10707339  0.09621244  0.89202359  1
  Al  Al6  1  0.21936176  0.20601629  0.64831461  1
  Al  Al7  1  0.88632558  0.20293728  0.15070812  1
  Al  Al8  1  0.44798557  0.09033593  0.90261431  1
  Al  Al9  1  0.56151099  0.20472900  0.64154967  1
  Al  Al10  1  0.11093876  0.42755396  0.39923938  1
  Al  Al11  1  0.22227531  0.53888840  0.14959404  1
  Al  Al12  1  0.77959959  0.42368577  0.89201904  1
  Al  Al13  1  0.88940746  0.53597098  0.64832093  1
  Al  Al14  1  0.45012259  0.42451792  0.39867958  1
  Al  Al15  1  0.55910456  0.54152345  0.14849418  1
  Al  Al16  1  0.11123871  0.42784749  0.89920497  1
  Al  Al17  1  0.22271399  0.53932502  0.64904719  1
  Al  Al18  1  0.77913832  0.41847667  0.40321469  1
  Al  Al19  1  0.88353467  0.54135073  0.14883181  1
  Al  Al20  1  0.44547843  0.42602560  0.89883312  1
  Al  Al21  1  0.55871141  0.53556897  0.64893939  1
  Al  Al22  1  0.10790203  0.76673596  0.39868278  1
  Al  Al23  1  0.22491169  0.87571592  0.14849870  1
  Al  Al24  1  0.77372048  0.76459968  0.90261864  1
  Al  Al25  1  0.88811846  0.87811801  0.64155520  1
  Al  Al26  1  0.44630926  0.76292557  0.39278303  1
  Al  Al27  1  0.10940873  0.76209293  0.89884074  1
  Al  Al28  1  0.21895596  0.87532142  0.64894176  1
  Al  Al29  1  0.77431297  0.76751739  0.39258284  1
  Al  Al30  1  0.88110567  0.88065727  0.15302833  1
  Al  Al31  1  0.44733592  0.76395165  0.90295918  1
  Al  Al32  1  0.55596216  0.87257367  0.64797391  1
  B  B33  1  0.88930437  0.20590638  0.64611039  1
  B  B34  1  0.78238050  0.09898792  0.40373472  1
  B  B35  1  0.55613755  0.87273936  0.15355849  1
  N  N36  1  0.22077002  0.20376199  0.34106174  1
  N  N37  1  0.10667785  0.09686588  0.08573145  1
  N  N38  1  0.88742563  0.20403232  0.81334151  1
  N  N39  1  0.78997816  0.10658079  0.57636574  1
  N  N40  1  0.58321855  0.19299106  0.34829610  1
  N  N41  1  0.45784684  0.07116523  0.09913084  1
  N  N42  1  0.22456064  0.20444863  0.84095945  1
  N  N43  1  0.08651807  0.10717789  0.59646306  1
  N  N44  1  0.87627114  0.19287904  0.34314367  1
  N  N45  1  0.77876692  0.09536983  0.08065892  1
  N  N46  1  0.55511147  0.20427974  0.83549154  1
  N  N47  1  0.44470507  0.09312428  0.58465341  1
  N  N48  1  0.22270539  0.53931527  0.34063983  1
  N  N49  1  0.11071729  0.42731884  0.09097255  1
  N  N50  1  0.88784353  0.54116833  0.84096544  1
  N  N51  1  0.79057578  0.40312338  0.59646337  1
  N  N52  1  0.55844735  0.53823179  0.33996839  1
  N  N53  1  0.44660683  0.42508322  0.09228140  1
  N  N54  1  0.22252106  0.53913132  0.84089786  1
  N  N55  1  0.11147891  0.42808235  0.59025401  1
  N  N56  1  0.88715228  0.53738015  0.34106007  1
  N  N57  1  0.78026271  0.42327896  0.08572636  1
  N  N58  1  0.55415062  0.54105951  0.84126011  1
  N  N59  1  0.44442656  0.42863524  0.58917608  1
  N  N60  1  0.22162130  0.87505483  0.33997166  1
  N  N61  1  0.10847119  0.76321519  0.09228952  1
  N  N62  1  0.88767194  0.87171719  0.83549530  1
  N  N63  1  0.77652302  0.76130478  0.58465812  1
  N  N64  1  0.55586907  0.87247908  0.31784631  1
  N  N65  1  0.45728433  0.77388967  0.09731839  1
  N  N66  1  0.22444767  0.87075888  0.84126285  1
  N  N67  1  0.11202986  0.76102979  0.58917787  1
  N  N68  1  0.87637579  0.89983159  0.34830403  1
  N  N69  1  0.75455706  0.77445190  0.09913420  1
  N  N70  1  0.55598056  0.87258745  0.83701400  1
  N  N71  1  0.44524049  0.76184732  0.58599234  1
