# generated using pymatgen
data_Al11BN12
_symmetry_space_group_name_H-M   'P 1'
_cell_length_a   9.27737047
_cell_length_b   9.27749005
_cell_length_c   10.03032544
_cell_angle_alpha   89.41086551
_cell_angle_beta   89.40949621
_cell_angle_gamma   59.97140260
_symmetry_Int_Tables_number   1
_chemical_formula_structural   Al11BN12
_chemical_formula_sum   'Al33 B3 N36'
_cell_volume   747.38634107
_cell_formula_units_Z   3
loop_
 _symmetry_equiv_pos_site_id
 _symmetry_equiv_pos_as_xyz
  1  'x, y, z'
loop_
 _atom_site_type_symbol
 _atom_site_label
 _atom_site_symmetry_multiplicity
 _atom_site_fract_x
 _atom_site_fract_y
 _atom_site_fract_z
 _atom_site_occupancy
  Al  Al0  1  0.09898232  0.09611798  0.40677351  1
  Al  Al1  1  0.22373482  0.19994984  0.15141343  1
  Al  Al2  1  0.77722996  0.09390216  0.82886828  1
  Al  Al3  1  0.44924504  0.08943524  0.38765527  1
  Al  Al4  1  0.56075377  0.19785709  0.09028774  1
  Al  Al5  1  0.10961024  0.09603432  0.89710084  1
  Al  Al6  1  0.21973116  0.20581658  0.64951228  1
  Al  Al7  1  0.88940209  0.20602052  0.15490411  1
  Al  Al8  1  0.44407881  0.08610946  0.90253033  1
  Al  Al9  1  0.57158461  0.20077936  0.57825956  1
  Al  Al10  1  0.11035715  0.42697461  0.40128346  1
  Al  Al11  1  0.22196190  0.53863803  0.15228563  1
  Al  Al12  1  0.77942636  0.42621613  0.89711076  1
  Al  Al13  1  0.88925023  0.53627936  0.64952864  1
  Al  Al14  1  0.44817670  0.42973143  0.39444223  1
  Al  Al15  1  0.55889725  0.54278539  0.15123541  1
  Al  Al16  1  0.11143219  0.42802046  0.89990991  1
  Al  Al17  1  0.22235434  0.53889373  0.64891687  1
  Al  Al18  1  0.77951236  0.41559924  0.40676843  1
  Al  Al19  1  0.88332127  0.54038132  0.15141127  1
  Al  Al20  1  0.44231340  0.43355480  0.90117342  1
  Al  Al21  1  0.55862984  0.53471591  0.65050312  1
  Al  Al22  1  0.11308676  0.76481493  0.39451763  1
  Al  Al23  1  0.22614009  0.87551340  0.15122903  1
  Al  Al24  1  0.76949507  0.76067949  0.90247389  1
  Al  Al25  1  0.88419134  0.88815359  0.57840216  1
  Al  Al26  1  0.44677289  0.76338006  0.39524348  1
  Al  Al27  1  0.11694479  0.75891848  0.90110282  1
  Al  Al28  1  0.21814227  0.87522426  0.65050936  1
  Al  Al29  1  0.77284111  0.76586362  0.38772723  1
  Al  Al30  1  0.88122210  0.87738359  0.09018599  1
  Al  Al31  1  0.44683540  0.76344922  0.90391123  1
  Al  Al32  1  0.55569074  0.87229281  0.64682760  1
  B  B33  1  0.89269771  0.20930238  0.66033829  1
  B  B34  1  0.77616955  0.09275247  0.32491594  1
  B  B35  1  0.55437937  0.87098385  0.15275876  1
  N  N36  1  0.21894136  0.20436359  0.34159668  1
  N  N37  1  0.10718328  0.09616216  0.08703317  1
  N  N38  1  0.89517864  0.21178917  0.82397808  1
  N  N39  1  0.78904744  0.10569032  0.64176918  1
  N  N40  1  0.58686337  0.19164641  0.37997360  1
  N  N41  1  0.45303736  0.06620842  0.09853784  1
  N  N42  1  0.22502516  0.20531374  0.84010951  1
  N  N43  1  0.08534059  0.10757247  0.59964790  1
  N  N44  1  0.87857781  0.19519059  0.34320960  1
  N  N45  1  0.77380644  0.09037893  0.15581989  1
  N  N46  1  0.56013705  0.20231540  0.89247391  1
  N  N47  1  0.44296267  0.09193524  0.58286386  1
  N  N48  1  0.22199971  0.53866851  0.34059686  1
  N  N49  1  0.11101507  0.42763460  0.09061014  1
  N  N50  1  0.88872511  0.54160434  0.84011454  1
  N  N51  1  0.79098777  0.40192576  0.59964559  1
  N  N52  1  0.55993386  0.53989187  0.34048597  1
  N  N53  1  0.44320120  0.43417556  0.09461995  1
  N  N54  1  0.22274785  0.53931849  0.83891615  1
  N  N55  1  0.11141565  0.42798261  0.59040375  1
  N  N56  1  0.88774405  0.53557822  0.34160332  1
  N  N57  1  0.77954749  0.42380344  0.08704107  1
  N  N58  1  0.55534538  0.54165509  0.84093905  1
  N  N59  1  0.44334873  0.43134962  0.58789913  1
  N  N60  1  0.22326958  0.87653247  0.34049256  1
  N  N61  1  0.11752813  0.75983860  0.09455154  1
  N  N62  1  0.88569467  0.87674801  0.89236284  1
  N  N63  1  0.77536615  0.75951962  0.58293118  1
  N  N64  1  0.55542354  0.87199484  0.31602508  1
  N  N65  1  0.45655429  0.77318231  0.09684240  1
  N  N66  1  0.22505570  0.87195769  0.84093228  1
  N  N67  1  0.11476957  0.75992201  0.58796946  1
  N  N68  1  0.87501160  0.90350915  0.38008009  1
  N  N69  1  0.74958794  0.76966247  0.09848361  1
  N  N70  1  0.55533282  0.87196796  0.83418221  1
  N  N71  1  0.44504934  0.76162975  0.58644801  1
