# generated using pymatgen
data_Al11BN12
_symmetry_space_group_name_H-M   'P 1'
_cell_length_a   9.25677413
_cell_length_b   9.25677350
_cell_length_c   9.88913922
_cell_angle_alpha   90.07593546
_cell_angle_beta   90.07593404
_cell_angle_gamma   60.02533105
_symmetry_Int_Tables_number   1
_chemical_formula_structural   Al11BN12
_chemical_formula_sum   'Al33 B3 N36'
_cell_volume   734.03829212
_cell_formula_units_Z   3
loop_
 _symmetry_equiv_pos_site_id
 _symmetry_equiv_pos_as_xyz
  1  'x, y, z'
loop_
 _atom_site_type_symbol
 _atom_site_label
 _atom_site_symmetry_multiplicity
 _atom_site_fract_x
 _atom_site_fract_y
 _atom_site_fract_z
 _atom_site_occupancy
  Al  Al0  1  0.10515829  0.09433429  0.30379753  1
  Al  Al1  1  0.22514482  0.19933738  0.04687834  1
  Al  Al2  1  0.78046851  0.09713666  0.79439015  1
  Al  Al3  1  0.45185832  0.08779535  0.29248707  1
  Al  Al4  1  0.56139981  0.19888601  0.05305681  1
  Al  Al5  1  0.10417792  0.09752852  0.79200169  1
  Al  Al6  1  0.21891664  0.20593089  0.54672166  1
  Al  Al7  1  0.88805985  0.20472864  0.05458330  1
  Al  Al8  1  0.44684036  0.09222575  0.80355851  1
  Al  Al9  1  0.56416052  0.20333537  0.54281002  1
  Al  Al10  1  0.11118043  0.42784782  0.29540678  1
  Al  Al11  1  0.22245248  0.53912114  0.04605967  1
  Al  Al12  1  0.78085974  0.42084672  0.79200156  1
  Al  Al13  1  0.88926102  0.53558631  0.54672178  1
  Al  Al14  1  0.44958878  0.42428017  0.29628724  1
  Al  Al15  1  0.55907139  0.54142368  0.04647138  1
  Al  Al16  1  0.11067900  0.42734709  0.79694473  1
  Al  Al17  1  0.22190316  0.53857245  0.54620875  1
  Al  Al18  1  0.77766544  0.42182722  0.30379767  1
  Al  Al19  1  0.88266936  0.54181244  0.04687823  1
  Al  Al20  1  0.44590330  0.42574806  0.79695279  1
  Al  Al21  1  0.55795188  0.53563078  0.54678425  1
  Al  Al22  1  0.10761112  0.76625716  0.29628708  1
  Al  Al23  1  0.22475502  0.87574035  0.04647162  1
  Al  Al24  1  0.77555661  0.76350910  0.80355887  1
  Al  Al25  1  0.88666676  0.88082886  0.54281002  1
  Al  Al26  1  0.44699132  0.76366071  0.29221754  1
  Al  Al27  1  0.10907890  0.76257249  0.79695304  1
  Al  Al28  1  0.21896044  0.87462227  0.54678408  1
  Al  Al29  1  0.77112756  0.76852577  0.29248690  1
  Al  Al30  1  0.88221703  0.87806831  0.05305698  1
  Al  Al31  1  0.44580716  0.76247715  0.80323225  1
  Al  Al32  1  0.55576717  0.87243599  0.54811554  1
  B  B33  1  0.88420254  0.20087185  0.54028458  1
  B  B34  1  0.77702784  0.09369665  0.29888346  1
  B  B35  1  0.55574234  0.87241089  0.04263969  1
  N  N36  1  0.22566175  0.20442401  0.35440930  1
  N  N37  1  0.10987975  0.09510659  0.11184634  1
  N  N38  1  0.88829135  0.20496018  0.86357932  1
  N  N39  1  0.79039849  0.10706706  0.60182420  1
  N  N40  1  0.57963283  0.19183968  0.34819418  1
  N  N41  1  0.45732985  0.06934750  0.09830552  1
  N  N42  1  0.22090467  0.20372343  0.85420596  1
  N  N43  1  0.08467065  0.10681011  0.59562933  1
  N  N44  1  0.87673446  0.19340334  0.36981506  1
  N  N45  1  0.77946817  0.09613674  0.13241470  1
  N  N46  1  0.56015497  0.20355293  0.85961914  1
  N  N47  1  0.44643797  0.09458986  0.60904193  1
  N  N48  1  0.22263855  0.53930704  0.35444814  1
  N  N49  1  0.11065389  0.42732195  0.10369621  1
  N  N50  1  0.88705510  0.53757301  0.85420584  1
  N  N51  1  0.79014016  0.40134032  0.59562922  1
  N  N52  1  0.55346203  0.54207933  0.35539596  1
  N  N53  1  0.44559611  0.42770872  0.10501171  1
  N  N54  1  0.22241577  0.53908476  0.85473560  1
  N  N55  1  0.11094744  0.42761707  0.60575883  1
  N  N56  1  0.88775616  0.54232966  0.35440935  1
  N  N57  1  0.77843762  0.42654845  0.11184636  1
  N  N58  1  0.55849797  0.53690136  0.85416753  1
  N  N59  1  0.44520366  0.42535145  0.60420534  1
  N  N60  1  0.22540992  0.87013101  0.35539588  1
  N  N61  1  0.11103989  0.76226485  0.10501161  1
  N  N62  1  0.88688400  0.87682353  0.85961938  1
  N  N63  1  0.77792066  0.76310714  0.60904226  1
  N  N64  1  0.55532561  0.87199349  0.35963373  1
  N  N65  1  0.45689924  0.77356800  0.09736570  1
  N  N66  1  0.22023192  0.87516716  0.85416790  1
  N  N67  1  0.10868245  0.76187286  0.60420551  1
  N  N68  1  0.87517082  0.89630135  0.34819421  1
  N  N69  1  0.75267921  0.77399775  0.09830534  1
  N  N70  1  0.55569932  0.87236838  0.87700892  1
  N  N71  1  0.44507765  0.76174785  0.61035823  1
