# generated using pymatgen
data_Al11BN12
_symmetry_space_group_name_H-M   'P 1'
_cell_length_a   9.27209673
_cell_length_b   9.27208059
_cell_length_c   10.16260140
_cell_angle_alpha   89.89026556
_cell_angle_beta   89.89330207
_cell_angle_gamma   60.17339331
_symmetry_Int_Tables_number   1
_chemical_formula_structural   Al11BN12
_chemical_formula_sum   'Al33 B3 N36'
_cell_volume   757.95915370
_cell_formula_units_Z   3
loop_
 _symmetry_equiv_pos_site_id
 _symmetry_equiv_pos_as_xyz
  1  'x, y, z'
loop_
 _atom_site_type_symbol
 _atom_site_label
 _atom_site_symmetry_multiplicity
 _atom_site_fract_x
 _atom_site_fract_y
 _atom_site_fract_z
 _atom_site_occupancy
  Al  Al0  1  0.09929374  0.09553868  0.39539099  1
  Al  Al1  1  0.21817732  0.20052287  0.13781989  1
  Al  Al2  1  0.77946930  0.09601882  0.81333127  1
  Al  Al3  1  0.45500865  0.08354876  0.31771396  1
  Al  Al4  1  0.55719565  0.19604731  0.07154727  1
  Al  Al5  1  0.11041071  0.09757009  0.88676246  1
  Al  Al6  1  0.21404570  0.21016124  0.64005524  1
  Al  Al7  1  0.88647469  0.20301083  0.14415615  1
  Al  Al8  1  0.45305221  0.09219512  0.82067024  1
  Al  Al9  1  0.56890631  0.20560988  0.56191322  1
  Al  Al10  1  0.10988350  0.42645615  0.38960101  1
  Al  Al11  1  0.21857584  0.53510664  0.13594805  1
  Al  Al12  1  0.78102443  0.42693689  0.88676928  1
  Al  Al13  1  0.89360004  0.53061353  0.64011381  1
  Al  Al14  1  0.45363913  0.41565429  0.31977686  1
  Al  Al15  1  0.56122372  0.54484403  0.13859586  1
  Al  Al16  1  0.11138030  0.42788572  0.89154594  1
  Al  Al17  1  0.22052973  0.53707721  0.63431040  1
  Al  Al18  1  0.77900309  0.41585953  0.39537805  1
  Al  Al19  1  0.88400273  0.53470642  0.13775409  1
  Al  Al20  1  0.44980481  0.42155040  0.82456471  1
  Al  Al21  1  0.56439058  0.53819793  0.64200755  1
  Al  Al22  1  0.09911765  0.77016709  0.31978594  1
  Al  Al23  1  0.22830500  0.87776062  0.13860420  1
  Al  Al24  1  0.77563534  0.76960804  0.82073359  1
  Al  Al25  1  0.88904899  0.88544344  0.56191241  1
  Al  Al26  1  0.44005413  0.75659009  0.39325033  1
  Al  Al27  1  0.10499798  0.76635267  0.82454608  1
  Al  Al28  1  0.22165262  0.88093665  0.64200184  1
  Al  Al29  1  0.76700498  0.77154975  0.31763379  1
  Al  Al30  1  0.87952074  0.87375663  0.07153952  1
  Al  Al31  1  0.44623392  0.76278938  0.89471438  1
  Al  Al32  1  0.56034866  0.87686823  0.57091806  1
  B  B33  1  0.89208360  0.20862647  0.64661742  1
  B  B34  1  0.77420334  0.09074638  0.31063972  1
  B  B35  1  0.55751621  0.87408501  0.07123575  1
  N  N36  1  0.21700121  0.20461352  0.32926796  1
  N  N37  1  0.10363211  0.09577494  0.07431085  1
  N  N38  1  0.89640686  0.21295051  0.80979719  1
  N  N39  1  0.79026493  0.10680352  0.62678305  1
  N  N40  1  0.58188557  0.18945184  0.37109088  1
  N  N41  1  0.45742956  0.06390801  0.12453379  1
  N  N42  1  0.22038879  0.20914648  0.82957657  1
  N  N43  1  0.08625098  0.10838433  0.58585948  1
  N  N44  1  0.87711506  0.19366987  0.33077245  1
  N  N45  1  0.76967343  0.08621776  0.14886380  1
  N  N46  1  0.56321324  0.20319387  0.88475048  1
  N  N47  1  0.45203965  0.09648620  0.62858796  1
  N  N48  1  0.22010687  0.53662954  0.33348696  1
  N  N49  1  0.10849361  0.42498919  0.07849128  1
  N  N50  1  0.89260080  0.53693545  0.82963697  1
  N  N51  1  0.79183530  0.40281911  0.58586157  1
  N  N52  1  0.56127749  0.53996615  0.33016322  1
  N  N53  1  0.44883102  0.42006434  0.12522837  1
  N  N54  1  0.22055809  0.53710525  0.83358622  1
  N  N55  1  0.11089636  0.42749295  0.57563239  1
  N  N56  1  0.88807429  0.53354509  0.32920063  1
  N  N57  1  0.77922884  0.42016347  0.07430530  1
  N  N58  1  0.55982352  0.54439762  0.83195309  1
  N  N59  1  0.45073855  0.42094480  0.62591674  1
  N  N60  1  0.22341723  0.87782255  0.33017224  1
  N  N61  1  0.10353001  0.76536503  0.12523794  1
  N  N62  1  0.88666087  0.87976568  0.88475386  1
  N  N63  1  0.77993403  0.76860202  0.62865514  1
  N  N64  1  0.55665424  0.87314729  0.38585914  1
  N  N65  1  0.45513483  0.77168353  0.08419848  1
  N  N66  1  0.22784310  0.87637230  0.83194647  1
  N  N67  1  0.10440131  0.76728483  0.62589954  1
  N  N68  1  0.87290728  0.89841259  0.37108102  1
  N  N69  1  0.74737466  0.77397401  0.12447257  1
  N  N70  1  0.56201759  0.87860330  0.89161866  1
  N  N71  1  0.44241708  0.75896611  0.58250771  1
