# generated using pymatgen
data_Al11BN12
_symmetry_space_group_name_H-M   'P 1'
_cell_length_a   9.26491279
_cell_length_b   9.26437433
_cell_length_c   10.02735205
_cell_angle_alpha   89.86031446
_cell_angle_beta   89.54920976
_cell_angle_gamma   60.13275950
_symmetry_Int_Tables_number   1
_chemical_formula_structural   Al11BN12
_chemical_formula_sum   'Al33 B3 N36'
_cell_volume   746.34509787
_cell_formula_units_Z   3
loop_
 _symmetry_equiv_pos_site_id
 _symmetry_equiv_pos_as_xyz
  1  'x, y, z'
loop_
 _atom_site_type_symbol
 _atom_site_label
 _atom_site_symmetry_multiplicity
 _atom_site_fract_x
 _atom_site_fract_y
 _atom_site_fract_z
 _atom_site_occupancy
  Al  Al0  1  0.09440261  0.10309026  0.37455203  1
  Al  Al1  1  0.22500996  0.19615737  0.13077805  1
  Al  Al2  1  0.78094222  0.09714228  0.81356115  1
  Al  Al3  1  0.46003638  0.08443910  0.31072540  1
  Al  Al4  1  0.55769650  0.19791815  0.06396042  1
  Al  Al5  1  0.10962386  0.09911245  0.88718660  1
  Al  Al6  1  0.21641226  0.20284566  0.62686024  1
  Al  Al7  1  0.88134385  0.20573017  0.08522175  1
  Al  Al8  1  0.45137417  0.08893026  0.81845995  1
  Al  Al9  1  0.56720515  0.20488496  0.55528298  1
  Al  Al10  1  0.10750270  0.43504611  0.31217099  1
  Al  Al11  1  0.22214543  0.53801749  0.06012993  1
  Al  Al12  1  0.78064737  0.42132100  0.81423386  1
  Al  Al13  1  0.89085396  0.53542758  0.56040776  1
  Al  Al14  1  0.44995938  0.42442681  0.30990282  1
  Al  Al15  1  0.55733134  0.54205710  0.05869417  1
  Al  Al16  1  0.10705151  0.43517356  0.81148704  1
  Al  Al17  1  0.22352261  0.53886295  0.55889767  1
  Al  Al18  1  0.77488091  0.42347316  0.30987275  1
  Al  Al19  1  0.88203655  0.54329910  0.05949667  1
  Al  Al20  1  0.44526543  0.42609091  0.81052291  1
  Al  Al21  1  0.56014243  0.53388397  0.56130737  1
  Al  Al22  1  0.10689155  0.76903136  0.31009597  1
  Al  Al23  1  0.23162178  0.86380966  0.06328269  1
  Al  Al24  1  0.77511309  0.76416399  0.81633092  1
  Al  Al25  1  0.88899299  0.88217125  0.55582942  1
  Al  Al26  1  0.44709364  0.76403941  0.30793890  1
  Al  Al27  1  0.10982301  0.76281967  0.81056520  1
  Al  Al28  1  0.22247775  0.86969933  0.56316662  1
  Al  Al29  1  0.77299570  0.76746742  0.30627592  1
  Al  Al30  1  0.88208860  0.87500243  0.06454455  1
  Al  Al31  1  0.44633994  0.76239331  0.81660662  1
  Al  Al32  1  0.55887054  0.87164236  0.56110718  1
  B  B33  1  0.88858056  0.20619708  0.59247575  1
  B  B34  1  0.77810289  0.09660426  0.30202669  1
  B  B35  1  0.55644000  0.87178610  0.05942752  1
  N  N36  1  0.22362049  0.20242972  0.32788005  1
  N  N37  1  0.11317006  0.09253966  0.07964672  1
  N  N38  1  0.87961057  0.20903963  0.88441780  1
  N  N39  1  0.79469984  0.11018485  0.62009765  1
  N  N40  1  0.58000420  0.19364572  0.36290346  1
  N  N41  1  0.46134791  0.06485208  0.11472108  1
  N  N42  1  0.21908398  0.20314858  0.82235636  1
  N  N43  1  0.07869942  0.11251359  0.57507112  1
  N  N44  1  0.87139045  0.19357631  0.33560364  1
  N  N45  1  0.77215591  0.08973763  0.13919469  1
  N  N46  1  0.55766293  0.20451505  0.87343000  1
  N  N47  1  0.45523474  0.09144426  0.62149867  1
  N  N48  1  0.22285105  0.54132663  0.36985274  1
  N  N49  1  0.10595952  0.43298171  0.11901301  1
  N  N50  1  0.88611494  0.53980675  0.86940753  1
  N  N51  1  0.79386794  0.39822295  0.61782321  1
  N  N52  1  0.55398594  0.54183722  0.37205143  1
  N  N53  1  0.44492270  0.42679783  0.11982722  1
  N  N54  1  0.22240911  0.53967041  0.87055620  1
  N  N55  1  0.10883899  0.43402048  0.61887853  1
  N  N56  1  0.88521982  0.54083422  0.37077025  1
  N  N57  1  0.77359695  0.43354590  0.12161920  1
  N  N58  1  0.55631304  0.53810704  0.86857635  1
  N  N59  1  0.44586473  0.42565856  0.61941763  1
  N  N60  1  0.22630846  0.86959031  0.37151602  1
  N  N61  1  0.11000709  0.76078539  0.12116302  1
  N  N62  1  0.88758167  0.87519568  0.87311880  1
  N  N63  1  0.77943810  0.76312378  0.62336480  1
  N  N64  1  0.55762284  0.86971496  0.37518209  1
  N  N65  1  0.45817719  0.77147416  0.11507753  1
  N  N66  1  0.22471701  0.86679750  0.87049123  1
  N  N67  1  0.10934579  0.76190291  0.62012061  1
  N  N68  1  0.87583546  0.89602516  0.36276398  1
  N  N69  1  0.75298870  0.77238325  0.11361759  1
  N  N70  1  0.55578895  0.87152173  0.89299908  1
  N  N71  1  0.44744501  0.76130172  0.62531500  1
