# generated using pymatgen
data_Al11BN12
_symmetry_space_group_name_H-M   'P 1'
_cell_length_a   9.26398783
_cell_length_b   9.26491479
_cell_length_c   9.94302887
_cell_angle_alpha   89.83309178
_cell_angle_beta   89.67655664
_cell_angle_gamma   60.00776062
_symmetry_Int_Tables_number   1
_chemical_formula_structural   Al11BN12
_chemical_formula_sum   'Al33 B3 N36'
_cell_volume   739.12139132
_cell_formula_units_Z   3
loop_
 _symmetry_equiv_pos_site_id
 _symmetry_equiv_pos_as_xyz
  1  'x, y, z'
loop_
 _atom_site_type_symbol
 _atom_site_label
 _atom_site_symmetry_multiplicity
 _atom_site_fract_x
 _atom_site_fract_y
 _atom_site_fract_z
 _atom_site_occupancy
  Al  Al0  1  0.10233428  0.09452150  0.31621714  1
  Al  Al1  1  0.22824804  0.20076998  0.06580966  1
  Al  Al2  1  0.78034794  0.09686672  0.81482779  1
  Al  Al3  1  0.45247174  0.08784284  0.30817874  1
  Al  Al4  1  0.55869369  0.19824660  0.06485350  1
  Al  Al5  1  0.10571373  0.09715623  0.83983715  1
  Al  Al6  1  0.21804702  0.20686809  0.56185542  1
  Al  Al7  1  0.88396232  0.20485086  0.08466118  1
  Al  Al8  1  0.44723986  0.09187650  0.81686172  1
  Al  Al9  1  0.56681472  0.20470149  0.55627312  1
  Al  Al10  1  0.11039936  0.42831555  0.31152984  1
  Al  Al11  1  0.22250821  0.53876985  0.06107479  1
  Al  Al12  1  0.78078850  0.42189867  0.81557678  1
  Al  Al13  1  0.89075330  0.53534325  0.56236043  1
  Al  Al14  1  0.45010680  0.42387009  0.31093150  1
  Al  Al15  1  0.55746765  0.54256408  0.05990515  1
  Al  Al16  1  0.11150903  0.42792289  0.81142538  1
  Al  Al17  1  0.22302282  0.53911484  0.56045651  1
  Al  Al18  1  0.77576487  0.42228837  0.31283684  1
  Al  Al19  1  0.88286062  0.54288358  0.06093894  1
  Al  Al20  1  0.44546462  0.42609372  0.81101067  1
  Al  Al21  1  0.55940363  0.53471720  0.56259445  1
  Al  Al22  1  0.10661512  0.76636829  0.31162616  1
  Al  Al23  1  0.22832703  0.86978091  0.06509207  1
  Al  Al24  1  0.77561417  0.76369804  0.81707554  1
  Al  Al25  1  0.88831059  0.88312257  0.55644569  1
  Al  Al26  1  0.44770277  0.76326042  0.30864332  1
  Al  Al27  1  0.10974743  0.76183185  0.81121002  1
  Al  Al28  1  0.21733277  0.87716907  0.56237231  1
  Al  Al29  1  0.77191767  0.76795831  0.30761478  1
  Al  Al30  1  0.88200290  0.87486055  0.06547023  1
  Al  Al31  1  0.44631601  0.76280128  0.81724076  1
  Al  Al32  1  0.55653213  0.87305440  0.56215392  1
  B  B33  1  0.89157952  0.20444774  0.59527352  1
  B  B34  1  0.77737213  0.09628607  0.30368136  1
  B  B35  1  0.55607643  0.87151814  0.05892264  1
  N  N36  1  0.22402327  0.20388374  0.36904004  1
  N  N37  1  0.11414783  0.09204505  0.11842865  1
  N  N38  1  0.88330414  0.20686110  0.88795473  1
  N  N39  1  0.79389840  0.11023514  0.62135306  1
  N  N40  1  0.57865657  0.19253602  0.36261199  1
  N  N41  1  0.45777395  0.06813734  0.11480816  1
  N  N42  1  0.22354514  0.20664771  0.87339499  1
  N  N43  1  0.08142160  0.11033407  0.61172568  1
  N  N44  1  0.87193454  0.19233172  0.34186112  1
  N  N45  1  0.77308256  0.09006350  0.13946234  1
  N  N46  1  0.55799160  0.20416349  0.87289072  1
  N  N47  1  0.44694962  0.09537032  0.62305437  1
  N  N48  1  0.22259380  0.53916124  0.36993202  1
  N  N49  1  0.10976338  0.42854785  0.12058897  1
  N  N50  1  0.88835347  0.53843290  0.86923773  1
  N  N51  1  0.79334585  0.39878374  0.61869442  1
  N  N52  1  0.55384735  0.54161025  0.37227880  1
  N  N53  1  0.44559625  0.42714837  0.11967739  1
  N  N54  1  0.22241395  0.53912791  0.87002068  1
  N  N55  1  0.11192717  0.42811004  0.62112707  1
  N  N56  1  0.88641681  0.54042519  0.37089868  1
  N  N57  1  0.77454924  0.43294327  0.12239723  1
  N  N58  1  0.55641024  0.53818100  0.86867778  1
  N  N59  1  0.44583266  0.42567565  0.61935768  1
  N  N60  1  0.22475321  0.87054090  0.37060758  1
  N  N61  1  0.11001137  0.76096968  0.12107330  1
  N  N62  1  0.88783515  0.87488859  0.87338059  1
  N  N63  1  0.77848065  0.76412369  0.62335738  1
  N  N64  1  0.55561443  0.87176302  0.37480495  1
  N  N65  1  0.45804091  0.77214800  0.11435127  1
  N  N66  1  0.22290908  0.86981683  0.87313663  1
  N  N67  1  0.10939327  0.76232836  0.61956700  1
  N  N68  1  0.87523211  0.89565882  0.36284619  1
  N  N69  1  0.75256758  0.77271647  0.11355072  1
  N  N70  1  0.55560651  0.87233158  0.89207983  1
  N  N71  1  0.44508018  0.76261185  0.62518534  1
