# generated using pymatgen
data_Al11BN12
_symmetry_space_group_name_H-M   'P 1'
_cell_length_a   9.27954475
_cell_length_b   9.27969096
_cell_length_c   10.02750434
_cell_angle_alpha   89.38779843
_cell_angle_beta   89.38541472
_cell_angle_gamma   59.97101694
_symmetry_Int_Tables_number   1
_chemical_formula_structural   Al11BN12
_chemical_formula_sum   'Al33 B3 N36'
_cell_volume   747.52132713
_cell_formula_units_Z   3
loop_
 _symmetry_equiv_pos_site_id
 _symmetry_equiv_pos_as_xyz
  1  'x, y, z'
loop_
 _atom_site_type_symbol
 _atom_site_label
 _atom_site_symmetry_multiplicity
 _atom_site_fract_x
 _atom_site_fract_y
 _atom_site_fract_z
 _atom_site_occupancy
  Al  Al0  1  0.09929352  0.09591907  0.40675671  1
  Al  Al1  1  0.22408025  0.20001131  0.15137185  1
  Al  Al2  1  0.77725192  0.09395110  0.83066961  1
  Al  Al3  1  0.44968648  0.08934922  0.38806052  1
  Al  Al4  1  0.56085696  0.19796781  0.08815774  1
  Al  Al5  1  0.10939793  0.09602500  0.89760064  1
  Al  Al6  1  0.21934911  0.20579150  0.64961675  1
  Al  Al7  1  0.88890419  0.20552482  0.15424643  1
  Al  Al8  1  0.44348610  0.08602769  0.90196401  1
  Al  Al9  1  0.57100134  0.20100394  0.58083142  1
  Al  Al10  1  0.11043070  0.42705244  0.40129033  1
  Al  Al11  1  0.22206568  0.53876289  0.15206198  1
  Al  Al12  1  0.77941531  0.42600625  0.89761357  1
  Al  Al13  1  0.88923631  0.53587856  0.64963941  1
  Al  Al14  1  0.44841300  0.42969627  0.39495622  1
  Al  Al15  1  0.55899416  0.54261944  0.15108725  1
  Al  Al16  1  0.11132436  0.42790895  0.89995672  1
  Al  Al17  1  0.22224821  0.53876158  0.64902517  1
  Al  Al18  1  0.77931632  0.41591030  0.40674926  1
  Al  Al19  1  0.88337721  0.54073806  0.15136974  1
  Al  Al20  1  0.44188689  0.43380814  0.90057528  1
  Al  Al21  1  0.55867705  0.53479283  0.65060489  1
  Al  Al22  1  0.11304011  0.76506027  0.39506086  1
  Al  Al23  1  0.22596362  0.87561092  0.15107986  1
  Al  Al24  1  0.76940939  0.76008916  0.90189185  1
  Al  Al25  1  0.88442853  0.88754724  0.58104502  1
  Al  Al26  1  0.44680130  0.76340615  0.39504924  1
  Al  Al27  1  0.11719345  0.75849586  0.90048282  1
  Al  Al28  1  0.21823238  0.87526746  0.65061406  1
  Al  Al29  1  0.77276101  0.76630930  0.38815945  1
  Al  Al30  1  0.88132477  0.87749226  0.08803495  1
  Al  Al31  1  0.44673742  0.76335401  0.90409390  1
  Al  Al32  1  0.55552744  0.87213058  0.64690793  1
  B  B33  1  0.89242113  0.20902532  0.66077164  1
  B  B34  1  0.77704517  0.09361649  0.33207442  1
  B  B35  1  0.55462053  0.87122344  0.15252048  1
  N  N36  1  0.21921725  0.20439298  0.34173568  1
  N  N37  1  0.10757089  0.09642459  0.08760483  1
  N  N38  1  0.89516902  0.21178291  0.82428533  1
  N  N39  1  0.78906860  0.10572350  0.64279419  1
  N  N40  1  0.58808310  0.19130206  0.38118383  1
  N  N41  1  0.45329149  0.06632654  0.09823558  1
  N  N42  1  0.22444089  0.20528665  0.84011132  1
  N  N43  1  0.08523028  0.10747076  0.59955659  1
  N  N44  1  0.87788778  0.19449659  0.34368611  1
  N  N45  1  0.77505127  0.09162467  0.14626933  1
  N  N46  1  0.55801228  0.20310342  0.88969916  1
  N  N47  1  0.44277878  0.09190944  0.58311942  1
  N  N48  1  0.22212230  0.53881082  0.34066360  1
  N  N49  1  0.11112157  0.42774385  0.09069703  1
  N  N50  1  0.88870173  0.54101508  0.84011906  1
  N  N51  1  0.79089336  0.40180741  0.59955301  1
  N  N52  1  0.55990707  0.53986479  0.34048924  1
  N  N53  1  0.44321039  0.43415755  0.09413187  1
  N  N54  1  0.22257765  0.53914053  0.83875059  1
  N  N55  1  0.11136959  0.42792567  0.59040784  1
  N  N56  1  0.88776908  0.53586379  0.34174552  1
  N  N57  1  0.77981014  0.42419353  0.08761485  1
  N  N58  1  0.55540306  0.54164184  0.84102350  1
  N  N59  1  0.44318491  0.43156767  0.58814717  1
  N  N60  1  0.22324005  0.87649973  0.34049938  1
  N  N61  1  0.11749642  0.75985700  0.09404115  1
  N  N62  1  0.88647405  0.87463253  0.88954789  1
  N  N63  1  0.77535121  0.75931969  0.58321132  1
  N  N64  1  0.55559727  0.87215473  0.31609830  1
  N  N65  1  0.45659344  0.77322629  0.09698146  1
  N  N66  1  0.22504427  0.87201841  0.84101530  1
  N  N67  1  0.11500109  0.75974429  0.58824387  1
  N  N68  1  0.87466601  0.90473084  0.38132397  1
  N  N69  1  0.74970364  0.76992109  0.09816407  1
  N  N70  1  0.55509035  0.87173516  0.83414157  1
  N  N71  1  0.44502187  0.76159249  0.58632301  1
