# generated using pymatgen
data_Al11BN12
_symmetry_space_group_name_H-M   'P 1'
_cell_length_a   9.31966901
_cell_length_b   9.29336306
_cell_length_c   10.04303277
_cell_angle_alpha   89.66622039
_cell_angle_beta   89.61681368
_cell_angle_gamma   59.97388169
_symmetry_Int_Tables_number   1
_chemical_formula_structural   Al11BN12
_chemical_formula_sum   'Al33 B3 N36'
_cell_volume   753.08335890
_cell_formula_units_Z   3
loop_
 _symmetry_equiv_pos_site_id
 _symmetry_equiv_pos_as_xyz
  1  'x, y, z'
loop_
 _atom_site_type_symbol
 _atom_site_label
 _atom_site_symmetry_multiplicity
 _atom_site_fract_x
 _atom_site_fract_y
 _atom_site_fract_z
 _atom_site_occupancy
  Al  Al0  1  0.10172739  0.09305603  0.39455445  1
  Al  Al1  1  0.21811996  0.20089887  0.13773585  1
  Al  Al2  1  0.77833366  0.09521381  0.81346120  1
  Al  Al3  1  0.45776091  0.08404407  0.31595734  1
  Al  Al4  1  0.55707674  0.19820030  0.07284343  1
  Al  Al5  1  0.10709580  0.09949449  0.88509673  1
  Al  Al6  1  0.21552023  0.21001515  0.64117577  1
  Al  Al7  1  0.88652500  0.20385855  0.14503329  1
  Al  Al8  1  0.45408221  0.09025714  0.82677662  1
  Al  Al9  1  0.56799441  0.20394068  0.56339018  1
  Al  Al10  1  0.11452088  0.42158461  0.38466471  1
  Al  Al11  1  0.22577624  0.54025359  0.07200319  1
  Al  Al12  1  0.78014025  0.42231238  0.87894408  1
  Al  Al13  1  0.88629483  0.54144942  0.57890103  1
  Al  Al14  1  0.45147918  0.42417943  0.31868958  1
  Al  Al15  1  0.55100990  0.54312189  0.06795844  1
  Al  Al16  1  0.11473791  0.42307827  0.88677028  1
  Al  Al17  1  0.22683104  0.54321451  0.56780764  1
  Al  Al18  1  0.78227410  0.40939044  0.39125332  1
  Al  Al19  1  0.87865538  0.54665968  0.07281469  1
  Al  Al20  1  0.44520948  0.42679840  0.81776289  1
  Al  Al21  1  0.55389729  0.53937261  0.57516199  1
  Al  Al22  1  0.10679277  0.76671749  0.31759675  1
  Al  Al23  1  0.22616325  0.87216223  0.09266691  1
  Al  Al24  1  0.77548266  0.76667967  0.82262966  1
  Al  Al25  1  0.88748554  0.88537443  0.56210511  1
  Al  Al26  1  0.44909727  0.76199714  0.31738208  1
  Al  Al27  1  0.10667312  0.75993599  0.82116369  1
  Al  Al28  1  0.21787939  0.88006735  0.61859735  1
  Al  Al29  1  0.77220340  0.76525049  0.31491101  1
  Al  Al30  1  0.88006923  0.87505032  0.07202157  1
  Al  Al31  1  0.44968009  0.76291386  0.82751109  1
  Al  Al32  1  0.55719894  0.87521700  0.56900369  1
  B  B33  1  0.89027695  0.21149266  0.64700225  1
  B  B34  1  0.77515661  0.08842402  0.31073516  1
  B  B35  1  0.55530479  0.87312064  0.06625522  1
  N  N36  1  0.21987410  0.20150539  0.32964298  1
  N  N37  1  0.10153001  0.09993140  0.07452302  1
  N  N38  1  0.89564292  0.21087631  0.80902909  1
  N  N39  1  0.78944946  0.10645417  0.62557244  1
  N  N40  1  0.58065500  0.19146479  0.36998122  1
  N  N41  1  0.45759595  0.06617147  0.12112860  1
  N  N42  1  0.22192954  0.20571819  0.83112976  1
  N  N43  1  0.08497656  0.11129457  0.58793598  1
  N  N44  1  0.87921570  0.18993098  0.33188649  1
  N  N45  1  0.77007439  0.08706428  0.14775071  1
  N  N46  1  0.56107146  0.20575072  0.88340210  1
  N  N47  1  0.45451897  0.09354793  0.63119870  1
  N  N48  1  0.22663278  0.54146649  0.37538459  1
  N  N49  1  0.11151056  0.42359479  0.08493142  1
  N  N50  1  0.88626600  0.54608958  0.87265338  1
  N  N51  1  0.79142798  0.39953475  0.58979727  1
  N  N52  1  0.55254254  0.54141825  0.38138682  1
  N  N53  1  0.44580877  0.42587073  0.13029797  1
  N  N54  1  0.22689419  0.54077600  0.87929492  1
  N  N55  1  0.11518087  0.42517038  0.58231326  1
  N  N56  1  0.88298484  0.54300366  0.37557895  1
  N  N57  1  0.77963305  0.41652017  0.07765025  1
  N  N58  1  0.54971325  0.54116228  0.87634753  1
  N  N59  1  0.44591688  0.42543917  0.62849680  1
  N  N60  1  0.22496522  0.87146373  0.35528672  1
  N  N61  1  0.10651240  0.76150911  0.12668186  1
  N  N62  1  0.88608445  0.87842094  0.88287442  1
  N  N63  1  0.77804280  0.76818659  0.63114357  1
  N  N64  1  0.55683093  0.87049153  0.38316897  1
  N  N65  1  0.45939190  0.77116937  0.12109456  1
  N  N66  1  0.22150201  0.87257034  0.85557397  1
  N  N67  1  0.10617097  0.76210952  0.62906800  1
  N  N68  1  0.87480245  0.89533644  0.36905850  1
  N  N69  1  0.75085999  0.77304173  0.12292325  1
  N  N70  1  0.55708670  0.87290190  0.90156831  1
  N  N71  1  0.45084614  0.76276319  0.63557647  1
