# generated using pymatgen
data_Al11BN12
_symmetry_space_group_name_H-M   'P 1'
_cell_length_a   9.28090627
_cell_length_b   9.28106846
_cell_length_c   10.02719871
_cell_angle_alpha   89.37662946
_cell_angle_beta   89.37320065
_cell_angle_gamma   59.97192319
_symmetry_Int_Tables_number   1
_chemical_formula_structural   Al11BN12
_chemical_formula_sum   'Al33 B3 N36'
_cell_volume   747.72383095
_cell_formula_units_Z   3
loop_
 _symmetry_equiv_pos_site_id
 _symmetry_equiv_pos_as_xyz
  1  'x, y, z'
loop_
 _atom_site_type_symbol
 _atom_site_label
 _atom_site_symmetry_multiplicity
 _atom_site_fract_x
 _atom_site_fract_y
 _atom_site_fract_z
 _atom_site_occupancy
  Al  Al0  1  0.09961152  0.09572222  0.40675550  1
  Al  Al1  1  0.22426857  0.20003963  0.15129122  1
  Al  Al2  1  0.77732740  0.09405089  0.83263791  1
  Al  Al3  1  0.44987840  0.08918367  0.38832790  1
  Al  Al4  1  0.56093346  0.19805854  0.08675917  1
  Al  Al5  1  0.10920754  0.09605612  0.89792567  1
  Al  Al6  1  0.21912836  0.20578342  0.64972309  1
  Al  Al7  1  0.88833139  0.20495409  0.15362010  1
  Al  Al8  1  0.44315241  0.08604342  0.90162987  1
  Al  Al9  1  0.57049369  0.20119744  0.58288823  1
  Al  Al10  1  0.11045810  0.42708533  0.40132729  1
  Al  Al11  1  0.22211679  0.53883065  0.15189219  1
  Al  Al12  1  0.77944346  0.42581975  0.89794101  1
  Al  Al13  1  0.88923578  0.53564341  0.64975084  1
  Al  Al14  1  0.44850653  0.42978685  0.39526860  1
  Al  Al15  1  0.55907765  0.54250464  0.15096041  1
  Al  Al16  1  0.11127652  0.42785986  0.89996805  1
  Al  Al17  1  0.22219672  0.53868842  0.64913901  1
  Al  Al18  1  0.77912027  0.41622952  0.40674606  1
  Al  Al19  1  0.88340098  0.54093548  0.15128951  1
  Al  Al20  1  0.44164417  0.43390428  0.90025726  1
  Al  Al21  1  0.55872243  0.53482598  0.65069384  1
  Al  Al22  1  0.11311774  0.76516395  0.39539769  1
  Al  Al23  1  0.22583996  0.87569538  0.15095245  1
  Al  Al24  1  0.76942033  0.75975972  0.90154583  1
  Al  Al25  1  0.88463566  0.88701546  0.58317349  1
  Al  Al26  1  0.44680093  0.76340551  0.39496734  1
  Al  Al27  1  0.11728415  0.75825839  0.90014737  1
  Al  Al28  1  0.21827604  0.87531059  0.65070546  1
  Al  Al29  1  0.77259904  0.76650739  0.38844939  1
  Al  Al30  1  0.88141131  0.87757065  0.08662437  1
  Al  Al31  1  0.44668737  0.76330758  0.90418905  1
  Al  Al32  1  0.55543511  0.87204053  0.64700498  1
  B  B33  1  0.89225706  0.20886009  0.66112406  1
  B  B34  1  0.77770710  0.09426613  0.34027225  1
  B  B35  1  0.55476268  0.87136391  0.15235561  1
  N  N36  1  0.21935939  0.20442829  0.34180889  1
  N  N37  1  0.10783572  0.09661190  0.08803714  1
  N  N38  1  0.89523702  0.21185361  0.82423894  1
  N  N39  1  0.78906927  0.10573326  0.64351579  1
  N  N40  1  0.58897211  0.19098869  0.38187574  1
  N  N41  1  0.45345178  0.06639616  0.09814843  1
  N  N42  1  0.22408607  0.20525165  0.84010786  1
  N  N43  1  0.08520011  0.10740002  0.59941085  1
  N  N44  1  0.87719974  0.19380348  0.34413082  1
  N  N45  1  0.77631398  0.09289065  0.13562141  1
  N  N46  1  0.55629750  0.20378913  0.88765386  1
  N  N47  1  0.44269391  0.09188353  0.58318389  1
  N  N48  1  0.22216403  0.53886935  0.34070854  1
  N  N49  1  0.11118203  0.42780546  0.09075159  1
  N  N50  1  0.88866966  0.54065682  0.84011800  1
  N  N51  1  0.79082900  0.40176986  0.59940609  1
  N  N52  1  0.55988755  0.53984371  0.34049101  1
  N  N53  1  0.44317027  0.43417873  0.09393823  1
  N  N54  1  0.22250453  0.53906177  0.83864901  1
  N  N55  1  0.11135207  0.42789962  0.59040293  1
  N  N56  1  0.88780075  0.53601410  0.34182157  1
  N  N57  1  0.77999866  0.42445961  0.08804889  1
  N  N58  1  0.55543990  0.54162481  0.84106774  1
  N  N59  1  0.44308950  0.43170369  0.58818033  1
  N  N60  1  0.22321697  0.87647485  0.34050428  1
  N  N61  1  0.11750750  0.75982316  0.09382884  1
  N  N62  1  0.88715260  0.87292643  0.88746515  1
  N  N63  1  0.77533404  0.75922163  0.58329613  1
  N  N64  1  0.55567907  0.87222475  0.31618274  1
  N  N65  1  0.45662041  0.77325610  0.09707102  1
  N  N66  1  0.22502905  0.87205748  0.84105846  1
  N  N67  1  0.11515010  0.75963633  0.58829885  1
  N  N68  1  0.87435493  0.90561654  0.38204074  1
  N  N69  1  0.74977316  0.77008385  0.09806271  1
  N  N70  1  0.55495455  0.87160673  0.83412632  1
  N  N71  1  0.44500783  0.76156992  0.58625303  1
