# generated using pymatgen
data_Al11BN12
_symmetry_space_group_name_H-M   'P 1'
_cell_length_a   9.27337737
_cell_length_b   9.27333657
_cell_length_c   10.17379478
_cell_angle_alpha   89.92420677
_cell_angle_beta   89.93153177
_cell_angle_gamma   60.18455829
_symmetry_Int_Tables_number   1
_chemical_formula_structural   Al11BN12
_chemical_formula_sum   'Al33 B3 N36'
_cell_volume   759.08737423
_cell_formula_units_Z   3
loop_
 _symmetry_equiv_pos_site_id
 _symmetry_equiv_pos_as_xyz
  1  'x, y, z'
loop_
 _atom_site_type_symbol
 _atom_site_label
 _atom_site_symmetry_multiplicity
 _atom_site_fract_x
 _atom_site_fract_y
 _atom_site_fract_z
 _atom_site_occupancy
  Al  Al0  1  0.09923606  0.09516647  0.39569922  1
  Al  Al1  1  0.21772219  0.20043535  0.13922984  1
  Al  Al2  1  0.77906984  0.09561644  0.81347395  1
  Al  Al3  1  0.45434011  0.08478165  0.32318771  1
  Al  Al4  1  0.55759240  0.19496806  0.07133666  1
  Al  Al5  1  0.11077029  0.09761794  0.88640736  1
  Al  Al6  1  0.21341952  0.21082305  0.63890544  1
  Al  Al7  1  0.88657465  0.20309293  0.14392967  1
  Al  Al8  1  0.45266324  0.09298519  0.81555726  1
  Al  Al9  1  0.56877089  0.20680386  0.56137105  1
  Al  Al10  1  0.11013735  0.42680110  0.39000318  1
  Al  Al11  1  0.21855522  0.53506721  0.13555996  1
  Al  Al12  1  0.78107336  0.42725451  0.88642182  1
  Al  Al13  1  0.89424212  0.53001740  0.63906789  1
  Al  Al14  1  0.45373596  0.41618646  0.31939260  1
  Al  Al15  1  0.56188101  0.54408824  0.13800065  1
  Al  Al16  1  0.11115704  0.42759037  0.89105086  1
  Al  Al17  1  0.22060284  0.53715239  0.63496815  1
  Al  Al18  1  0.77863639  0.41585895  0.39565709  1
  Al  Al19  1  0.88396421  0.53420677  0.13902968  1
  Al  Al20  1  0.44962318  0.42134263  0.82527922  1
  Al  Al21  1  0.56415620  0.53851309  0.64342868  1
  Al  Al22  1  0.09965006  0.77024677  0.31941272  1
  Al  Al23  1  0.22755674  0.87840869  0.13802773  1
  Al  Al24  1  0.77640464  0.76922841  0.81573286  1
  Al  Al25  1  0.89021483  0.88526658  0.56135143  1
  Al  Al26  1  0.44018348  0.75671160  0.39462240  1
  Al  Al27  1  0.10477525  0.76617778  0.82522498  1
  Al  Al28  1  0.22197029  0.88069715  0.64341049  1
  Al  Al29  1  0.76819527  0.77092275  0.32286368  1
  Al  Al30  1  0.87847487  0.87418931  0.07131056  1
  Al  Al31  1  0.44872358  0.76529697  0.89214109  1
  Al  Al32  1  0.55994285  0.87638897  0.57671926  1
  B  B33  1  0.89181665  0.20833242  0.64685146  1
  B  B34  1  0.77451123  0.09106706  0.31038820  1
  B  B35  1  0.55545390  0.87207326  0.09587568  1
  N  N36  1  0.21661632  0.20496686  0.32977101  1
  N  N37  1  0.10374121  0.09616290  0.07428927  1
  N  N38  1  0.89616079  0.21269027  0.81000069  1
  N  N39  1  0.79010786  0.10660982  0.62689029  1
  N  N40  1  0.58259645  0.19031968  0.37069745  1
  N  N41  1  0.45841865  0.06122155  0.12784792  1
  N  N42  1  0.22009728  0.20945363  0.82856468  1
  N  N43  1  0.08604347  0.10804332  0.58590739  1
  N  N44  1  0.87727066  0.19385312  0.33039105  1
  N  N45  1  0.76970796  0.08626032  0.14857162  1
  N  N46  1  0.56249604  0.20248362  0.88496364  1
  N  N47  1  0.44943799  0.10094031  0.62330785  1
  N  N48  1  0.22021007  0.53671003  0.33281399  1
  N  N49  1  0.10836915  0.42476563  0.07860627  1
  N  N50  1  0.89291153  0.53663634  0.82873618  1
  N  N51  1  0.79149579  0.40264419  0.58590905  1
  N  N52  1  0.56127793  0.54063354  0.32921225  1
  N  N53  1  0.44888840  0.41968923  0.12482409  1
  N  N54  1  0.22038712  0.53694244  0.83406108  1
  N  N55  1  0.11111529  0.42779253  0.57522801  1
  N  N56  1  0.88840539  0.53320285  0.32956784  1
  N  N57  1  0.77961268  0.42023908  0.07426757  1
  N  N58  1  0.55930370  0.54385053  0.83374229  1
  N  N59  1  0.45077575  0.42140988  0.62655778  1
  N  N60  1  0.22406657  0.87783310  0.32924148  1
  N  N61  1  0.10316995  0.76540906  0.12484672  1
  N  N62  1  0.88597241  0.87905861  0.88497634  1
  N  N63  1  0.78439673  0.76601371  0.62351786  1
  N  N64  1  0.55673490  0.87313907  0.38826366  1
  N  N65  1  0.45755684  0.77412214  0.08542501  1
  N  N66  1  0.22728222  0.87585513  0.83372232  1
  N  N67  1  0.10487097  0.76731971  0.62649953  1
  N  N68  1  0.87375072  0.89910025  0.37064926  1
  N  N69  1  0.74468593  0.77497322  0.12764393  1
  N  N70  1  0.55951708  0.87615016  0.86105606  1
  N  N71  1  0.44162419  0.75817224  0.58245740  1
