# generated using pymatgen
data_Al11BN12
_symmetry_space_group_name_H-M   'P 1'
_cell_length_a   9.32130323
_cell_length_b   9.29202290
_cell_length_c   10.05466442
_cell_angle_alpha   89.66333051
_cell_angle_beta   89.60827865
_cell_angle_gamma   59.95822560
_symmetry_Int_Tables_number   1
_chemical_formula_structural   Al11BN12
_chemical_formula_sum   'Al33 B3 N36'
_cell_volume   753.85923030
_cell_formula_units_Z   3
loop_
 _symmetry_equiv_pos_site_id
 _symmetry_equiv_pos_as_xyz
  1  'x, y, z'
loop_
 _atom_site_type_symbol
 _atom_site_label
 _atom_site_symmetry_multiplicity
 _atom_site_fract_x
 _atom_site_fract_y
 _atom_site_fract_z
 _atom_site_occupancy
  Al  Al0  1  0.10252693  0.09159741  0.39454641  1
  Al  Al1  1  0.21808673  0.20128171  0.13739536  1
  Al  Al2  1  0.77836429  0.09539349  0.81333700  1
  Al  Al3  1  0.45767705  0.08427807  0.31574364  1
  Al  Al4  1  0.55704209  0.19824956  0.07274261  1
  Al  Al5  1  0.10808367  0.09755731  0.88607910  1
  Al  Al6  1  0.21550906  0.20981182  0.64109160  1
  Al  Al7  1  0.88633568  0.20408271  0.14482224  1
  Al  Al8  1  0.45394693  0.09038151  0.82669564  1
  Al  Al9  1  0.56799080  0.20391463  0.56340087  1
  Al  Al10  1  0.11454868  0.42128758  0.38496521  1
  Al  Al11  1  0.22572786  0.54054107  0.07147599  1
  Al  Al12  1  0.78031788  0.42213646  0.87887019  1
  Al  Al13  1  0.88627468  0.54151369  0.57895479  1
  Al  Al14  1  0.45156976  0.42402903  0.31845477  1
  Al  Al15  1  0.55063241  0.54357954  0.06749723  1
  Al  Al16  1  0.11471979  0.42283921  0.88673136  1
  Al  Al17  1  0.22684741  0.54332715  0.56786618  1
  Al  Al18  1  0.78260379  0.40902702  0.39152411  1
  Al  Al19  1  0.87860538  0.54677421  0.07259701  1
  Al  Al20  1  0.44524525  0.42677427  0.81755211  1
  Al  Al21  1  0.55381182  0.53951418  0.57527614  1
  Al  Al22  1  0.10511374  0.76494894  0.31740351  1
  Al  Al23  1  0.22433898  0.87606086  0.11869491  1
  Al  Al24  1  0.77528014  0.76676818  0.82241158  1
  Al  Al25  1  0.88773222  0.88528959  0.56213533  1
  Al  Al26  1  0.45248969  0.76022180  0.31738453  1
  Al  Al27  1  0.10580270  0.75938644  0.82115248  1
  Al  Al28  1  0.21635130  0.88265238  0.63561959  1
  Al  Al29  1  0.77228864  0.76528429  0.31471010  1
  Al  Al30  1  0.88003058  0.87503838  0.07164062  1
  Al  Al31  1  0.45024424  0.76279348  0.82772739  1
  Al  Al32  1  0.55720525  0.87513752  0.56909903  1
  B  B33  1  0.89020299  0.21130323  0.64671325  1
  B  B34  1  0.77511008  0.08858040  0.31059231  1
  B  B35  1  0.55529206  0.87271842  0.06621775  1
  N  N36  1  0.21980331  0.20140791  0.32945295  1
  N  N37  1  0.10221162  0.09863710  0.07407122  1
  N  N38  1  0.89614459  0.21069890  0.80885207  1
  N  N39  1  0.78946200  0.10652898  0.62557004  1
  N  N40  1  0.58069341  0.19148652  0.36998487  1
  N  N41  1  0.45752666  0.06627272  0.12118020  1
  N  N42  1  0.22172312  0.20550264  0.83111075  1
  N  N43  1  0.08614056  0.10973255  0.58640819  1
  N  N44  1  0.87943644  0.18974539  0.33170734  1
  N  N45  1  0.77004126  0.08710313  0.14776809  1
  N  N46  1  0.56107848  0.20579537  0.88343039  1
  N  N47  1  0.45456699  0.09359907  0.63125109  1
  N  N48  1  0.22690456  0.54121641  0.37561354  1
  N  N49  1  0.11151133  0.42359034  0.08462187  1
  N  N50  1  0.88620666  0.54619468  0.87264007  1
  N  N51  1  0.79168554  0.39923241  0.58963295  1
  N  N52  1  0.55254415  0.54114356  0.38162737  1
  N  N53  1  0.44569544  0.42610470  0.13027522  1
  N  N54  1  0.22696126  0.54067164  0.87912694  1
  N  N55  1  0.11523539  0.42499108  0.58216058  1
  N  N56  1  0.88292798  0.54308202  0.37563952  1
  N  N57  1  0.77959760  0.41651682  0.07736170  1
  N  N58  1  0.54958137  0.54120586  0.87630456  1
  N  N59  1  0.44598615  0.42536849  0.62848973  1
  N  N60  1  0.22372310  0.87421881  0.33631394  1
  N  N61  1  0.10527887  0.76079306  0.12599976  1
  N  N62  1  0.88572499  0.87858087  0.88272065  1
  N  N63  1  0.77810042  0.76825532  0.63112580  1
  N  N64  1  0.55694711  0.87078923  0.38330401  1
  N  N65  1  0.46103856  0.77064824  0.12056253  1
  N  N66  1  0.21981275  0.87545417  0.84068031  1
  N  N67  1  0.10607399  0.76201027  0.62746077  1
  N  N68  1  0.87462698  0.89547499  0.36924991  1
  N  N69  1  0.75096027  0.77310363  0.12292609  1
  N  N70  1  0.55702999  0.87303681  0.90154935  1
  N  N71  1  0.45173505  0.76224923  0.63437478  1
