# generated using pymatgen
data_Al11BN12
_symmetry_space_group_name_H-M   'P 1'
_cell_length_a   9.28447167
_cell_length_b   9.28810793
_cell_length_c   9.96341090
_cell_angle_alpha   89.49474162
_cell_angle_beta   89.39800751
_cell_angle_gamma   59.96367071
_symmetry_Int_Tables_number   1
_chemical_formula_structural   Al11BN12
_chemical_formula_sum   'Al33 B3 N36'
_cell_volume   743.76609458
_cell_formula_units_Z   3
loop_
 _symmetry_equiv_pos_site_id
 _symmetry_equiv_pos_as_xyz
  1  'x, y, z'
loop_
 _atom_site_type_symbol
 _atom_site_label
 _atom_site_symmetry_multiplicity
 _atom_site_fract_x
 _atom_site_fract_y
 _atom_site_fract_z
 _atom_site_occupancy
  Al  Al0  1  0.09971570  0.09473599  0.40583661  1
  Al  Al1  1  0.22499289  0.20037742  0.15118581  1
  Al  Al2  1  0.77848343  0.09858924  0.85785986  1
  Al  Al3  1  0.45027287  0.08851417  0.38915607  1
  Al  Al4  1  0.56046254  0.19914788  0.08224454  1
  Al  Al5  1  0.10918565  0.09631287  0.89784831  1
  Al  Al6  1  0.21854377  0.20557011  0.64906336  1
  Al  Al7  1  0.88688684  0.20331222  0.14786855  1
  Al  Al8  1  0.44178280  0.08624101  0.89940122  1
  Al  Al9  1  0.57194571  0.19972136  0.59243205  1
  Al  Al10  1  0.11013158  0.42763253  0.40102173  1
  Al  Al11  1  0.22198686  0.53934119  0.15142515  1
  Al  Al12  1  0.77964697  0.42669220  0.89780950  1
  Al  Al13  1  0.88895944  0.53458165  0.64922742  1
  Al  Al14  1  0.44851086  0.42920339  0.39576340  1
  Al  Al15  1  0.55927529  0.54288021  0.15069393  1
  Al  Al16  1  0.11117835  0.42777705  0.89929580  1
  Al  Al17  1  0.22295182  0.53782562  0.64853262  1
  Al  Al18  1  0.77833823  0.41656871  0.40560921  1
  Al  Al19  1  0.88400120  0.54151028  0.15114312  1
  Al  Al20  1  0.43988456  0.43508105  0.89806127  1
  Al  Al21  1  0.55930258  0.53440069  0.65011918  1
  Al  Al22  1  0.10601456  0.76920357  0.39871977  1
  Al  Al23  1  0.22559380  0.87576439  0.15056898  1
  Al  Al24  1  0.77153899  0.76116969  0.90098804  1
  Al  Al25  1  0.89029690  0.87443082  0.64624488  1
  Al  Al26  1  0.44626987  0.76304303  0.39433781  1
  Al  Al27  1  0.11329479  0.75975440  0.89872484  1
  Al  Al28  1  0.21854867  0.87574433  0.64991760  1
  Al  Al29  1  0.77371692  0.76906833  0.39179497  1
  Al  Al30  1  0.88165649  0.87874733  0.12344786  1
  Al  Al31  1  0.44652208  0.76332075  0.90381255  1
  Al  Al32  1  0.55525173  0.87181882  0.64700759  1
  B  B33  1  0.89028409  0.20674788  0.66238907  1
  B  B34  1  0.77886810  0.09272651  0.36102744  1
  B  B35  1  0.55451362  0.87258754  0.15282591  1
  N  N36  1  0.21942475  0.20434241  0.34231867  1
  N  N37  1  0.10946709  0.09666195  0.08933736  1
  N  N38  1  0.89611419  0.21346219  0.82419321  1
  N  N39  1  0.79089318  0.10743129  0.64414864  1
  N  N40  1  0.59113017  0.18865118  0.37935854  1
  N  N41  1  0.45535242  0.06655028  0.09861507  1
  N  N42  1  0.22293635  0.20516077  0.84011776  1
  N  N43  1  0.08574399  0.10697260  0.59835794  1
  N  N44  1  0.87370107  0.18997058  0.34165697  1
  N  N45  1  0.78606849  0.09632112  0.07596843  1
  N  N46  1  0.54721712  0.20786842  0.87885610  1
  N  N47  1  0.44329418  0.09174656  0.58370065  1
  N  N48  1  0.22100974  0.54063539  0.34139327  1
  N  N49  1  0.11171728  0.42770738  0.09122835  1
  N  N50  1  0.88832191  0.54066940  0.84061360  1
  N  N51  1  0.79045998  0.40206993  0.59817132  1
  N  N52  1  0.55945082  0.53933112  0.34062045  1
  N  N53  1  0.44355815  0.43431632  0.09387571  1
  N  N54  1  0.22149728  0.53974845  0.83868196  1
  N  N55  1  0.11135201  0.42774031  0.59063400  1
  N  N56  1  0.88698961  0.53735911  0.34259343  1
  N  N57  1  0.78029857  0.42581878  0.08935615  1
  N  N58  1  0.55545082  0.54164184  0.84134956  1
  N  N59  1  0.44371296  0.43071349  0.58818523  1
  N  N60  1  0.22202914  0.87523665  0.34114110  1
  N  N61  1  0.11391123  0.76124959  0.09115418  1
  N  N62  1  0.89123336  0.86385923  0.84721672  1
  N  N63  1  0.77700109  0.76157730  0.58471817  1
  N  N64  1  0.55629002  0.87150838  0.31698003  1
  N  N65  1  0.45710624  0.77365152  0.09764196  1
  N  N66  1  0.22459657  0.87197173  0.84161332  1
  N  N67  1  0.11243501  0.76089102  0.58918959  1
  N  N68  1  0.87389410  0.90368121  0.34923439  1
  N  N69  1  0.75241942  0.77255331  0.09660483  1
  N  N70  1  0.55512669  0.87079568  0.83482519  1
  N  N71  1  0.44533583  0.76113388  0.58615004  1
