# generated using pymatgen
data_Al11BN12
_symmetry_space_group_name_H-M   'P 1'
_cell_length_a   9.30764076
_cell_length_b   9.28269877
_cell_length_c   10.07935712
_cell_angle_alpha   89.71197166
_cell_angle_beta   89.58360114
_cell_angle_gamma   59.97847833
_symmetry_Int_Tables_number   1
_chemical_formula_structural   Al11BN12
_chemical_formula_sum   'Al33 B3 N36'
_cell_volume   753.99953955
_cell_formula_units_Z   3
loop_
 _symmetry_equiv_pos_site_id
 _symmetry_equiv_pos_as_xyz
  1  'x, y, z'
loop_
 _atom_site_type_symbol
 _atom_site_label
 _atom_site_symmetry_multiplicity
 _atom_site_fract_x
 _atom_site_fract_y
 _atom_site_fract_z
 _atom_site_occupancy
  Al  Al0  1  0.10265002  0.09136120  0.39388784  1
  Al  Al1  1  0.21809554  0.20172555  0.13702870  1
  Al  Al2  1  0.77829978  0.09573261  0.81291400  1
  Al  Al3  1  0.45724382  0.08513380  0.31537622  1
  Al  Al4  1  0.55685122  0.19880151  0.07240745  1
  Al  Al5  1  0.10888401  0.09565450  0.88730347  1
  Al  Al6  1  0.21638764  0.20813454  0.64065611  1
  Al  Al7  1  0.88601756  0.20478729  0.14481060  1
  Al  Al8  1  0.45335631  0.09086402  0.82634826  1
  Al  Al9  1  0.56819117  0.20388542  0.56295630  1
  Al  Al10  1  0.11038324  0.42267143  0.38701679  1
  Al  Al11  1  0.22530759  0.54176519  0.06972265  1
  Al  Al12  1  0.78111891  0.42210051  0.87932886  1
  Al  Al13  1  0.88920318  0.53637461  0.61637001  1
  Al  Al14  1  0.45178077  0.42403459  0.31823299  1
  Al  Al15  1  0.54932705  0.54534510  0.06615582  1
  Al  Al16  1  0.11277344  0.42303413  0.88642756  1
  Al  Al17  1  0.22695760  0.54281660  0.56744978  1
  Al  Al18  1  0.78556181  0.41128584  0.39313098  1
  Al  Al19  1  0.88008971  0.54303477  0.09629435  1
  Al  Al20  1  0.44504666  0.42691125  0.81705256  1
  Al  Al21  1  0.55385691  0.53945216  0.57478904  1
  Al  Al22  1  0.10409855  0.76251785  0.31791030  1
  Al  Al23  1  0.22293837  0.87876336  0.13293042  1
  Al  Al24  1  0.77321598  0.76981124  0.82429260  1
  Al  Al25  1  0.88774304  0.88504021  0.56165190  1
  Al  Al26  1  0.45593195  0.75811928  0.31787354  1
  Al  Al27  1  0.10527063  0.75919374  0.81985790  1
  Al  Al28  1  0.21586371  0.88338812  0.63962764  1
  Al  Al29  1  0.77231382  0.76646462  0.31460916  1
  Al  Al30  1  0.88044525  0.87577289  0.07127416  1
  Al  Al31  1  0.44991438  0.76295931  0.82680916  1
  Al  Al32  1  0.55792873  0.87479122  0.56861046  1
  B  B33  1  0.89097125  0.20970305  0.64636278  1
  B  B34  1  0.77483707  0.08987822  0.31067354  1
  B  B35  1  0.55466988  0.87312958  0.06617276  1
  N  N36  1  0.21948343  0.20209043  0.32892871  1
  N  N37  1  0.10292922  0.09721650  0.07466658  1
  N  N38  1  0.89688680  0.20995717  0.80860141  1
  N  N39  1  0.78974153  0.10657149  0.62539728  1
  N  N40  1  0.58076707  0.19180795  0.36990314  1
  N  N41  1  0.45716865  0.06711804  0.12118567  1
  N  N42  1  0.22132920  0.20494666  0.83050539  1
  N  N43  1  0.08693832  0.10833035  0.58471196  1
  N  N44  1  0.87897672  0.19110325  0.33140244  1
  N  N45  1  0.76970635  0.08794945  0.14784303  1
  N  N46  1  0.56091783  0.20602164  0.88338895  1
  N  N47  1  0.45483067  0.09361090  0.63111161  1
  N  N48  1  0.22715422  0.53994368  0.37648355  1
  N  N49  1  0.11072104  0.42351980  0.08018239  1
  N  N50  1  0.88819270  0.54198491  0.84890766  1
  N  N51  1  0.79270558  0.39928924  0.58949606  1
  N  N52  1  0.55353373  0.54030164  0.38249382  1
  N  N53  1  0.44517866  0.42702337  0.13007531  1
  N  N54  1  0.22630148  0.54090584  0.87828658  1
  N  N55  1  0.11378855  0.42451291  0.58104127  1
  N  N56  1  0.88521237  0.53919392  0.35251093  1
  N  N57  1  0.78014661  0.41675674  0.07371901  1
  N  N58  1  0.54919378  0.54166161  0.87601455  1
  N  N59  1  0.44609150  0.42511017  0.62855012  1
  N  N60  1  0.22352937  0.87471813  0.32967671  1
  N  N61  1  0.10456276  0.76056572  0.12689462  1
  N  N62  1  0.88585362  0.87914632  0.88298964  1
  N  N63  1  0.77710634  0.77099233  0.63147464  1
  N  N64  1  0.55713909  0.87156969  0.38329910  1
  N  N65  1  0.46161110  0.77089496  0.12150530  1
  N  N66  1  0.21872506  0.87679487  0.83399428  1
  N  N67  1  0.10607168  0.76161574  0.62605106  1
  N  N68  1  0.87443719  0.89619517  0.36945212  1
  N  N69  1  0.74996929  0.77518405  0.12064730  1
  N  N70  1  0.55560732  0.87367691  0.90184620  1
  N  N71  1  0.45247432  0.76188667  0.63338329  1
