# generated using pymatgen
data_Al11BN12
_symmetry_space_group_name_H-M   'P 1'
_cell_length_a   9.29068404
_cell_length_b   9.29145764
_cell_length_c   10.06726306
_cell_angle_alpha   89.53625943
_cell_angle_beta   89.65103303
_cell_angle_gamma   60.08046132
_symmetry_Int_Tables_number   1
_chemical_formula_structural   Al11BN12
_chemical_formula_sum   'Al33 B3 N36'
_cell_volume   753.19892836
_cell_formula_units_Z   3
loop_
 _symmetry_equiv_pos_site_id
 _symmetry_equiv_pos_as_xyz
  1  'x, y, z'
loop_
 _atom_site_type_symbol
 _atom_site_label
 _atom_site_symmetry_multiplicity
 _atom_site_fract_x
 _atom_site_fract_y
 _atom_site_fract_z
 _atom_site_occupancy
  Al  Al0  1  0.09765514  0.09630458  0.39551678  1
  Al  Al1  1  0.22362835  0.19884531  0.14064451  1
  Al  Al2  1  0.77759776  0.09502263  0.81348425  1
  Al  Al3  1  0.44482744  0.09040584  0.37854577  1
  Al  Al4  1  0.56053242  0.20104189  0.07807208  1
  Al  Al5  1  0.11073584  0.09601891  0.88507929  1
  Al  Al6  1  0.22204662  0.20572431  0.63861011  1
  Al  Al7  1  0.88895001  0.20471160  0.14334989  1
  Al  Al8  1  0.44569220  0.08571169  0.89394601  1
  Al  Al9  1  0.57257066  0.20648259  0.55972625  1
  Al  Al10  1  0.10852373  0.42649993  0.39021178  1
  Al  Al11  1  0.21843983  0.53571941  0.13532272  1
  Al  Al12  1  0.78003362  0.42545894  0.88517215  1
  Al  Al13  1  0.89080272  0.53587759  0.63657295  1
  Al  Al14  1  0.45277759  0.41820989  0.32134344  1
  Al  Al15  1  0.56177413  0.54558578  0.13842869  1
  Al  Al16  1  0.11317007  0.42561082  0.88965027  1
  Al  Al17  1  0.22015004  0.53635686  0.63169050  1
  Al  Al18  1  0.77878192  0.41547228  0.39537807  1
  Al  Al19  1  0.88391688  0.53746487  0.13794201  1
  Al  Al20  1  0.44982457  0.41946302  0.82333731  1
  Al  Al21  1  0.56375395  0.53905946  0.63761676  1
  Al  Al22  1  0.10042417  0.77012085  0.32111498  1
  Al  Al23  1  0.22778668  0.87828911  0.13792402  1
  Al  Al24  1  0.77514233  0.76155881  0.87074119  1
  Al  Al25  1  0.88858974  0.88508840  0.55978511  1
  Al  Al26  1  0.44373209  0.76239560  0.38568819  1
  Al  Al27  1  0.10527489  0.76529297  0.82277234  1
  Al  Al28  1  0.22223970  0.88023569  0.63740326  1
  Al  Al29  1  0.77165828  0.76745595  0.35035281  1
  Al  Al30  1  0.88204920  0.87608384  0.07580901  1
  Al  Al31  1  0.44766263  0.76282761  0.89318411  1
  Al  Al32  1  0.55748198  0.87542094  0.63407308  1
  B  B33  1  0.89352313  0.20876631  0.64701616  1
  B  B34  1  0.77481589  0.09252477  0.30908371  1
  B  B35  1  0.55190037  0.87390047  0.14314342  1
  N  N36  1  0.21658350  0.20493492  0.32956002  1
  N  N37  1  0.10570653  0.09685495  0.07438814  1
  N  N38  1  0.89629601  0.21157300  0.81042892  1
  N  N39  1  0.79057646  0.10486970  0.62655165  1
  N  N40  1  0.58518346  0.19171235  0.36807576  1
  N  N41  1  0.45267377  0.06701003  0.08752703  1
  N  N42  1  0.22786018  0.20429406  0.82876941  1
  N  N43  1  0.08621701  0.10928078  0.58705114  1
  N  N44  1  0.87754875  0.19524884  0.33082322  1
  N  N45  1  0.77240112  0.08810364  0.14834741  1
  N  N46  1  0.56401784  0.20298291  0.88691619  1
  N  N47  1  0.44351316  0.09453552  0.57044908  1
  N  N48  1  0.21916649  0.53665718  0.33520667  1
  N  N49  1  0.10981888  0.42440219  0.07841674  1
  N  N50  1  0.89194986  0.53806779  0.82819805  1
  N  N51  1  0.79261013  0.40179354  0.58662350  1
  N  N52  1  0.56105128  0.54114821  0.33147072  1
  N  N53  1  0.44804952  0.42418269  0.12567685  1
  N  N54  1  0.22066057  0.53634382  0.83249615  1
  N  N55  1  0.11120992  0.42563033  0.57764174  1
  N  N56  1  0.88739008  0.53342950  0.32860996  1
  N  N57  1  0.77975579  0.42162036  0.07404707  1
  N  N58  1  0.55858752  0.54385338  0.83055039  1
  N  N59  1  0.45076370  0.42058082  0.62375992  1
  N  N60  1  0.22223374  0.87874929  0.33126063  1
  N  N61  1  0.10571939  0.76524689  0.12486763  1
  N  N62  1  0.88779978  0.87956650  0.88496388  1
  N  N63  1  0.77902839  0.76096778  0.58276108  1
  N  N64  1  0.54669068  0.87591996  0.30552019  1
  N  N65  1  0.45642020  0.77377564  0.08492007  1
  N  N66  1  0.22819817  0.87451399  0.83070115  1
  N  N67  1  0.10499075  0.76668345  0.62291647  1
  N  N68  1  0.87366307  0.90243396  0.36783984  1
  N  N69  1  0.75129271  0.77079161  0.10122247  1
  N  N70  1  0.55475687  0.87402061  0.82291041  1
  N  N71  1  0.44602187  0.76325611  0.57471546  1
