# generated using pymatgen
data_Al11BN12
_symmetry_space_group_name_H-M   'P 1'
_cell_length_a   9.25677975
_cell_length_b   9.25677913
_cell_length_c   9.88913276
_cell_angle_alpha   90.07594909
_cell_angle_beta   90.07595501
_cell_angle_gamma   60.02533471
_symmetry_Int_Tables_number   1
_chemical_formula_structural   Al11BN12
_chemical_formula_sum   'Al33 B3 N36'
_cell_volume   734.03873157
_cell_formula_units_Z   3
loop_
 _symmetry_equiv_pos_site_id
 _symmetry_equiv_pos_as_xyz
  1  'x, y, z'
loop_
 _atom_site_type_symbol
 _atom_site_label
 _atom_site_symmetry_multiplicity
 _atom_site_fract_x
 _atom_site_fract_y
 _atom_site_fract_z
 _atom_site_occupancy
  Al  Al0  1  0.10518276  0.09437076  0.31440446  1
  Al  Al1  1  0.22516731  0.19937437  0.05748193  1
  Al  Al2  1  0.78049252  0.09717330  0.80499302  1
  Al  Al3  1  0.45188145  0.08783202  0.30308483  1
  Al  Al4  1  0.56142365  0.19892336  0.06366044  1
  Al  Al5  1  0.10420131  0.09756521  0.80260076  1
  Al  Al6  1  0.21894214  0.20596727  0.55732596  1
  Al  Al7  1  0.88808439  0.20476581  0.06518768  1
  Al  Al8  1  0.44686452  0.09226230  0.81416203  1
  Al  Al9  1  0.56418439  0.20337149  0.55340952  1
  Al  Al10  1  0.11120438  0.42788443  0.30601395  1
  Al  Al11  1  0.22247632  0.53915757  0.05666634  1
  Al  Al12  1  0.78088382  0.42088275  0.80260059  1
  Al  Al13  1  0.88928482  0.53562440  0.55732606  1
  Al  Al14  1  0.44961214  0.42431746  0.30689269  1
  Al  Al15  1  0.55909639  0.54145876  0.05707563  1
  Al  Al16  1  0.11070293  0.42738363  0.80754934  1
  Al  Al17  1  0.22192725  0.53860916  0.55681549  1
  Al  Al18  1  0.77768929  0.42186432  0.31440461  1
  Al  Al19  1  0.88269373  0.54184755  0.05748178  1
  Al  Al20  1  0.44592758  0.42578426  0.80755752  1
  Al  Al21  1  0.55797441  0.53566884  0.55738804  1
  Al  Al22  1  0.10763579  0.76629317  0.30689250  1
  Al  Al23  1  0.22477750  0.87577797  0.05707583  1
  Al  Al24  1  0.77558058  0.76354585  0.81416236  1
  Al  Al25  1  0.88669026  0.88086537  0.55340951  1
  Al  Al26  1  0.44701491  0.76369695  0.30281554  1
  Al  Al27  1  0.10910251  0.76260934  0.80755777  1
  Al  Al28  1  0.21898589  0.87465743  0.55738791  1
  Al  Al29  1  0.77115162  0.76856153  0.30308464  1
  Al  Al30  1  0.88224181  0.87810473  0.06366056  1
  Al  Al31  1  0.44583112  0.76251369  0.81383735  1
  Al  Al32  1  0.55579115  0.87247257  0.55871280  1
  B  B33  1  0.88422567  0.20090760  0.55088477  1
  B  B34  1  0.77705145  0.09373286  0.30948371  1
  B  B35  1  0.55576631  0.87244745  0.05323904  1
  N  N36  1  0.22568702  0.20446024  0.36501296  1
  N  N37  1  0.10990377  0.09514318  0.12245138  1
  N  N38  1  0.88831566  0.20499713  0.87418117  1
  N  N39  1  0.79042216  0.10710335  0.61242478  1
  N  N40  1  0.57965654  0.19187566  0.35879368  1
  N  N41  1  0.45735320  0.06938431  0.10890460  1
  N  N42  1  0.22092811  0.20375962  0.86480816  1
  N  N43  1  0.08469480  0.10684643  0.60622886  1
  N  N44  1  0.87675807  0.19343959  0.38041754  1
  N  N45  1  0.77949222  0.09617339  0.14301603  1
  N  N46  1  0.56017932  0.20358944  0.87022206  1
  N  N47  1  0.44646321  0.09462532  0.61964339  1
  N  N48  1  0.22266247  0.53934361  0.36505357  1
  N  N49  1  0.11067766  0.42735836  0.11430136  1
  N  N50  1  0.88707867  0.53760908  0.86480801  1
  N  N51  1  0.79016388  0.40137708  0.60622871  1
  N  N52  1  0.55348496  0.54211725  0.36599887  1
  N  N53  1  0.44561983  0.42774564  0.11561620  1
  N  N54  1  0.22243972  0.53912130  0.86534029  1
  N  N55  1  0.11097127  0.42765343  0.61636257  1
  N  N56  1  0.88777983  0.54236752  0.36501294  1
  N  N57  1  0.77846159  0.42658507  0.12245141  1
  N  N58  1  0.55852305  0.53693696  0.86477050  1
  N  N59  1  0.44522840  0.42538717  0.61480855  1
  N  N60  1  0.22543523  0.87016657  0.36599880  1
  N  N61  1  0.11106424  0.76230118  0.11561608  1
  N  N62  1  0.88690791  0.87686049  0.87022228  1
  N  N63  1  0.77794355  0.76314497  0.61964371  1
  N  N64  1  0.55534941  0.87202991  0.37023000  1
  N  N65  1  0.45692293  0.77360430  0.10796476  1
  N  N66  1  0.22025492  0.87520485  0.86477084  1
  N  N67  1  0.10870557  0.76191023  0.61480874  1
  N  N68  1  0.87519421  0.89633765  0.35879372  1
  N  N69  1  0.75270341  0.77403372  0.10890445  1
  N  N70  1  0.55572339  0.87240506  0.88761037  1
  N  N71  1  0.44510244  0.76178524  0.62096133  1
