# generated using pymatgen
data_Al11BN12
_symmetry_space_group_name_H-M   'P 1'
_cell_length_a   9.26170841
_cell_length_b   9.26865994
_cell_length_c   10.15573830
_cell_angle_alpha   89.76591525
_cell_angle_beta   89.77860722
_cell_angle_gamma   60.16554328
_symmetry_Int_Tables_number   1
_chemical_formula_structural   Al11BN12
_chemical_formula_sum   'Al33 B3 N36'
_cell_volume   756.25391421
_cell_formula_units_Z   3
loop_
 _symmetry_equiv_pos_site_id
 _symmetry_equiv_pos_as_xyz
  1  'x, y, z'
loop_
 _atom_site_type_symbol
 _atom_site_label
 _atom_site_symmetry_multiplicity
 _atom_site_fract_x
 _atom_site_fract_y
 _atom_site_fract_z
 _atom_site_occupancy
  Al  Al0  1  0.09984257  0.09398938  0.39354620  1
  Al  Al1  1  0.21796632  0.20148727  0.13450117  1
  Al  Al2  1  0.77950241  0.09658578  0.81168672  1
  Al  Al3  1  0.45575078  0.08356253  0.31238283  1
  Al  Al4  1  0.55736778  0.19694204  0.06989382  1
  Al  Al5  1  0.10982285  0.09618539  0.88566734  1
  Al  Al6  1  0.21462703  0.21062327  0.63925680  1
  Al  Al7  1  0.88768759  0.20179868  0.14321523  1
  Al  Al8  1  0.45333910  0.09381034  0.82220150  1
  Al  Al9  1  0.56807288  0.20442967  0.56039012  1
  Al  Al10  1  0.10752339  0.42339886  0.38534899  1
  Al  Al11  1  0.22433385  0.54250504  0.06879041  1
  Al  Al12  1  0.78160782  0.42561831  0.88160736  1
  Al  Al13  1  0.89392771  0.53216959  0.63927297  1
  Al  Al14  1  0.44945733  0.42052798  0.31660609  1
  Al  Al15  1  0.55805704  0.54164986  0.11138515  1
  Al  Al16  1  0.10898081  0.42539638  0.88929109  1
  Al  Al17  1  0.22611872  0.54351465  0.56488874  1
  Al  Al18  1  0.78058887  0.41397884  0.39360117  1
  Al  Al19  1  0.88427974  0.53479041  0.13466588  1
  Al  Al20  1  0.44354035  0.42617556  0.81750026  1
  Al  Al21  1  0.56249720  0.53586090  0.62401824  1
  Al  Al22  1  0.10221446  0.76269977  0.31628297  1
  Al  Al23  1  0.22878774  0.87688162  0.13930048  1
  Al  Al24  1  0.77520193  0.77089332  0.82211627  1
  Al  Al25  1  0.88818144  0.88475456  0.56095530  1
  Al  Al26  1  0.43956265  0.75752326  0.39077261  1
  Al  Al27  1  0.10770922  0.75940364  0.81802697  1
  Al  Al28  1  0.21982631  0.88175836  0.64013486  1
  Al  Al29  1  0.76601036  0.77210062  0.31232451  1
  Al  Al30  1  0.88159429  0.87343905  0.07006017  1
  Al  Al31  1  0.44262282  0.76539078  0.88979444  1
  Al  Al32  1  0.55984092  0.87817137  0.56776016  1
  B  B33  1  0.89360003  0.20851446  0.64472182  1
  B  B34  1  0.77387625  0.09031266  0.30968047  1
  B  B35  1  0.55872389  0.87589722  0.06070870  1
  N  N36  1  0.21771864  0.20327552  0.32574493  1
  N  N37  1  0.10451783  0.09379542  0.07293354  1
  N  N38  1  0.89760070  0.21211100  0.80727057  1
  N  N39  1  0.79012451  0.10685501  0.62476373  1
  N  N40  1  0.58005804  0.19028994  0.36870514  1
  N  N41  1  0.45706536  0.06567514  0.11969095  1
  N  N42  1  0.22060485  0.20852530  0.82873347  1
  N  N43  1  0.08677972  0.10785891  0.58386416  1
  N  N44  1  0.87788141  0.19226403  0.32937860  1
  N  N45  1  0.76984775  0.08610009  0.14721371  1
  N  N46  1  0.56232999  0.20697589  0.88276942  1
  N  N47  1  0.45332475  0.09499939  0.63027865  1
  N  N48  1  0.22556342  0.54106535  0.37556877  1
  N  N49  1  0.10752105  0.42419487  0.07816399  1
  N  N50  1  0.89225967  0.53835058  0.82816300  1
  N  N51  1  0.79463542  0.40110293  0.58532027  1
  N  N52  1  0.55901576  0.53615408  0.34846482  1
  N  N53  1  0.44380125  0.42241035  0.12754839  1
  N  N54  1  0.22596872  0.54261387  0.87972282  1
  N  N55  1  0.10924776  0.42592663  0.57451872  1
  N  N56  1  0.88718266  0.53409770  0.32541515  1
  N  N57  1  0.78216635  0.41718814  0.07047252  1
  N  N58  1  0.55739639  0.54372808  0.83740187  1
  N  N59  1  0.44386670  0.42211956  0.62746508  1
  N  N60  1  0.22234289  0.87661704  0.32917913  1
  N  N61  1  0.10584203  0.76017524  0.12794482  1
  N  N62  1  0.88909004  0.87942409  0.88271526  1
  N  N63  1  0.77709213  0.77070186  0.63006201  1
  N  N64  1  0.55628482  0.87392062  0.38255577  1
  N  N65  1  0.45265740  0.77168281  0.08041340  1
  N  N66  1  0.22518530  0.87705710  0.82818709  1
  N  N67  1  0.10611475  0.76115996  0.62677263  1
  N  N68  1  0.87389259  0.89615711  0.36939605  1
  N  N69  1  0.74861755  0.77386438  0.11942029  1
  N  N70  1  0.56204060  0.88067608  0.89798854  1
  N  N71  1  0.44047134  0.76261622  0.58237845  1
