# generated using pymatgen
data_Al11BN12
_symmetry_space_group_name_H-M   'P 1'
_cell_length_a   9.28241514
_cell_length_b   9.28259969
_cell_length_c   10.02579634
_cell_angle_alpha   89.36967845
_cell_angle_beta   89.36492667
_cell_angle_gamma   59.97280285
_symmetry_Int_Tables_number   1
_chemical_formula_structural   Al11BN12
_chemical_formula_sum   'Al33 B3 N36'
_cell_volume   747.86934942
_cell_formula_units_Z   3
loop_
 _symmetry_equiv_pos_site_id
 _symmetry_equiv_pos_as_xyz
  1  'x, y, z'
loop_
 _atom_site_type_symbol
 _atom_site_label
 _atom_site_symmetry_multiplicity
 _atom_site_fract_x
 _atom_site_fract_y
 _atom_site_fract_z
 _atom_site_occupancy
  Al  Al0  1  0.09990369  0.09552313  0.40672152  1
  Al  Al1  1  0.22444445  0.20007395  0.15122056  1
  Al  Al2  1  0.77746529  0.09422518  0.83511127  1
  Al  Al3  1  0.45002412  0.08902617  0.38859274  1
  Al  Al4  1  0.56099834  0.19816941  0.08559555  1
  Al  Al5  1  0.10902266  0.09609561  0.89819699  1
  Al  Al6  1  0.21892416  0.20577148  0.64981101  1
  Al  Al7  1  0.88781313  0.20443756  0.15295327  1
  Al  Al8  1  0.44285618  0.08607774  0.90130840  1
  Al  Al9  1  0.57000040  0.20137906  0.58501221  1
  Al  Al10  1  0.11047871  0.42711288  0.40135680  1
  Al  Al11  1  0.22216060  0.53889736  0.15174186  1
  Al  Al12  1  0.77948028  0.42563920  0.89821589  1
  Al  Al13  1  0.88923461  0.53541823  0.64984605  1
  Al  Al14  1  0.44858371  0.42985549  0.39554503  1
  Al  Al15  1  0.55915145  0.54242104  0.15084838  1
  Al  Al16  1  0.11123588  0.42781614  0.89996199  1
  Al  Al17  1  0.22215537  0.53861457  0.64923997  1
  Al  Al18  1  0.77892376  0.41652235  0.40670912  1
  Al  Al19  1  0.88342980  0.54112345  0.15121977  1
  Al  Al20  1  0.44142924  0.43396750  0.89995639  1
  Al  Al21  1  0.55877452  0.53484854  0.65076131  1
  Al  Al22  1  0.11316471  0.76525716  0.39570973  1
  Al  Al23  1  0.22574465  0.87576950  0.15083974  1
  Al  Al24  1  0.76944936  0.75946875  0.90120797  1
  Al  Al25  1  0.88483785  0.88648364  0.58541707  1
  Al  Al26  1  0.44679411  0.76339726  0.39489806  1
  Al  Al27  1  0.11734002  0.75805039  0.89982210  1
  Al  Al28  1  0.21831442  0.87535906  0.65077629  1
  Al  Al29  1  0.77244897  0.76666247  0.38874637  1
  Al  Al30  1  0.88151536  0.87763880  0.08544818  1
  Al  Al31  1  0.44664234  0.76326627  0.90426205  1
  Al  Al32  1  0.55534902  0.87195798  0.64710235  1
  B  B33  1  0.89208722  0.20868999  0.66149171  1
  B  B34  1  0.77822626  0.09476564  0.34829128  1
  B  B35  1  0.55488786  0.87148869  0.15223373  1
  N  N36  1  0.21948339  0.20445399  0.34188441  1
  N  N37  1  0.10809847  0.09677151  0.08844418  1
  N  N38  1  0.89534832  0.21196932  0.82411824  1
  N  N39  1  0.78907746  0.10575647  0.64425599  1
  N  N40  1  0.58972692  0.19069188  0.38233498  1
  N  N41  1  0.45364232  0.06645728  0.09810860  1
  N  N42  1  0.22376247  0.20521123  0.84011310  1
  N  N43  1  0.08517834  0.10732727  0.59924095  1
  N  N44  1  0.87648860  0.19308519  0.34446252  1
  N  N45  1  0.77770049  0.09428169  0.12448764  1
  N  N46  1  0.55457750  0.20448239  0.88568099  1
  N  N47  1  0.44264072  0.09185444  0.58324865  1
  N  N48  1  0.22219165  0.53892268  0.34076345  1
  N  N49  1  0.11123789  0.42786324  0.09081355  1
  N  N50  1  0.88863305  0.54032892  0.84012677  1
  N  N51  1  0.79076417  0.40173859  0.59923437  1
  N  N52  1  0.55985385  0.53982243  0.34050299  1
  N  N53  1  0.44314462  0.43420116  0.09380036  1
  N  N54  1  0.22244266  0.53899263  0.83856949  1
  N  N55  1  0.11133671  0.42787327  0.59040438  1
  N  N56  1  0.88782065  0.53615067  0.34190150  1
  N  N57  1  0.78015980  0.42472448  0.08845859  1
  N  N58  1  0.55547028  0.54160720  0.84111411  1
  N  N59  1  0.44301862  0.43180516  0.58819891  1
  N  N60  1  0.22319224  0.87643351  0.34052097  1
  N  N61  1  0.11751421  0.75980708  0.09366389  1
  N  N62  1  0.88783518  0.87121979  0.88543172  1
  N  N63  1  0.77531621  0.75915077  0.58339047  1
  N  N64  1  0.55574924  0.87227848  0.31628432  1
  N  N65  1  0.45665316  0.77329334  0.09716217  1
  N  N66  1  0.22501395  0.87209111  0.84110342  1
  N  N67  1  0.11526988  0.75954785  0.58834926  1
  N  N68  1  0.87406135  0.90636557  0.38252984  1
  N  N69  1  0.74983414  0.77027876  0.09800251  1
  N  N70  1  0.55482480  0.87148748  0.83413043  1
  N  N71  1  0.44499555  0.76154613  0.58619746  1
