# generated using pymatgen
data_Al11BN12
_symmetry_space_group_name_H-M   'P 1'
_cell_length_a   9.27564850
_cell_length_b   9.28311669
_cell_length_c   10.15892148
_cell_angle_alpha   89.52913486
_cell_angle_beta   89.83244195
_cell_angle_gamma   60.06859475
_symmetry_Int_Tables_number   1
_chemical_formula_structural   Al11BN12
_chemical_formula_sum   'Al33 B3 N36'
_cell_volume   758.05555427
_cell_formula_units_Z   3
loop_
 _symmetry_equiv_pos_site_id
 _symmetry_equiv_pos_as_xyz
  1  'x, y, z'
loop_
 _atom_site_type_symbol
 _atom_site_label
 _atom_site_symmetry_multiplicity
 _atom_site_fract_x
 _atom_site_fract_y
 _atom_site_fract_z
 _atom_site_occupancy
  Al  Al0  1  0.09923349  0.09524868  0.39557818  1
  Al  Al1  1  0.22611716  0.19630201  0.14159606  1
  Al  Al2  1  0.77799091  0.09612240  0.81293322  1
  Al  Al3  1  0.44377836  0.09171454  0.38590241  1
  Al  Al4  1  0.56206552  0.19994119  0.07627159  1
  Al  Al5  1  0.11045192  0.09677329  0.88653870  1
  Al  Al6  1  0.22068242  0.20781210  0.64097398  1
  Al  Al7  1  0.88958570  0.20277117  0.14480308  1
  Al  Al8  1  0.44662107  0.08549211  0.88984449  1
  Al  Al9  1  0.57268220  0.20910588  0.56101400  1
  Al  Al10  1  0.10856660  0.42722974  0.38977908  1
  Al  Al11  1  0.21865659  0.53511197  0.13601619  1
  Al  Al12  1  0.78072485  0.42608736  0.88646573  1
  Al  Al13  1  0.89404609  0.52919550  0.63719018  1
  Al  Al14  1  0.45367953  0.41700862  0.31988140  1
  Al  Al15  1  0.56289416  0.54512269  0.13915525  1
  Al  Al16  1  0.11191051  0.42660184  0.89130249  1
  Al  Al17  1  0.21935639  0.53723289  0.63377425  1
  Al  Al18  1  0.77854367  0.41642502  0.39482697  1
  Al  Al19  1  0.88579459  0.53386566  0.13791870  1
  Al  Al20  1  0.44938588  0.41976672  0.82372200  1
  Al  Al21  1  0.56386094  0.53847017  0.64055977  1
  Al  Al22  1  0.09908629  0.77007124  0.31957758  1
  Al  Al23  1  0.22865148  0.87759377  0.13842134  1
  Al  Al24  1  0.78157563  0.76615941  0.81567973  1
  Al  Al25  1  0.88856327  0.88474292  0.55966374  1
  Al  Al26  1  0.44248545  0.76072987  0.39079140  1
  Al  Al27  1  0.10497261  0.76571619  0.82409349  1
  Al  Al28  1  0.22058267  0.88106778  0.64050885  1
  Al  Al29  1  0.76750990  0.77306612  0.31857681  1
  Al  Al30  1  0.87939193  0.87421458  0.07087985  1
  Al  Al31  1  0.44929517  0.76311865  0.89030931  1
  Al  Al32  1  0.55116637  0.87872876  0.62947065  1
  B  B33  1  0.89368468  0.20825540  0.64670428  1
  B  B34  1  0.77426430  0.09167673  0.31070613  1
  B  B35  1  0.55298630  0.87252810  0.12537888  1
  N  N36  1  0.21747085  0.20509353  0.32925363  1
  N  N37  1  0.10626859  0.09621683  0.07484174  1
  N  N38  1  0.89644666  0.21228921  0.81001341  1
  N  N39  1  0.79149289  0.10520290  0.62704590  1
  N  N40  1  0.58559432  0.19208239  0.37047673  1
  N  N41  1  0.45565299  0.06263524  0.08384688  1
  N  N42  1  0.22635910  0.20585389  0.82953837  1
  N  N43  1  0.08669539  0.10955767  0.58693244  1
  N  N44  1  0.87794591  0.19455114  0.33093001  1
  N  N45  1  0.77289395  0.08552286  0.14947879  1
  N  N46  1  0.56476957  0.20323359  0.88718383  1
  N  N47  1  0.44144361  0.10071657  0.57531414  1
  N  N48  1  0.21981856  0.53628146  0.33345468  1
  N  N49  1  0.11117182  0.42271617  0.07872671  1
  N  N50  1  0.89321643  0.53506539  0.82831512  1
  N  N51  1  0.79149734  0.40209108  0.58543544  1
  N  N52  1  0.56049259  0.54137414  0.33023689  1
  N  N53  1  0.44893987  0.42279444  0.12575790  1
  N  N54  1  0.21987690  0.53652219  0.83296650  1
  N  N55  1  0.11148960  0.42642975  0.57608632  1
  N  N56  1  0.88741376  0.53436516  0.32914330  1
  N  N57  1  0.78038495  0.42019983  0.07426595  1
  N  N58  1  0.55917152  0.54308753  0.83155062  1
  N  N59  1  0.45014705  0.42138381  0.62654111  1
  N  N60  1  0.22200664  0.87765140  0.33000466  1
  N  N61  1  0.10409613  0.76527499  0.12407177  1
  N  N62  1  0.88520889  0.87900464  0.88381063  1
  N  N63  1  0.78418645  0.76496269  0.61977889  1
  N  N64  1  0.54383602  0.87659378  0.33242352  1
  N  N65  1  0.45953753  0.77399674  0.08244186  1
  N  N66  1  0.22705476  0.87534704  0.83224725  1
  N  N67  1  0.10435272  0.76740429  0.62514294  1
  N  N68  1  0.87246029  0.89939539  0.37019621  1
  N  N69  1  0.75004723  0.77307325  0.12156713  1
  N  N70  1  0.55129615  0.87590495  0.81984420  1
  N  N71  1  0.44329209  0.76109888  0.57824406  1
