# generated using pymatgen
data_Al11BN12
_symmetry_space_group_name_H-M   'P 1'
_cell_length_a   9.25772568
_cell_length_b   9.26159243
_cell_length_c   9.94480679
_cell_angle_alpha   89.74901411
_cell_angle_beta   89.63645071
_cell_angle_gamma   59.96654962
_symmetry_Int_Tables_number   1
_chemical_formula_structural   Al11BN12
_chemical_formula_sum   'Al33 B3 N36'
_cell_volume   738.17835408
_cell_formula_units_Z   3
loop_
 _symmetry_equiv_pos_site_id
 _symmetry_equiv_pos_as_xyz
  1  'x, y, z'
loop_
 _atom_site_type_symbol
 _atom_site_label
 _atom_site_symmetry_multiplicity
 _atom_site_fract_x
 _atom_site_fract_y
 _atom_site_fract_z
 _atom_site_occupancy
  Al  Al0  1  0.09949294  0.09457305  0.40512837  1
  Al  Al1  1  0.22482167  0.20023304  0.15031105  1
  Al  Al2  1  0.78050970  0.09596163  0.87833466  1
  Al  Al3  1  0.45133572  0.09001502  0.39136065  1
  Al  Al4  1  0.56244996  0.19823421  0.13641350  1
  Al  Al5  1  0.10984971  0.09639378  0.89502943  1
  Al  Al6  1  0.21955429  0.20557665  0.64801470  1
  Al  Al7  1  0.88686726  0.20333882  0.14462682  1
  Al  Al8  1  0.44606928  0.08944431  0.90161824  1
  Al  Al9  1  0.56307191  0.20512107  0.64714216  1
  Al  Al10  1  0.11030079  0.42708930  0.40067465  1
  Al  Al11  1  0.22205703  0.53877411  0.15057008  1
  Al  Al12  1  0.77963632  0.42676853  0.89469795  1
  Al  Al13  1  0.88893082  0.53631948  0.64864539  1
  Al  Al14  1  0.45105746  0.42311356  0.39768600  1
  Al  Al15  1  0.55886631  0.54245423  0.14963517  1
  Al  Al16  1  0.11142812  0.42813820  0.89865577  1
  Al  Al17  1  0.22262405  0.53932934  0.64813088  1
  Al  Al18  1  0.77781366  0.41650671  0.40505514  1
  Al  Al19  1  0.88390387  0.54113736  0.15025950  1
  Al  Al20  1  0.44334929  0.42945697  0.89870572  1
  Al  Al21  1  0.55943038  0.53491145  0.64890775  1
  Al  Al22  1  0.10635259  0.76782200  0.39838215  1
  Al  Al23  1  0.22562995  0.87531031  0.14973703  1
  Al  Al24  1  0.77319071  0.76357865  0.90326904  1
  Al  Al25  1  0.88929226  0.87839753  0.64842644  1
  Al  Al26  1  0.44543237  0.76265255  0.39398185  1
  Al  Al27  1  0.11107372  0.76088835  0.90046057  1
  Al  Al28  1  0.21817081  0.87578356  0.64952045  1
  Al  Al29  1  0.77283046  0.76772810  0.39216016  1
  Al  Al30  1  0.88129092  0.87925001  0.14349572  1
  Al  Al31  1  0.44712796  0.76382832  0.90264077  1
  Al  Al32  1  0.55658999  0.87280865  0.64706544  1
  B  B33  1  0.88819126  0.20381252  0.65727280  1
  B  B34  1  0.77665483  0.09526289  0.36079499  1
  B  B35  1  0.55572251  0.87180696  0.15290686  1
  N  N36  1  0.21989740  0.20334770  0.34185847  1
  N  N37  1  0.10931269  0.09604868  0.08733518  1
  N  N38  1  0.89330196  0.20985791  0.82218846  1
  N  N39  1  0.79311332  0.10835356  0.62006466  1
  N  N40  1  0.58523565  0.19063384  0.33902579  1
  N  N41  1  0.45671758  0.06954554  0.09724285  1
  N  N42  1  0.22490520  0.20492416  0.83992304  1
  N  N43  1  0.08725948  0.10666563  0.59741740  1
  N  N44  1  0.87301101  0.19006162  0.33850261  1
  N  N45  1  0.78130838  0.09495644  0.07363230  1
  N  N46  1  0.55000613  0.20737066  0.84266032  1
  N  N47  1  0.44696039  0.09419175  0.58345453  1
  N  N48  1  0.22215424  0.53904241  0.34084403  1
  N  N49  1  0.11129538  0.42726804  0.09073820  1
  N  N50  1  0.88812086  0.54221846  0.84068628  1
  N  N51  1  0.79057698  0.40362586  0.59731362  1
  N  N52  1  0.55815461  0.53805527  0.34014046  1
  N  N53  1  0.44528628  0.42894795  0.09116427  1
  N  N54  1  0.22226709  0.54003654  0.83938785  1
  N  N55  1  0.11155532  0.42811729  0.59036005  1
  N  N56  1  0.88670879  0.53658789  0.34179650  1
  N  N57  1  0.77973921  0.42549165  0.08706782  1
  N  N58  1  0.55479771  0.54143774  0.84074511  1
  N  N59  1  0.44540268  0.42745131  0.58773795  1
  N  N60  1  0.22098586  0.87491060  0.34023730  1
  N  N61  1  0.11080538  0.76223080  0.09282964  1
  N  N62  1  0.89083416  0.86616428  0.84120900  1
  N  N63  1  0.77814937  0.76309822  0.58364217  1
  N  N64  1  0.55508595  0.87193764  0.31728389  1
  N  N65  1  0.45743449  0.77370206  0.09710595  1
  N  N66  1  0.22425263  0.87124518  0.84162892  1
  N  N67  1  0.11122638  0.76159995  0.58785202  1
  N  N68  1  0.87320669  0.90249641  0.33993864  1
  N  N69  1  0.75360262  0.77351669  0.09870273  1
  N  N70  1  0.55629392  0.87208584  0.83575572  1
  N  N71  1  0.44541468  0.76209777  0.58601640  1
