# generated using pymatgen
data_Al11BN12
_symmetry_space_group_name_H-M   'P 1'
_cell_length_a   9.26747792
_cell_length_b   9.26838180
_cell_length_c   9.94459621
_cell_angle_alpha   89.82970216
_cell_angle_beta   89.65684689
_cell_angle_gamma   60.00724796
_symmetry_Int_Tables_number   1
_chemical_formula_structural   Al11BN12
_chemical_formula_sum   'Al33 B3 N36'
_cell_volume   739.78783585
_cell_formula_units_Z   3
loop_
 _symmetry_equiv_pos_site_id
 _symmetry_equiv_pos_as_xyz
  1  'x, y, z'
loop_
 _atom_site_type_symbol
 _atom_site_label
 _atom_site_symmetry_multiplicity
 _atom_site_fract_x
 _atom_site_fract_y
 _atom_site_fract_z
 _atom_site_occupancy
  Al  Al0  1  0.10159372  0.09503013  0.32047940  1
  Al  Al1  1  0.22904590  0.20139683  0.06665816  1
  Al  Al2  1  0.78040366  0.09688818  0.81457153  1
  Al  Al3  1  0.45274266  0.08775500  0.30811919  1
  Al  Al4  1  0.55866605  0.19818248  0.06450292  1
  Al  Al5  1  0.10600310  0.09698838  0.85198019  1
  Al  Al6  1  0.21801726  0.20697327  0.56186267  1
  Al  Al7  1  0.88299186  0.20516289  0.08684293  1
  Al  Al8  1  0.44732703  0.09181507  0.81664100  1
  Al  Al9  1  0.56696209  0.20471038  0.55621495  1
  Al  Al10  1  0.11039185  0.42856301  0.31150931  1
  Al  Al11  1  0.22253542  0.53872040  0.06093866  1
  Al  Al12  1  0.78083363  0.42183606  0.81537437  1
  Al  Al13  1  0.89078890  0.53524523  0.56235502  1
  Al  Al14  1  0.45010679  0.42388630  0.31088026  1
  Al  Al15  1  0.55756451  0.54248343  0.05963144  1
  Al  Al16  1  0.11144156  0.42801996  0.81125083  1
  Al  Al17  1  0.22307211  0.53911252  0.56041953  1
  Al  Al18  1  0.77538038  0.42291464  0.31248626  1
  Al  Al19  1  0.88283045  0.54293798  0.06076129  1
  Al  Al20  1  0.44546575  0.42608242  0.81092601  1
  Al  Al21  1  0.55952496  0.53460140  0.56258587  1
  Al  Al22  1  0.10655058  0.76627072  0.31153940  1
  Al  Al23  1  0.22917560  0.86823261  0.06589810  1
  Al  Al24  1  0.77563287  0.76368044  0.81698152  1
  Al  Al25  1  0.88836327  0.88321120  0.55640967  1
  Al  Al26  1  0.44790648  0.76316966  0.30858106  1
  Al  Al27  1  0.10968461  0.76179840  0.81104184  1
  Al  Al28  1  0.21735085  0.87707250  0.56242401  1
  Al  Al29  1  0.77198449  0.76796665  0.30754529  1
  Al  Al30  1  0.88195642  0.87470124  0.06521299  1
  Al  Al31  1  0.44641784  0.76275114  0.81704015  1
  Al  Al32  1  0.55662749  0.87301390  0.56209714  1
  B  B33  1  0.89232915  0.20423795  0.59560946  1
  B  B34  1  0.77690506  0.09624774  0.30298039  1
  B  B35  1  0.55620303  0.87142426  0.05885336  1
  N  N36  1  0.22449261  0.20419978  0.36851739  1
  N  N37  1  0.11423069  0.09194995  0.11468270  1
  N  N38  1  0.88187825  0.20755449  0.88846429  1
  N  N39  1  0.79399037  0.11033184  0.62115864  1
  N  N40  1  0.57867120  0.19254945  0.36250486  1
  N  N41  1  0.45804249  0.06798487  0.11487663  1
  N  N42  1  0.22403689  0.20721355  0.87366616  1
  N  N43  1  0.08055721  0.11082046  0.60464659  1
  N  N44  1  0.87115079  0.19285873  0.33866380  1
  N  N45  1  0.77252745  0.08949312  0.13909225  1
  N  N46  1  0.55795056  0.20412239  0.87265954  1
  N  N47  1  0.44703950  0.09533544  0.62292249  1
  N  N48  1  0.22260944  0.53921394  0.36991228  1
  N  N49  1  0.10962187  0.42886626  0.12066725  1
  N  N50  1  0.88837199  0.53840154  0.86911812  1
  N  N51  1  0.79335149  0.39879948  0.61865652  1
  N  N52  1  0.55377985  0.54164694  0.37226665  1
  N  N53  1  0.44562143  0.42710468  0.11956173  1
  N  N54  1  0.22237338  0.53913675  0.86994456  1
  N  N55  1  0.11194130  0.42819119  0.62107912  1
  N  N56  1  0.88644347  0.54040516  0.37086116  1
  N  N57  1  0.77425577  0.43356138  0.12221028  1
  N  N58  1  0.55637740  0.53822063  0.86849929  1
  N  N59  1  0.44582683  0.42567854  0.61926555  1
  N  N60  1  0.22510868  0.86989553  0.37013367  1
  N  N61  1  0.10985660  0.76073840  0.12109543  1
  N  N62  1  0.88784378  0.87489745  0.87320999  1
  N  N63  1  0.77852123  0.76411678  0.62328223  1
  N  N64  1  0.55567752  0.87173696  0.37474092  1
  N  N65  1  0.45836213  0.77190035  0.11441706  1
  N  N66  1  0.22340003  0.86876441  0.87339199  1
  N  N67  1  0.10941113  0.76225555  0.61954035  1
  N  N68  1  0.87524079  0.89571675  0.36276491  1
  N  N69  1  0.75260415  0.77263347  0.11345703  1
  N  N70  1  0.55555267  0.87234690  0.89203779  1
  N  N71  1  0.44517492  0.76256741  0.62507873  1
