# generated using pymatgen
data_Al11BN12
_symmetry_space_group_name_H-M   'P 1'
_cell_length_a   9.27730607
_cell_length_b   9.27647044
_cell_length_c   10.03536940
_cell_angle_alpha   89.86739282
_cell_angle_beta   89.63169182
_cell_angle_gamma   60.11223962
_symmetry_Int_Tables_number   1
_chemical_formula_structural   Al11BN12
_chemical_formula_sum   'Al33 B3 N36'
_cell_volume   748.77187076
_cell_formula_units_Z   3
loop_
 _symmetry_equiv_pos_site_id
 _symmetry_equiv_pos_as_xyz
  1  'x, y, z'
loop_
 _atom_site_type_symbol
 _atom_site_label
 _atom_site_symmetry_multiplicity
 _atom_site_fract_x
 _atom_site_fract_y
 _atom_site_fract_z
 _atom_site_occupancy
  Al  Al0  1  0.09649429  0.10253003  0.39545545  1
  Al  Al1  1  0.22157728  0.19625438  0.13473067  1
  Al  Al2  1  0.77904218  0.09340692  0.81596041  1
  Al  Al3  1  0.45748443  0.08393072  0.31788354  1
  Al  Al4  1  0.55756040  0.19857561  0.07393201  1
  Al  Al5  1  0.10803629  0.10086978  0.88885163  1
  Al  Al6  1  0.21888864  0.20174675  0.63990345  1
  Al  Al7  1  0.88748335  0.20167725  0.14596500  1
  Al  Al8  1  0.45433787  0.08937592  0.82922155  1
  Al  Al9  1  0.56831448  0.20381309  0.56445040  1
  Al  Al10  1  0.10770031  0.43357613  0.32009898  1
  Al  Al11  1  0.22173161  0.53871757  0.06995187  1
  Al  Al12  1  0.77738379  0.43188251  0.82370801  1
  Al  Al13  1  0.89122001  0.53829491  0.57325470  1
  Al  Al14  1  0.44924026  0.42392926  0.31902338  1
  Al  Al15  1  0.55749390  0.54041599  0.06868180  1
  Al  Al16  1  0.10929785  0.43545858  0.82190970  1
  Al  Al17  1  0.22306155  0.53848647  0.56835739  1
  Al  Al18  1  0.77567024  0.42199326  0.35042014  1
  Al  Al19  1  0.88163748  0.54130376  0.06886531  1
  Al  Al20  1  0.44535094  0.42629411  0.81977690  1
  Al  Al21  1  0.55631098  0.53693507  0.57462815  1
  Al  Al22  1  0.10739407  0.76841902  0.32002299  1
  Al  Al23  1  0.22869242  0.86615023  0.06966229  1
  Al  Al24  1  0.77604350  0.76633407  0.82543474  1
  Al  Al25  1  0.88762544  0.88401760  0.56465996  1
  Al  Al26  1  0.44540240  0.76427758  0.31717971  1
  Al  Al27  1  0.11037798  0.76313207  0.81955444  1
  Al  Al28  1  0.22257417  0.87014542  0.57584956  1
  Al  Al29  1  0.77162671  0.76669362  0.31500152  1
  Al  Al30  1  0.88225325  0.87349490  0.07414127  1
  Al  Al31  1  0.44629516  0.76404245  0.82610065  1
  Al  Al32  1  0.55844288  0.87264818  0.57080106  1
  B  B33  1  0.89506547  0.20430572  0.64982553  1
  B  B34  1  0.77462522  0.08920092  0.31295001  1
  B  B35  1  0.55620666  0.87142385  0.06816049  1
  N  N36  1  0.22110977  0.20060762  0.33309798  1
  N  N37  1  0.10168904  0.09854061  0.07848103  1
  N  N38  1  0.90003745  0.20355944  0.81360428  1
  N  N39  1  0.78984933  0.10592593  0.62718423  1
  N  N40  1  0.58017109  0.19185030  0.37108833  1
  N  N41  1  0.45927707  0.06522264  0.12223734  1
  N  N42  1  0.22389830  0.20417596  0.83620912  1
  N  N43  1  0.08346752  0.11086783  0.58818581  1
  N  N44  1  0.87770661  0.18963739  0.33581554  1
  N  N45  1  0.77033600  0.08621934  0.14922745  1
  N  N46  1  0.56159073  0.20535068  0.88460102  1
  N  N47  1  0.45592717  0.09171097  0.63192840  1
  N  N48  1  0.22244445  0.53999244  0.37903869  1
  N  N49  1  0.10557488  0.43340574  0.12768935  1
  N  N50  1  0.88827805  0.54285997  0.87854344  1
  N  N51  1  0.78814221  0.40855603  0.61823511  1
  N  N52  1  0.54974367  0.54296177  0.38362742  1
  N  N53  1  0.44398484  0.42668219  0.12976484  1
  N  N54  1  0.22339095  0.54078421  0.88074720  1
  N  N55  1  0.11004077  0.43312927  0.62990047  1
  N  N56  1  0.88709193  0.54262982  0.38209837  1
  N  N57  1  0.77606989  0.42634321  0.11968441  1
  N  N58  1  0.55499503  0.53919702  0.87771634  1
  N  N59  1  0.44483842  0.42510328  0.62926858  1
  N  N60  1  0.22563038  0.86928964  0.38271923  1
  N  N61  1  0.10991059  0.76167778  0.13096131  1
  N  N62  1  0.88883617  0.87675320  0.88419089  1
  N  N63  1  0.77907147  0.76549309  0.63305386  1
  N  N64  1  0.55657175  0.86967149  0.38429489  1
  N  N65  1  0.45572539  0.77249296  0.12396542  1
  N  N66  1  0.22522823  0.86742885  0.87846570  1
  N  N67  1  0.10875993  0.76162835  0.62926840  1
  N  N68  1  0.87468272  0.89553164  0.37089890  1
  N  N69  1  0.75225459  0.77111712  0.12303147  1
  N  N70  1  0.55727274  0.87135865  0.90241799  1
  N  N71  1  0.44692610  0.76311659  0.63574401  1
