# generated using pymatgen
data_Al11BN12
_symmetry_space_group_name_H-M   'P 1'
_cell_length_a   9.28233314
_cell_length_b   9.27137913
_cell_length_c   10.05764379
_cell_angle_alpha   89.76207778
_cell_angle_beta   89.68566419
_cell_angle_gamma   60.11467768
_symmetry_Int_Tables_number   1
_chemical_formula_structural   Al11BN12
_chemical_formula_sum   'Al33 B3 N36'
_cell_volume   750.45033284
_cell_formula_units_Z   3
loop_
 _symmetry_equiv_pos_site_id
 _symmetry_equiv_pos_as_xyz
  1  'x, y, z'
loop_
 _atom_site_type_symbol
 _atom_site_label
 _atom_site_symmetry_multiplicity
 _atom_site_fract_x
 _atom_site_fract_y
 _atom_site_fract_z
 _atom_site_occupancy
  Al  Al0  1  0.09859188  0.10083114  0.39414805  1
  Al  Al1  1  0.22107801  0.19645916  0.13471652  1
  Al  Al2  1  0.77923164  0.09503738  0.81386644  1
  Al  Al3  1  0.45830316  0.08375000  0.31709516  1
  Al  Al4  1  0.55735163  0.19866907  0.07311850  1
  Al  Al5  1  0.10700119  0.10107568  0.88564146  1
  Al  Al6  1  0.21851446  0.20199926  0.63951616  1
  Al  Al7  1  0.88617233  0.20452463  0.14490962  1
  Al  Al8  1  0.45477234  0.08941733  0.82837235  1
  Al  Al9  1  0.56821501  0.20364808  0.56406752  1
  Al  Al10  1  0.10799829  0.43269718  0.32302619  1
  Al  Al11  1  0.22147963  0.53904813  0.07020290  1
  Al  Al12  1  0.78068491  0.42221267  0.88180197  1
  Al  Al13  1  0.89121104  0.53910520  0.57516328  1
  Al  Al14  1  0.45034389  0.42403337  0.31950151  1
  Al  Al15  1  0.54980168  0.54447332  0.06933676  1
  Al  Al16  1  0.10915679  0.43490129  0.82284841  1
  Al  Al17  1  0.22294774  0.53886534  0.56835741  1
  Al  Al18  1  0.78129683  0.41001978  0.39275498  1
  Al  Al19  1  0.88428985  0.54485264  0.07053260  1
  Al  Al20  1  0.44479459  0.42675423  0.81911683  1
  Al  Al21  1  0.55394560  0.53840169  0.57698318  1
  Al  Al22  1  0.10778856  0.76814324  0.31956991  1
  Al  Al23  1  0.22765188  0.86773779  0.06852011  1
  Al  Al24  1  0.77593561  0.76630831  0.82456656  1
  Al  Al25  1  0.88765285  0.88433652  0.56404636  1
  Al  Al26  1  0.44669461  0.76323341  0.31775896  1
  Al  Al27  1  0.11009083  0.76286782  0.81926449  1
  Al  Al28  1  0.22219414  0.87054055  0.57563711  1
  Al  Al29  1  0.77197142  0.76574336  0.31565998  1
  Al  Al30  1  0.88201255  0.87456236  0.07332364  1
  Al  Al31  1  0.44632774  0.76429527  0.82501554  1
  Al  Al32  1  0.55811777  0.87328725  0.57018755  1
  B  B33  1  0.89168538  0.21029981  0.64654592  1
  B  B34  1  0.77477326  0.08883593  0.31116640  1
  B  B35  1  0.55560529  0.87236789  0.06767614  1
  N  N36  1  0.22232277  0.19939341  0.33241706  1
  N  N37  1  0.10072464  0.09982831  0.07629060  1
  N  N38  1  0.89636595  0.21169548  0.80879060  1
  N  N39  1  0.78961018  0.10574929  0.62631421  1
  N  N40  1  0.58112688  0.19158681  0.37068032  1
  N  N41  1  0.45890802  0.06559981  0.12165960  1
  N  N42  1  0.22440945  0.20347583  0.83518621  1
  N  N43  1  0.08417955  0.11036130  0.58707322  1
  N  N44  1  0.87886133  0.19125436  0.33138768  1
  N  N45  1  0.76998495  0.08688283  0.14868906  1
  N  N46  1  0.56212778  0.20559329  0.88415153  1
  N  N47  1  0.45564239  0.09204877  0.63154846  1
  N  N48  1  0.22333731  0.53974945  0.37934981  1
  N  N49  1  0.10601934  0.43332082  0.12895998  1
  N  N50  1  0.89000645  0.54542616  0.87874134  1
  N  N51  1  0.79186804  0.39909087  0.58902579  1
  N  N52  1  0.55114276  0.54237745  0.38206878  1
  N  N53  1  0.44360675  0.42637013  0.13070485  1
  N  N54  1  0.22342767  0.54038269  0.88117825  1
  N  N55  1  0.11008026  0.43309241  0.62930426  1
  N  N56  1  0.88679475  0.54238975  0.38074453  1
  N  N57  1  0.77940911  0.41764785  0.07825735  1
  N  N58  1  0.54938722  0.54221742  0.87677835  1
  N  N59  1  0.44450988  0.42485854  0.62932777  1
  N  N60  1  0.22639636  0.86832355  0.38250624  1
  N  N61  1  0.10985324  0.76226002  0.13054513  1
  N  N62  1  0.88837987  0.87822640  0.88359417  1
  N  N63  1  0.77859610  0.76605862  0.63266479  1
  N  N64  1  0.55685943  0.86988452  0.38415813  1
  N  N65  1  0.45523291  0.77322722  0.12450597  1
  N  N66  1  0.22460497  0.86801908  0.87743037  1
  N  N67  1  0.10867223  0.76169691  0.62922142  1
  N  N68  1  0.87517043  0.89583772  0.37023578  1
  N  N69  1  0.75154166  0.77184052  0.12388751  1
  N  N70  1  0.55731256  0.87141549  0.90233684  1
  N  N71  1  0.44658667  0.76395866  0.63528918  1
