# generated using pymatgen
data_Al11BN12
_symmetry_space_group_name_H-M   'P 1'
_cell_length_a   9.26517240
_cell_length_b   9.26662263
_cell_length_c   10.05924696
_cell_angle_alpha   89.82110687
_cell_angle_beta   89.46550874
_cell_angle_gamma   60.06694341
_symmetry_Int_Tables_number   1
_chemical_formula_structural   Al11BN12
_chemical_formula_sum   'Al33 B3 N36'
_cell_volume   748.41774012
_cell_formula_units_Z   3
loop_
 _symmetry_equiv_pos_site_id
 _symmetry_equiv_pos_as_xyz
  1  'x, y, z'
loop_
 _atom_site_type_symbol
 _atom_site_label
 _atom_site_symmetry_multiplicity
 _atom_site_fract_x
 _atom_site_fract_y
 _atom_site_fract_z
 _atom_site_occupancy
  Al  Al0  1  0.09307748  0.10540566  0.38300131  1
  Al  Al1  1  0.22399493  0.19581630  0.12940027  1
  Al  Al2  1  0.78012300  0.09468617  0.81121769  1
  Al  Al3  1  0.45843073  0.08482051  0.31042574  1
  Al  Al4  1  0.55733267  0.19785714  0.06345175  1
  Al  Al5  1  0.10791848  0.10047774  0.88521443  1
  Al  Al6  1  0.21691515  0.20260312  0.63029006  1
  Al  Al7  1  0.88918838  0.19835675  0.12729382  1
  Al  Al8  1  0.45273052  0.08865987  0.81921472  1
  Al  Al9  1  0.56742758  0.20474357  0.55568546  1
  Al  Al10  1  0.10759576  0.43519747  0.31174414  1
  Al  Al11  1  0.22255004  0.53807025  0.06037782  1
  Al  Al12  1  0.77934170  0.42665127  0.81117316  1
  Al  Al13  1  0.89056828  0.53589378  0.56102351  1
  Al  Al14  1  0.44948763  0.42460306  0.30993496  1
  Al  Al15  1  0.55870692  0.54018057  0.05911514  1
  Al  Al16  1  0.10791412  0.43513951  0.81257824  1
  Al  Al17  1  0.22313521  0.53883938  0.55965798  1
  Al  Al18  1  0.77237009  0.42950039  0.31295189  1
  Al  Al19  1  0.88245337  0.54164218  0.05935224  1
  Al  Al20  1  0.44628269  0.42595293  0.81077008  1
  Al  Al21  1  0.55967251  0.53457506  0.56178219  1
  Al  Al22  1  0.10696954  0.76970415  0.31089285  1
  Al  Al23  1  0.23136552  0.86382473  0.06152034  1
  Al  Al24  1  0.77565999  0.76412737  0.81640275  1
  Al  Al25  1  0.88800805  0.88326327  0.55650191  1
  Al  Al26  1  0.44477191  0.76590028  0.30841734  1
  Al  Al27  1  0.11034517  0.76293846  0.81089181  1
  Al  Al28  1  0.22222422  0.86999059  0.56590070  1
  Al  Al29  1  0.77207799  0.76835304  0.30607460  1
  Al  Al30  1  0.88255663  0.87278865  0.06364551  1
  Al  Al31  1  0.44696180  0.76225195  0.81726653  1
  Al  Al32  1  0.55855133  0.87195133  0.56157410  1
  B  B33  1  0.89023243  0.20600445  0.62153413  1
  B  B34  1  0.77519483  0.09212864  0.30274134  1
  B  B35  1  0.55650595  0.87118033  0.05986829  1
  N  N36  1  0.22166578  0.20228644  0.32687791  1
  N  N37  1  0.10947842  0.09452747  0.07500035  1
  N  N38  1  0.89091776  0.20511563  0.84193818  1
  N  N39  1  0.79158042  0.10878483  0.61950969  1
  N  N40  1  0.58044815  0.19305274  0.36289991  1
  N  N41  1  0.46050904  0.06470537  0.11495044  1
  N  N42  1  0.22165616  0.20326128  0.82477252  1
  N  N43  1  0.07790080  0.11348413  0.57833875  1
  N  N44  1  0.87577036  0.19253804  0.32207857  1
  N  N45  1  0.76999486  0.08570288  0.13888205  1
  N  N46  1  0.55871203  0.20452067  0.87440488  1
  N  N47  1  0.45534275  0.09156267  0.62214244  1
  N  N48  1  0.22243619  0.54144863  0.37059606  1
  N  N49  1  0.10623315  0.43299715  0.11934259  1
  N  N50  1  0.88681027  0.54067056  0.87048155  1
  N  N51  1  0.79022963  0.40422083  0.61676641  1
  N  N52  1  0.55200594  0.54304737  0.37252244  1
  N  N53  1  0.44518244  0.42621370  0.12059568  1
  N  N54  1  0.22321703  0.53979347  0.87133740  1
  N  N55  1  0.10866755  0.43393148  0.62012281  1
  N  N56  1  0.88542467  0.54265301  0.37133554  1
  N  N57  1  0.77505066  0.43098838  0.12210660  1
  N  N58  1  0.55695613  0.53785486  0.86995939  1
  N  N59  1  0.44564029  0.42591910  0.61983843  1
  N  N60  1  0.22458757  0.87135105  0.37412959  1
  N  N61  1  0.11016394  0.76118475  0.12215919  1
  N  N62  1  0.88820177  0.87432254  0.87392127  1
  N  N63  1  0.77921227  0.76361151  0.62370519  1
  N  N64  1  0.55671267  0.87024066  0.37564449  1
  N  N65  1  0.45756252  0.77128935  0.11572135  1
  N  N66  1  0.22568531  0.86630527  0.87068818  1
  N  N67  1  0.10868790  0.76203572  0.62085373  1
  N  N68  1  0.87465239  0.89721637  0.36299836  1
  N  N69  1  0.75293049  0.77097942  0.11420015  1
  N  N70  1  0.55649779  0.87111924  0.89372375  1
  N  N71  1  0.44746181  0.76152934  0.62630852  1
