# generated using pymatgen
data_Al11BN12
_symmetry_space_group_name_H-M   'P 1'
_cell_length_a   9.27710779
_cell_length_b   9.28848525
_cell_length_c   10.16924436
_cell_angle_alpha   89.53750202
_cell_angle_beta   89.85580898
_cell_angle_gamma   60.04944744
_symmetry_Int_Tables_number   1
_chemical_formula_structural   Al11BN12
_chemical_formula_sum   'Al33 B3 N36'
_cell_volume   759.23842484
_cell_formula_units_Z   3
loop_
 _symmetry_equiv_pos_site_id
 _symmetry_equiv_pos_as_xyz
  1  'x, y, z'
loop_
 _atom_site_type_symbol
 _atom_site_label
 _atom_site_symmetry_multiplicity
 _atom_site_fract_x
 _atom_site_fract_y
 _atom_site_fract_z
 _atom_site_occupancy
  Al  Al0  1  0.10010840  0.09477646  0.39555270  1
  Al  Al1  1  0.22641845  0.19571169  0.14122324  1
  Al  Al2  1  0.77812449  0.09587048  0.81270150  1
  Al  Al3  1  0.44375779  0.09294495  0.38996907  1
  Al  Al4  1  0.56245400  0.19967623  0.07499390  1
  Al  Al5  1  0.10981005  0.09714805  0.88678968  1
  Al  Al6  1  0.22004053  0.20873610  0.64180058  1
  Al  Al7  1  0.88957739  0.20283520  0.14507532  1
  Al  Al8  1  0.44651827  0.08607103  0.88443868  1
  Al  Al9  1  0.57243736  0.21010849  0.56207220  1
  Al  Al10  1  0.10909481  0.42712710  0.38962089  1
  Al  Al11  1  0.21868643  0.53498660  0.13599353  1
  Al  Al12  1  0.78085358  0.42610404  0.88649381  1
  Al  Al13  1  0.89422000  0.52924116  0.63722242  1
  Al  Al14  1  0.45421771  0.41669086  0.31955939  1
  Al  Al15  1  0.56329228  0.54482595  0.13851210  1
  Al  Al16  1  0.11095358  0.42732852  0.89143421  1
  Al  Al17  1  0.21915363  0.53744169  0.63385563  1
  Al  Al18  1  0.77855347  0.41679472  0.39469547  1
  Al  Al19  1  0.88569872  0.53340143  0.13852391  1
  Al  Al20  1  0.44887403  0.41990858  0.82368517  1
  Al  Al21  1  0.56381029  0.53796227  0.64179607  1
  Al  Al22  1  0.09971794  0.77011039  0.31927405  1
  Al  Al23  1  0.22877811  0.87788992  0.13775382  1
  Al  Al24  1  0.77984472  0.76733181  0.81255814  1
  Al  Al25  1  0.88891474  0.88475373  0.55919903  1
  Al  Al26  1  0.44224483  0.75894430  0.39446326  1
  Al  Al27  1  0.10381777  0.76566711  0.82427244  1
  Al  Al28  1  0.21975398  0.88114482  0.64187410  1
  Al  Al29  1  0.76506190  0.77397867  0.32153228  1
  Al  Al30  1  0.87917261  0.87486088  0.07107204  1
  Al  Al31  1  0.44875644  0.76337495  0.88604358  1
  Al  Al32  1  0.55288874  0.87732509  0.61649039  1
  B  B33  1  0.89373002  0.20816469  0.64652812  1
  B  B34  1  0.77444932  0.09153158  0.31099803  1
  B  B35  1  0.55558209  0.87084756  0.10464898  1
  N  N36  1  0.21903920  0.20430261  0.32876081  1
  N  N37  1  0.10619211  0.09634577  0.07496211  1
  N  N38  1  0.89611494  0.21240903  0.81006730  1
  N  N39  1  0.79190002  0.10522960  0.62702504  1
  N  N40  1  0.58602272  0.19230154  0.37095754  1
  N  N41  1  0.45707439  0.06019029  0.08152615  1
  N  N42  1  0.22459527  0.20686159  0.83011080  1
  N  N43  1  0.08692175  0.10948001  0.58695872  1
  N  N44  1  0.87846163  0.19458871  0.33088728  1
  N  N45  1  0.77261686  0.08583540  0.14940128  1
  N  N46  1  0.56462596  0.20324638  0.88669073  1
  N  N47  1  0.43956027  0.10607089  0.57948280  1
  N  N48  1  0.22025351  0.53625828  0.33308970  1
  N  N49  1  0.11109867  0.42269262  0.07886229  1
  N  N50  1  0.89235432  0.53577753  0.82851538  1
  N  N51  1  0.79133544  0.40234201  0.58532952  1
  N  N52  1  0.56054435  0.54162010  0.32912641  1
  N  N53  1  0.44905145  0.42233923  0.12533636  1
  N  N54  1  0.21945383  0.53656080  0.83326755  1
  N  N55  1  0.11115417  0.42679114  0.57575495  1
  N  N56  1  0.88805403  0.53443264  0.32823544  1
  N  N57  1  0.78066894  0.42007664  0.07424689  1
  N  N58  1  0.55932597  0.54208650  0.83252474  1
  N  N59  1  0.44990853  0.42189442  0.62720460  1
  N  N60  1  0.22352378  0.87728872  0.32892394  1
  N  N61  1  0.10414982  0.76522367  0.12383326  1
  N  N62  1  0.88390008  0.87884421  0.88434563  1
  N  N63  1  0.78667708  0.76414353  0.62013427  1
  N  N64  1  0.55163220  0.87234941  0.36706263  1
  N  N65  1  0.46075421  0.77447835  0.08007321  1
  N  N66  1  0.22522309  0.87584595  0.83328630  1
  N  N67  1  0.10380424  0.76758652  0.62573462  1
  N  N68  1  0.87342461  0.89932141  0.36939800  1
  N  N69  1  0.74555238  0.77506923  0.12203119  1
  N  N70  1  0.55031543  0.87610802  0.81635548  1
  N  N71  1  0.44022000  0.75843605  0.58169866  1
