# generated using pymatgen
data_Al11BN12
_symmetry_space_group_name_H-M   'P 1'
_cell_length_a   9.27378363
_cell_length_b   9.27772756
_cell_length_c   10.12850119
_cell_angle_alpha   89.70024522
_cell_angle_beta   89.75620129
_cell_angle_gamma   60.11343311
_symmetry_Int_Tables_number   1
_chemical_formula_structural   Al11BN12
_chemical_formula_sum   'Al33 B3 N36'
_cell_volume   755.54952599
_cell_formula_units_Z   3
loop_
 _symmetry_equiv_pos_site_id
 _symmetry_equiv_pos_as_xyz
  1  'x, y, z'
loop_
 _atom_site_type_symbol
 _atom_site_label
 _atom_site_symmetry_multiplicity
 _atom_site_fract_x
 _atom_site_fract_y
 _atom_site_fract_z
 _atom_site_occupancy
  Al  Al0  1  0.10124545  0.09275563  0.39437274  1
  Al  Al1  1  0.21802453  0.20157633  0.13501571  1
  Al  Al2  1  0.77866337  0.09662062  0.81199059  1
  Al  Al3  1  0.45580078  0.08600159  0.31347733  1
  Al  Al4  1  0.55704863  0.19814790  0.07105076  1
  Al  Al5  1  0.10831902  0.09710472  0.88656502  1
  Al  Al6  1  0.21475991  0.21014006  0.63928714  1
  Al  Al7  1  0.88725300  0.20264528  0.14338669  1
  Al  Al8  1  0.45266622  0.09390683  0.82363740  1
  Al  Al9  1  0.56803830  0.20392326  0.56197880  1
  Al  Al10  1  0.10832982  0.42336888  0.38582760  1
  Al  Al11  1  0.22478036  0.54186157  0.06922887  1
  Al  Al12  1  0.78455516  0.42322124  0.88255972  1
  Al  Al13  1  0.89195963  0.53242249  0.63903991  1
  Al  Al14  1  0.45146979  0.42244675  0.31683396  1
  Al  Al15  1  0.55267342  0.54225314  0.06782792  1
  Al  Al16  1  0.10837907  0.42533278  0.88938830  1
  Al  Al17  1  0.22557544  0.54314014  0.56624090  1
  Al  Al18  1  0.78743144  0.41043594  0.39331624  1
  Al  Al19  1  0.88318235  0.53532276  0.13499701  1
  Al  Al20  1  0.44474314  0.42741739  0.81665918  1
  Al  Al21  1  0.55641888  0.53607454  0.57717872  1
  Al  Al22  1  0.10285737  0.76227374  0.31627874  1
  Al  Al23  1  0.22697950  0.87722159  0.13450250  1
  Al  Al24  1  0.77381941  0.77123607  0.82234754  1
  Al  Al25  1  0.88833367  0.88481823  0.56158021  1
  Al  Al26  1  0.44786894  0.75929184  0.34788953  1
  Al  Al27  1  0.10571759  0.75884007  0.81873175  1
  Al  Al28  1  0.21938857  0.88149813  0.64067530  1
  Al  Al29  1  0.76838264  0.77285407  0.31312279  1
  Al  Al30  1  0.88076244  0.87380381  0.07026611  1
  Al  Al31  1  0.44514028  0.76644103  0.85540301  1
  Al  Al32  1  0.55842373  0.87578870  0.57014975  1
  B  B33  1  0.89242802  0.20951199  0.64490040  1
  B  B34  1  0.77446690  0.09037548  0.30978933  1
  B  B35  1  0.55647733  0.87306909  0.06473877  1
  N  N36  1  0.21793084  0.20301924  0.32704165  1
  N  N37  1  0.10388278  0.09521526  0.07348654  1
  N  N38  1  0.89639396  0.21213871  0.80766003  1
  N  N39  1  0.79015456  0.10674935  0.62488762  1
  N  N40  1  0.58059854  0.19129340  0.36929436  1
  N  N41  1  0.45690284  0.06734211  0.12082000  1
  N  N42  1  0.21992249  0.20806692  0.82919008  1
  N  N43  1  0.08737377  0.10720225  0.58440336  1
  N  N44  1  0.87877526  0.19153375  0.32973997  1
  N  N45  1  0.77005244  0.08648807  0.14746087  1
  N  N46  1  0.56146309  0.20699551  0.88296386  1
  N  N47  1  0.45344069  0.09521159  0.63031417  1
  N  N48  1  0.22644788  0.54047993  0.37572652  1
  N  N49  1  0.10754794  0.42457265  0.07904434  1
  N  N50  1  0.89055252  0.53865772  0.82833382  1
  N  N51  1  0.79596860  0.39928776  0.58611088  1
  N  N52  1  0.55580582  0.53520547  0.38270224  1
  N  N53  1  0.44568263  0.42571990  0.12978206  1
  N  N54  1  0.22563435  0.54134627  0.87893506  1
  N  N55  1  0.10878250  0.42616926  0.57542658  1
  N  N56  1  0.88692112  0.53479624  0.32643961  1
  N  N57  1  0.78458418  0.41629211  0.07334600  1
  N  N58  1  0.55220036  0.53939751  0.87554086  1
  N  N59  1  0.44523461  0.42398335  0.62879448  1
  N  N60  1  0.22112722  0.87660806  0.32916071  1
  N  N61  1  0.10548922  0.76007317  0.12724129  1
  N  N62  1  0.88701366  0.87940104  0.88268021  1
  N  N63  1  0.77791429  0.77109840  0.62949191  1
  N  N64  1  0.55687522  0.87391912  0.38388081  1
  N  N65  1  0.45834065  0.77238407  0.10291389  1
  N  N66  1  0.21847679  0.87854434  0.83223173  1
  N  N67  1  0.10657785  0.76095557  0.62659273  1
  N  N68  1  0.87466860  0.89653233  0.36962692  1
  N  N69  1  0.74964592  0.77429230  0.12053525  1
  N  N70  1  0.55915700  0.87839580  0.89985124  1
  N  N71  1  0.44885012  0.76195963  0.61705717  1
