# generated using pymatgen
data_Al11BN12
_symmetry_space_group_name_H-M   'P 1'
_cell_length_a   9.27753768
_cell_length_b   9.28991606
_cell_length_c   10.04011486
_cell_angle_alpha   89.52416735
_cell_angle_beta   89.44210130
_cell_angle_gamma   59.97578484
_symmetry_Int_Tables_number   1
_chemical_formula_structural   Al11BN12
_chemical_formula_sum   'Al33 B3 N36'
_cell_volume   749.17591061
_cell_formula_units_Z   3
loop_
 _symmetry_equiv_pos_site_id
 _symmetry_equiv_pos_as_xyz
  1  'x, y, z'
loop_
 _atom_site_type_symbol
 _atom_site_label
 _atom_site_symmetry_multiplicity
 _atom_site_fract_x
 _atom_site_fract_y
 _atom_site_fract_z
 _atom_site_occupancy
  Al  Al0  1  0.09782415  0.09624426  0.39466443  1
  Al  Al1  1  0.22218464  0.19987655  0.13902792  1
  Al  Al2  1  0.77684341  0.09474259  0.81419198  1
  Al  Al3  1  0.44730861  0.08900476  0.37359662  1
  Al  Al4  1  0.56007527  0.19753317  0.08168116  1
  Al  Al5  1  0.11004599  0.09646813  0.88388330  1
  Al  Al6  1  0.22131915  0.20544188  0.63680700  1
  Al  Al7  1  0.88849377  0.20643136  0.14244916  1
  Al  Al8  1  0.44564915  0.08627493  0.89123489  1
  Al  Al9  1  0.57387602  0.19909989  0.56089367  1
  Al  Al10  1  0.10947405  0.42594683  0.38927126  1
  Al  Al11  1  0.22270144  0.53365296  0.13833058  1
  Al  Al12  1  0.78000818  0.42663405  0.88315289  1
  Al  Al13  1  0.88963405  0.53780881  0.63650426  1
  Al  Al14  1  0.44651998  0.43082033  0.38108223  1
  Al  Al15  1  0.55867728  0.54311804  0.13898050  1
  Al  Al16  1  0.11227917  0.42672379  0.88738216  1
  Al  Al17  1  0.22608169  0.53350563  0.63480461  1
  Al  Al18  1  0.77899744  0.41561191  0.39415254  1
  Al  Al19  1  0.88253606  0.53998762  0.13840800  1
  Al  Al20  1  0.44427141  0.43268618  0.89116025  1
  Al  Al21  1  0.55926896  0.53411852  0.63782972  1
  Al  Al22  1  0.10213627  0.76963402  0.32422921  1
  Al  Al23  1  0.22855323  0.87819553  0.13666619  1
  Al  Al24  1  0.77027642  0.76163603  0.89204871  1
  Al  Al25  1  0.89149691  0.88590483  0.55921728  1
  Al  Al26  1  0.44581138  0.76293373  0.38375829  1
  Al  Al27  1  0.10716883  0.76333236  0.83323123  1
  Al  Al28  1  0.22169583  0.87788271  0.63629872  1
  Al  Al29  1  0.77137989  0.76431221  0.37519775  1
  Al  Al30  1  0.88377063  0.87683021  0.07850390  1
  Al  Al31  1  0.44822280  0.76334782  0.89093184  1
  Al  Al32  1  0.55837711  0.87255817  0.63392991  1
  B  B33  1  0.89347319  0.20967998  0.64673580  1
  B  B34  1  0.77298850  0.09385845  0.30818064  1
  B  B35  1  0.55464336  0.87016645  0.14077163  1
  N  N36  1  0.21718208  0.20418871  0.32861076  1
  N  N37  1  0.10554275  0.09704967  0.07327767  1
  N  N38  1  0.89571335  0.21200129  0.80974415  1
  N  N39  1  0.78989981  0.10474520  0.62675583  1
  N  N40  1  0.58412946  0.19220299  0.36404042  1
  N  N41  1  0.45193490  0.06604508  0.08719547  1
  N  N42  1  0.22685368  0.20451104  0.82730971  1
  N  N43  1  0.08599836  0.10846335  0.58653575  1
  N  N44  1  0.87781461  0.19577259  0.33026705  1
  N  N45  1  0.77244826  0.08957585  0.14794651  1
  N  N46  1  0.56366620  0.20092947  0.88472457  1
  N  N47  1  0.44393789  0.09149605  0.56884287  1
  N  N48  1  0.22230099  0.53419697  0.32958265  1
  N  N49  1  0.10998805  0.42614147  0.07731723  1
  N  N50  1  0.88932878  0.54320688  0.82741261  1
  N  N51  1  0.79166148  0.40244658  0.58682816  1
  N  N52  1  0.55931320  0.54005781  0.32781690  1
  N  N53  1  0.44313925  0.43435342  0.08353894  1
  N  N54  1  0.22713478  0.53270340  0.82838639  1
  N  N55  1  0.11182515  0.42676940  0.57772804  1
  N  N56  1  0.88723403  0.53484555  0.32831440  1
  N  N57  1  0.77884335  0.42328223  0.07327135  1
  N  N58  1  0.55565708  0.54145710  0.82813939  1
  N  N59  1  0.44556160  0.42985341  0.57376757  1
  N  N60  1  0.22395825  0.87850171  0.32992412  1
  N  N61  1  0.10894817  0.76382631  0.12089729  1
  N  N62  1  0.88721678  0.87935555  0.88625447  1
  N  N63  1  0.77711530  0.75986109  0.56860222  1
  N  N64  1  0.55459453  0.87106302  0.30334828  1
  N  N65  1  0.45755537  0.77245183  0.08358097  1
  N  N66  1  0.22802752  0.87385697  0.83014554  1
  N  N67  1  0.10801762  0.76309676  0.61582980  1
  N  N68  1  0.87392029  0.90255937  0.36633739  1
  N  N69  1  0.74964729  0.76970985  0.08665986  1
  N  N70  1  0.55738144  0.87243630  0.82164927  1
  N  N71  1  0.44731870  0.76102860  0.57424781  1
