# generated using pymatgen
data_Al11BN12
_symmetry_space_group_name_H-M   'P 1'
_cell_length_a   9.26336643
_cell_length_b   9.27294044
_cell_length_c   10.15696688
_cell_angle_alpha   89.76373020
_cell_angle_beta   89.78295519
_cell_angle_gamma   60.17936126
_symmetry_Int_Tables_number   1
_chemical_formula_structural   Al11BN12
_chemical_formula_sum   'Al33 B3 N36'
_cell_volume   756.93486943
_cell_formula_units_Z   3
loop_
 _symmetry_equiv_pos_site_id
 _symmetry_equiv_pos_as_xyz
  1  'x, y, z'
loop_
 _atom_site_type_symbol
 _atom_site_label
 _atom_site_symmetry_multiplicity
 _atom_site_fract_x
 _atom_site_fract_y
 _atom_site_fract_z
 _atom_site_occupancy
  Al  Al0  1  0.09999975  0.09381577  0.39371668  1
  Al  Al1  1  0.21787156  0.20148588  0.13451879  1
  Al  Al2  1  0.77930215  0.09661965  0.81174715  1
  Al  Al3  1  0.45572057  0.08390148  0.31237864  1
  Al  Al4  1  0.55743385  0.19692172  0.07011878  1
  Al  Al5  1  0.10963336  0.09631612  0.88594162  1
  Al  Al6  1  0.21452478  0.21061578  0.63928893  1
  Al  Al7  1  0.88792651  0.20158978  0.14336681  1
  Al  Al8  1  0.45325332  0.09432682  0.82230313  1
  Al  Al9  1  0.56806419  0.20400669  0.56053268  1
  Al  Al10  1  0.10777489  0.42337360  0.38528976  1
  Al  Al11  1  0.22425349  0.54248126  0.06906704  1
  Al  Al12  1  0.78357208  0.42449779  0.88119157  1
  Al  Al13  1  0.89369135  0.53223747  0.63945765  1
  Al  Al14  1  0.45086009  0.42168301  0.31668323  1
  Al  Al15  1  0.55577973  0.53968119  0.08333292  1
  Al  Al16  1  0.10912312  0.42543546  0.88937045  1
  Al  Al17  1  0.22568325  0.54354940  0.56510327  1
  Al  Al18  1  0.78343642  0.41243742  0.39321255  1
  Al  Al19  1  0.88390087  0.53486850  0.13485918  1
  Al  Al20  1  0.44443573  0.42728715  0.81729719  1
  Al  Al21  1  0.56067258  0.53319267  0.59729578  1
  Al  Al22  1  0.10221687  0.76250362  0.31629522  1
  Al  Al23  1  0.22925966  0.87666233  0.13948412  1
  Al  Al24  1  0.77514020  0.77102901  0.82208916  1
  Al  Al25  1  0.88823488  0.88476415  0.56100025  1
  Al  Al26  1  0.43864614  0.75959508  0.39052544  1
  Al  Al27  1  0.10768463  0.75919707  0.81818886  1
  Al  Al28  1  0.21956724  0.88200053  0.64054266  1
  Al  Al29  1  0.76598869  0.77224384  0.31223907  1
  Al  Al30  1  0.88161742  0.87345373  0.07006688  1
  Al  Al31  1  0.44108107  0.76853851  0.88910639  1
  Al  Al32  1  0.55986159  0.87844094  0.56823761  1
  B  B33  1  0.89380127  0.20860693  0.64494930  1
  B  B34  1  0.77373824  0.09025167  0.30970015  1
  B  B35  1  0.55841836  0.87584320  0.06128863  1
  N  N36  1  0.21760650  0.20323578  0.32584628  1
  N  N37  1  0.10475585  0.09349791  0.07309958  1
  N  N38  1  0.89770618  0.21175182  0.80727334  1
  N  N39  1  0.79004139  0.10684068  0.62477772  1
  N  N40  1  0.57999232  0.19040202  0.36862495  1
  N  N41  1  0.45698368  0.06611612  0.11983216  1
  N  N42  1  0.22045820  0.20854733  0.82877588  1
  N  N43  1  0.08690334  0.10770007  0.58392250  1
  N  N44  1  0.87812507  0.19191507  0.32938218  1
  N  N45  1  0.76990317  0.08604612  0.14729598  1
  N  N46  1  0.56215407  0.20727434  0.88285576  1
  N  N47  1  0.45322370  0.09535075  0.63031830  1
  N  N48  1  0.22580438  0.54087918  0.37553180  1
  N  N49  1  0.10764594  0.42423492  0.07835863  1
  N  N50  1  0.89219918  0.53854702  0.82809658  1
  N  N51  1  0.79655575  0.39977024  0.58641136  1
  N  N52  1  0.55739479  0.53374501  0.37062650  1
  N  N53  1  0.44476306  0.42351251  0.12867558  1
  N  N54  1  0.22601558  0.54242215  0.87972906  1
  N  N55  1  0.10919520  0.42592641  0.57455850  1
  N  N56  1  0.88703489  0.53424207  0.32548252  1
  N  N57  1  0.78460775  0.41577076  0.07152665  1
  N  N58  1  0.55502815  0.54224759  0.85816304  1
  N  N59  1  0.44394912  0.42237803  0.62890318  1
  N  N60  1  0.22210421  0.87659107  0.32929410  1
  N  N61  1  0.10595514  0.76016261  0.12797737  1
  N  N62  1  0.88904087  0.87943680  0.88270270  1
  N  N63  1  0.77723413  0.77071104  0.63001162  1
  N  N64  1  0.55633170  0.87413347  0.38265710  1
  N  N65  1  0.45277756  0.77310648  0.08190150  1
  N  N66  1  0.22431662  0.87754308  0.82833076  1
  N  N67  1  0.10618576  0.76111018  0.62681878  1
  N  N68  1  0.87391614  0.89611470  0.36942046  1
  N  N69  1  0.74874929  0.77394746  0.11948185  1
  N  N70  1  0.56202062  0.88114992  0.89787145  1
  N  N71  1  0.43990538  0.76465582  0.58462030  1
