# generated using pymatgen
data_Al11BN12
_symmetry_space_group_name_H-M   'P 1'
_cell_length_a   9.25680642
_cell_length_b   9.25680591
_cell_length_c   9.88996221
_cell_angle_alpha   90.08192517
_cell_angle_beta   90.08192849
_cell_angle_gamma   60.01883925
_symmetry_Int_Tables_number   1
_chemical_formula_structural   Al11BN12
_chemical_formula_sum   'Al33 B3 N36'
_cell_volume   734.05639279
_cell_formula_units_Z   3
loop_
 _symmetry_equiv_pos_site_id
 _symmetry_equiv_pos_as_xyz
  1  'x, y, z'
loop_
 _atom_site_type_symbol
 _atom_site_label
 _atom_site_symmetry_multiplicity
 _atom_site_fract_x
 _atom_site_fract_y
 _atom_site_fract_z
 _atom_site_occupancy
  Al  Al0  1  0.10192005  0.09581718  0.41715045  1
  Al  Al1  1  0.22472302  0.20017563  0.16274563  1
  Al  Al2  1  0.77845751  0.09511775  0.90428610  1
  Al  Al3  1  0.45087371  0.09098435  0.40655426  1
  Al  Al4  1  0.56404605  0.19774489  0.16717271  1
  Al  Al5  1  0.10698456  0.09623163  0.90595301  1
  Al  Al6  1  0.21931624  0.20605173  0.66229252  1
  Al  Al7  1  0.88629446  0.20295404  0.16478250  1
  Al  Al8  1  0.44798138  0.09035366  0.91658181  1
  Al  Al9  1  0.56144097  0.20473706  0.65539461  1
  Al  Al10  1  0.11095761  0.42761647  0.41315838  1
  Al  Al11  1  0.22226737  0.53892780  0.16351698  1
  Al  Al12  1  0.77957123  0.42364520  0.90595289  1
  Al  Al13  1  0.88938998  0.53597778  0.66229257  1
  Al  Al14  1  0.45009701  0.42462566  0.41265429  1
  Al  Al15  1  0.55909753  0.54153344  0.16241991  1
  Al  Al16  1  0.11119780  0.42785749  0.91317680  1
  Al  Al17  1  0.22268653  0.53934752  0.66303821  1
  Al  Al18  1  0.77915742  0.41857962  0.41715064  1
  Al  Al19  1  0.88351659  0.54138158  0.16274557  1
  Al  Al20  1  0.44547769  0.42597035  0.91277717  1
  Al  Al21  1  0.55868151  0.53559113  0.66290805  1
  Al  Al22  1  0.10796499  0.76675681  0.41265424  1
  Al  Al23  1  0.22487330  0.87575781  0.16241992  1
  Al  Al24  1  0.77369314  0.76464158  0.91658198  1
  Al  Al25  1  0.88807595  0.87810161  0.65539434  1
  Al  Al26  1  0.44631843  0.76297952  0.40672286  1
  Al  Al27  1  0.10930930  0.76213877  0.91277716  1
  Al  Al28  1  0.21892868  0.87534392  0.66290793  1
  Al  Al29  1  0.77432467  0.76753249  0.40655395  1
  Al  Al30  1  0.88108414  0.88070602  0.16717277  1
  Al  Al31  1  0.44729957  0.76396069  0.91692829  1
  Al  Al32  1  0.55590547  0.87256642  0.66195644  1
  B  B33  1  0.88929178  0.20595312  0.66000598  1
  B  B34  1  0.78244023  0.09910059  0.41810432  1
  B  B35  1  0.55612080  0.87278061  0.16755160  1
  N  N36  1  0.22076973  0.20382375  0.35500344  1
  N  N37  1  0.10658312  0.09690729  0.09970056  1
  N  N38  1  0.88733195  0.20399263  0.82722871  1
  N  N39  1  0.78993624  0.10659708  0.59012938  1
  N  N40  1  0.58316223  0.19307865  0.36246069  1
  N  N41  1  0.45783712  0.07120406  0.11314157  1
  N  N42  1  0.22450847  0.20444584  0.85496921  1
  N  N43  1  0.08648582  0.10720063  0.61042786  1
  N  N44  1  0.87629214  0.19295193  0.35723521  1
  N  N45  1  0.77870990  0.09536987  0.09474062  1
  N  N46  1  0.55510782  0.20424025  0.84937046  1
  N  N47  1  0.44461740  0.09309237  0.59864473  1
  N  N48  1  0.22271159  0.53937147  0.35459847  1
  N  N49  1  0.11068264  0.42734192  0.10495192  1
  N  N50  1  0.88778572  0.54116879  0.85496937  1
  N  N51  1  0.79053881  0.40314729  0.61042812  1
  N  N52  1  0.55844909  0.53828510  0.35393452  1
  N  N53  1  0.44660446  0.42503953  0.10627107  1
  N  N54  1  0.22247093  0.53913192  0.85491334  1
  N  N55  1  0.11143959  0.42810104  0.60422493  1
  N  N56  1  0.88716469  0.53742855  0.35500337  1
  N  N57  1  0.78024710  0.42324288  0.09970053  1
  N  N58  1  0.55410065  0.54105036  0.85525638  1
  N  N59  1  0.44436497  0.42867062  0.60317553  1
  N  N60  1  0.22162439  0.87510913  0.35393437  1
  N  N61  1  0.10837887  0.76326501  0.10627107  1
  N  N62  1  0.88757935  0.87176832  0.84937026  1
  N  N63  1  0.77643114  0.76127825  0.59864443  1
  N  N64  1  0.55587039  0.87253028  0.33183875  1
  N  N65  1  0.45725379  0.77391408  0.11130169  1
  N  N66  1  0.22438928  0.87076151  0.85525617  1
  N  N67  1  0.11200946  0.76102601  0.60317549  1
  N  N68  1  0.87641805  0.89982214  0.36246071  1
  N  N69  1  0.75454417  0.77449640  0.11314173  1
  N  N70  1  0.55592624  0.87258672  0.85101718  1
  N  N71  1  0.44517764  0.76183977  0.59997033  1
