# generated using pymatgen
data_Al11BN12
_symmetry_space_group_name_H-M   'P 1'
_cell_length_a   9.27068186
_cell_length_b   9.27068261
_cell_length_c   10.04648883
_cell_angle_alpha   89.52611423
_cell_angle_beta   89.52611275
_cell_angle_gamma   59.99389553
_symmetry_Int_Tables_number   1
_chemical_formula_structural   Al11BN12
_chemical_formula_sum   'Al33 B3 N36'
_cell_volume   747.69039996
_cell_formula_units_Z   3
loop_
 _symmetry_equiv_pos_site_id
 _symmetry_equiv_pos_as_xyz
  1  'x, y, z'
loop_
 _atom_site_type_symbol
 _atom_site_label
 _atom_site_symmetry_multiplicity
 _atom_site_fract_x
 _atom_site_fract_y
 _atom_site_fract_z
 _atom_site_occupancy
  Al  Al0  1  0.09867507  0.09607873  0.40025485  1
  Al  Al1  1  0.22257827  0.19981620  0.14447368  1
  Al  Al2  1  0.77750337  0.09408679  0.82090120  1
  Al  Al3  1  0.44789883  0.08894558  0.37988233  1
  Al  Al4  1  0.56023861  0.19791602  0.08748264  1
  Al  Al5  1  0.11006960  0.09641845  0.88944263  1
  Al  Al6  1  0.22082496  0.20595866  0.64282297  1
  Al  Al7  1  0.88933568  0.20592045  0.14876886  1
  Al  Al8  1  0.44554358  0.08666628  0.89738568  1
  Al  Al9  1  0.57213354  0.20052950  0.56777484  1
  Al  Al10  1  0.10995261  0.42653508  0.39493241  1
  Al  Al11  1  0.22148109  0.53806634  0.14614448  1
  Al  Al12  1  0.77983617  0.42665234  0.88944250  1
  Al  Al13  1  0.88937484  0.53740844  0.64282301  1
  Al  Al14  1  0.44744217  0.42998507  0.38643654  1
  Al  Al15  1  0.55881900  0.54311299  0.14475902  1
  Al  Al16  1  0.11201647  0.42859854  0.89287148  1
  Al  Al17  1  0.22288368  0.53946760  0.64219223  1
  Al  Al18  1  0.77949482  0.41525939  0.40025484  1
  Al  Al19  1  0.88323343  0.53916134  0.14447341  1
  Al  Al20  1  0.44337858  0.43321741  0.89646687  1
  Al  Al21  1  0.55870122  0.53441589  0.64379485  1
  Al  Al22  1  0.11339934  0.76402701  0.38643674  1
  Al  Al23  1  0.22652828  0.87540340  0.14475913  1
  Al  Al24  1  0.77008369  0.76212661  0.89738530  1
  Al  Al25  1  0.88394414  0.88871750  0.56777528  1
  Al  Al26  1  0.44644440  0.76302927  0.38950241  1
  Al  Al27  1  0.11663538  0.75996082  0.89646718  1
  Al  Al28  1  0.21783087  0.87528588  0.64379477  1
  Al  Al29  1  0.77236256  0.76448148  0.37988200  1
  Al  Al30  1  0.88133012  0.87682429  0.08748170  1
  Al  Al31  1  0.44732643  0.76390952  0.89660104  1
  Al  Al32  1  0.55622782  0.87281133  0.64015832  1
  B  B33  1  0.89342738  0.21001117  0.65292369  1
  B  B34  1  0.77515381  0.09173841  0.31476207  1
  B  B35  1  0.55366293  0.87024651  0.14653926  1
  N  N36  1  0.21783423  0.20430383  0.33434775  1
  N  N37  1  0.10627078  0.09566278  0.07931812  1
  N  N38  1  0.89571896  0.21230179  0.81563474  1
  N  N39  1  0.78883620  0.10542035  0.63364481  1
  N  N40  1  0.58496231  0.19172246  0.37090622  1
  N  N41  1  0.45230480  0.06604512  0.09300575  1
  N  N42  1  0.22659253  0.20544990  0.83337594  1
  N  N43  1  0.08583668  0.10782642  0.59280833  1
  N  N44  1  0.87879096  0.19537525  0.33642562  1
  N  N45  1  0.77286195  0.08944698  0.15456218  1
  N  N46  1  0.56320794  0.20170676  0.89045352  1
  N  N47  1  0.44327294  0.09187176  0.57492793  1
  N  N48  1  0.22134370  0.53792828  0.33374086  1
  N  N49  1  0.11066370  0.42724649  0.08339896  1
  N  N50  1  0.88886753  0.54317532  0.83337603  1
  N  N51  1  0.79124218  0.40242078  0.59280843  1
  N  N52  1  0.55986832  0.53987825  0.33370616  1
  N  N53  1  0.44274961  0.43442625  0.08967222  1
  N  N54  1  0.22355495  0.54013742  0.83262403  1
  N  N55  1  0.11166423  0.42824782  0.58385659  1
  N  N56  1  0.88772120  0.53441704  0.33434753  1
  N  N57  1  0.77907867  0.42285509  0.07931804  1
  N  N58  1  0.55544848  0.54167717  0.83409179  1
  N  N59  1  0.44365914  0.43110489  0.57987822  1
  N  N60  1  0.22329348  0.87645232  0.33370621  1
  N  N61  1  0.11784087  0.75933460  0.08967236  1
  N  N62  1  0.88512424  0.87979089  0.89045275  1
  N  N63  1  0.77528797  0.75985586  0.57492773  1
  N  N64  1  0.55459040  0.87117371  0.30923791  1
  N  N65  1  0.45647206  0.77305641  0.08963130  1
  N  N66  1  0.22509431  0.87203116  0.83409168  1
  N  N67  1  0.11451985  0.76024344  0.57987849  1
  N  N68  1  0.87513720  0.90154699  0.37090653  1
  N  N69  1  0.74946160  0.76888831  0.09300556  1
  N  N70  1  0.55624274  0.87282550  0.82764231  1
  N  N71  1  0.44512390  0.76170866  0.58035161  1
