# generated using pymatgen
data_Al11BN12
_symmetry_space_group_name_H-M   'P 1'
_cell_length_a   9.26280022
_cell_length_b   9.26813319
_cell_length_c   9.94406312
_cell_angle_alpha   89.72842395
_cell_angle_beta   89.58715412
_cell_angle_gamma   59.95791592
_symmetry_Int_Tables_number   1
_chemical_formula_structural   Al11BN12
_chemical_formula_sum   'Al33 B3 N36'
_cell_volume   738.98069907
_cell_formula_units_Z   3
loop_
 _symmetry_equiv_pos_site_id
 _symmetry_equiv_pos_as_xyz
  1  'x, y, z'
loop_
 _atom_site_type_symbol
 _atom_site_label
 _atom_site_symmetry_multiplicity
 _atom_site_fract_x
 _atom_site_fract_y
 _atom_site_fract_z
 _atom_site_occupancy
  Al  Al0  1  0.09934191  0.09455781  0.40522764  1
  Al  Al1  1  0.22481499  0.20025998  0.15062991  1
  Al  Al2  1  0.78150493  0.09572735  0.87477783  1
  Al  Al3  1  0.45167781  0.09006349  0.39079452  1
  Al  Al4  1  0.56218855  0.19832269  0.12507937  1
  Al  Al5  1  0.10990713  0.09641850  0.89568079  1
  Al  Al6  1  0.21915377  0.20564916  0.64801200  1
  Al  Al7  1  0.88697083  0.20328509  0.14484920  1
  Al  Al8  1  0.44501389  0.08859802  0.90059803  1
  Al  Al9  1  0.56346821  0.20468269  0.64373097  1
  Al  Al10  1  0.11026770  0.42711588  0.40074854  1
  Al  Al11  1  0.22189937  0.53894467  0.15086350  1
  Al  Al12  1  0.77964800  0.42710637  0.89518112  1
  Al  Al13  1  0.88884298  0.53625729  0.64880020  1
  Al  Al14  1  0.45117366  0.42315699  0.39723025  1
  Al  Al15  1  0.55904431  0.54265929  0.14996686  1
  Al  Al16  1  0.11134470  0.42818965  0.89869200  1
  Al  Al17  1  0.22237675  0.53943128  0.64811135  1
  Al  Al18  1  0.77781219  0.41638399  0.40512532  1
  Al  Al19  1  0.88401036  0.54113183  0.15043184  1
  Al  Al20  1  0.44238045  0.43114510  0.89794768  1
  Al  Al21  1  0.55954673  0.53499097  0.64893702  1
  Al  Al22  1  0.10615657  0.76804993  0.39837703  1
  Al  Al23  1  0.22561098  0.87529704  0.14994261  1
  Al  Al24  1  0.77315458  0.76349385  0.90355869  1
  Al  Al25  1  0.88983705  0.87726012  0.64912567  1
  Al  Al26  1  0.44534296  0.76278237  0.39408301  1
  Al  Al27  1  0.11085813  0.76098440  0.90092494  1
  Al  Al28  1  0.21807009  0.87578561  0.64966920  1
  Al  Al29  1  0.77277062  0.76784923  0.39210498  1
  Al  Al30  1  0.88124689  0.87937643  0.14362264  1
  Al  Al31  1  0.44701597  0.76372623  0.90280713  1
  Al  Al32  1  0.55657871  0.87240242  0.64701363  1
  B  B33  1  0.88892105  0.20408004  0.65866397  1
  B  B34  1  0.77542972  0.09571077  0.35903015  1
  B  B35  1  0.55577977  0.87149518  0.15301177  1
  N  N36  1  0.21988025  0.20337670  0.34206555  1
  N  N37  1  0.10956842  0.09605114  0.08782605  1
  N  N38  1  0.89425111  0.21089196  0.82287067  1
  N  N39  1  0.79373631  0.10771383  0.62579651  1
  N  N40  1  0.58579331  0.19040254  0.34302169  1
  N  N41  1  0.45627472  0.06876354  0.09664884  1
  N  N42  1  0.22436041  0.20508174  0.83976435  1
  N  N43  1  0.08712480  0.10664755  0.59760164  1
  N  N44  1  0.87284180  0.18988720  0.33878535  1
  N  N45  1  0.78361619  0.09394882  0.07233251  1
  N  N46  1  0.54941140  0.20759252  0.84685482  1
  N  N47  1  0.44653483  0.09373723  0.58365736  1
  N  N48  1  0.22201353  0.53919058  0.34103624  1
  N  N49  1  0.11155936  0.42717336  0.09083951  1
  N  N50  1  0.88807105  0.54233536  0.84086976  1
  N  N51  1  0.79065890  0.40344316  0.59746734  1
  N  N52  1  0.55821858  0.53830268  0.34031230  1
  N  N53  1  0.44472955  0.43063009  0.09076145  1
  N  N54  1  0.22169555  0.54048321  0.83925283  1
  N  N55  1  0.11148487  0.42813044  0.59046416  1
  N  N56  1  0.88672784  0.53659078  0.34195817  1
  N  N57  1  0.77983473  0.42552138  0.08745701  1
  N  N58  1  0.55500876  0.54167744  0.84063670  1
  N  N59  1  0.44519866  0.42795331  0.58792621  1
  N  N60  1  0.22098781  0.87494363  0.34044350  1
  N  N61  1  0.11087583  0.76218505  0.09319499  1
  N  N62  1  0.89125637  0.86508016  0.84156168  1
  N  N63  1  0.77814114  0.76303605  0.58367177  1
  N  N64  1  0.55506754  0.87184647  0.31725316  1
  N  N65  1  0.45748315  0.77358770  0.09722894  1
  N  N66  1  0.22408780  0.87132193  0.84190858  1
  N  N67  1  0.11127771  0.76159814  0.58785302  1
  N  N68  1  0.87307382  0.90264954  0.33993867  1
  N  N69  1  0.75357040  0.77353583  0.09890060  1
  N  N70  1  0.55645373  0.87143357  0.83560844  1
  N  N71  1  0.44531882  0.76202821  0.58608623  1
