# generated using pymatgen
data_Al11BN12
_symmetry_space_group_name_H-M   'P 1'
_cell_length_a   9.31051239
_cell_length_b   9.28361937
_cell_length_c   10.07961448
_cell_angle_alpha   89.71363432
_cell_angle_beta   89.58004672
_cell_angle_gamma   59.96944270
_symmetry_Int_Tables_number   1
_chemical_formula_structural   Al11BN12
_chemical_formula_sum   'Al33 B3 N36'
_cell_volume   754.25721848
_cell_formula_units_Z   3
loop_
 _symmetry_equiv_pos_site_id
 _symmetry_equiv_pos_as_xyz
  1  'x, y, z'
loop_
 _atom_site_type_symbol
 _atom_site_label
 _atom_site_symmetry_multiplicity
 _atom_site_fract_x
 _atom_site_fract_y
 _atom_site_fract_z
 _atom_site_occupancy
  Al  Al0  1  0.10268897  0.09130035  0.39394764  1
  Al  Al1  1  0.21799359  0.20183563  0.13709731  1
  Al  Al2  1  0.77830237  0.09565916  0.81296618  1
  Al  Al3  1  0.45736985  0.08500852  0.31534553  1
  Al  Al4  1  0.55686401  0.19880115  0.07244271  1
  Al  Al5  1  0.10889733  0.09560957  0.88740429  1
  Al  Al6  1  0.21635327  0.20807575  0.64086532  1
  Al  Al7  1  0.88599072  0.20486753  0.14486013  1
  Al  Al8  1  0.45347268  0.09076345  0.82641608  1
  Al  Al9  1  0.56818180  0.20386459  0.56298696  1
  Al  Al10  1  0.11129798  0.42224166  0.38690254  1
  Al  Al11  1  0.22532855  0.54171634  0.06989271  1
  Al  Al12  1  0.78071706  0.42182173  0.87894980  1
  Al  Al13  1  0.88827639  0.53780419  0.60533235  1
  Al  Al14  1  0.45177636  0.42401032  0.31818938  1
  Al  Al15  1  0.54936274  0.54523878  0.06630538  1
  Al  Al16  1  0.11364951  0.42268856  0.88620376  1
  Al  Al17  1  0.22712499  0.54282198  0.56759343  1
  Al  Al18  1  0.78506650  0.41081609  0.39298865  1
  Al  Al19  1  0.87945857  0.54460880  0.08561224  1
  Al  Al20  1  0.44506819  0.42690707  0.81707356  1
  Al  Al21  1  0.55375903  0.53943168  0.57491574  1
  Al  Al22  1  0.10405681  0.76257838  0.31789669  1
  Al  Al23  1  0.22293413  0.87878236  0.13292929  1
  Al  Al24  1  0.77354577  0.76923924  0.82404040  1
  Al  Al25  1  0.88779341  0.88508991  0.56167783  1
  Al  Al26  1  0.45593018  0.75816380  0.31786807  1
  Al  Al27  1  0.10522643  0.75924722  0.81990321  1
  Al  Al28  1  0.21584696  0.88341171  0.63964068  1
  Al  Al29  1  0.77261972  0.76566972  0.31445203  1
  Al  Al30  1  0.88044513  0.87577513  0.07137233  1
  Al  Al31  1  0.44991370  0.76301218  0.82685221  1
  Al  Al32  1  0.55781719  0.87486200  0.56864675  1
  B  B33  1  0.89091387  0.20975216  0.64650299  1
  B  B34  1  0.77484522  0.08970440  0.31064919  1
  B  B35  1  0.55456328  0.87314476  0.06628796  1
  N  N36  1  0.21951599  0.20195231  0.32898847  1
  N  N37  1  0.10292544  0.09723718  0.07471702  1
  N  N38  1  0.89700592  0.20982435  0.80859970  1
  N  N39  1  0.78969408  0.10649857  0.62545944  1
  N  N40  1  0.58075445  0.19180394  0.36992831  1
  N  N41  1  0.45722086  0.06704864  0.12121121  1
  N  N42  1  0.22141121  0.20476271  0.83059461  1
  N  N43  1  0.08691398  0.10838310  0.58474203  1
  N  N44  1  0.87910261  0.19089300  0.33146279  1
  N  N45  1  0.76970559  0.08790924  0.14790360  1
  N  N46  1  0.56091242  0.20603757  0.88340491  1
  N  N47  1  0.45491451  0.09353538  0.63119437  1
  N  N48  1  0.22723307  0.53997720  0.37652635  1
  N  N49  1  0.11114300  0.42343733  0.08097498  1
  N  N50  1  0.88740665  0.54341724  0.85728663  1
  N  N51  1  0.79241437  0.39895689  0.58999916  1
  N  N52  1  0.55339780  0.54030922  0.38251011  1
  N  N53  1  0.44515744  0.42702333  0.13010048  1
  N  N54  1  0.22642672  0.54095232  0.87831061  1
  N  N55  1  0.11471440  0.42418983  0.58184991  1
  N  N56  1  0.88445996  0.54059788  0.36098469  1
  N  N57  1  0.77974597  0.41658180  0.07435675  1
  N  N58  1  0.54908090  0.54170684  0.87599537  1
  N  N59  1  0.44614749  0.42508355  0.62858579  1
  N  N60  1  0.22354814  0.87468343  0.32970387  1
  N  N61  1  0.10459179  0.76063038  0.12689045  1
  N  N62  1  0.88579461  0.87914178  0.88297836  1
  N  N63  1  0.77730700  0.77046285  0.63192195  1
  N  N64  1  0.55721275  0.87152522  0.38331879  1
  N  N65  1  0.46155361  0.77094511  0.12150255  1
  N  N66  1  0.21873562  0.87678367  0.83397882  1
  N  N67  1  0.10606325  0.76166524  0.62605275  1
  N  N68  1  0.87438514  0.89610001  0.36947508  1
  N  N69  1  0.75031544  0.77466075  0.12117826  1
  N  N70  1  0.55569358  0.87365414  0.90185804  1
  N  N71  1  0.45245166  0.76190965  0.63338082  1
