# generated using pymatgen
data_Al11BN12
_symmetry_space_group_name_H-M   'P 1'
_cell_length_a   9.27340925
_cell_length_b   9.27952752
_cell_length_c   10.13163251
_cell_angle_alpha   89.70824744
_cell_angle_beta   89.76624307
_cell_angle_gamma   60.11763452
_symmetry_Int_Tables_number   1
_chemical_formula_structural   Al11BN12
_chemical_formula_sum   'Al33 B3 N36'
_cell_volume   755.93179134
_cell_formula_units_Z   3
loop_
 _symmetry_equiv_pos_site_id
 _symmetry_equiv_pos_as_xyz
  1  'x, y, z'
loop_
 _atom_site_type_symbol
 _atom_site_label
 _atom_site_symmetry_multiplicity
 _atom_site_fract_x
 _atom_site_fract_y
 _atom_site_fract_z
 _atom_site_occupancy
  Al  Al0  1  0.10113864  0.09290025  0.39439120  1
  Al  Al1  1  0.21795999  0.20158664  0.13496272  1
  Al  Al2  1  0.77865565  0.09661966  0.81197288  1
  Al  Al3  1  0.45584752  0.08592892  0.31325389  1
  Al  Al4  1  0.55704627  0.19806345  0.07093579  1
  Al  Al5  1  0.10830483  0.09713648  0.88648031  1
  Al  Al6  1  0.21468507  0.21014570  0.63926391  1
  Al  Al7  1  0.88737194  0.20248553  0.14336768  1
  Al  Al8  1  0.45268836  0.09414990  0.82334124  1
  Al  Al9  1  0.56802150  0.20389627  0.56187514  1
  Al  Al10  1  0.10835861  0.42337945  0.38582495  1
  Al  Al11  1  0.22471979  0.54189650  0.06919618  1
  Al  Al12  1  0.78456218  0.42324966  0.88239348  1
  Al  Al13  1  0.89199869  0.53238603  0.63903882  1
  Al  Al14  1  0.45150495  0.42229869  0.31668950  1
  Al  Al15  1  0.55312738  0.54133016  0.06819551  1
  Al  Al16  1  0.10840995  0.42534765  0.88937166  1
  Al  Al17  1  0.22553352  0.54320783  0.56624763  1
  Al  Al18  1  0.78756575  0.41033131  0.39318567  1
  Al  Al19  1  0.88319833  0.53530648  0.13498650  1
  Al  Al20  1  0.44476218  0.42748373  0.81656582  1
  Al  Al21  1  0.55681181  0.53520702  0.57739697  1
  Al  Al22  1  0.10281716  0.76223500  0.31614981  1
  Al  Al23  1  0.22764756  0.87700586  0.13504183  1
  Al  Al24  1  0.77401091  0.77121707  0.82211269  1
  Al  Al25  1  0.88840513  0.88480201  0.56154384  1
  Al  Al26  1  0.44579972  0.75989410  0.35834374  1
  Al  Al27  1  0.10585958  0.75883322  0.81859345  1
  Al  Al28  1  0.21998927  0.88118224  0.64079775  1
  Al  Al29  1  0.76827058  0.77280589  0.31291154  1
  Al  Al30  1  0.88082354  0.87377637  0.07021165  1
  Al  Al31  1  0.44354909  0.76743888  0.86582153  1
  Al  Al32  1  0.55867585  0.87621022  0.57005014  1
  B  B33  1  0.89256848  0.20938300  0.64486405  1
  B  B34  1  0.77444322  0.09034489  0.30977230  1
  B  B35  1  0.55665636  0.87357104  0.06409064  1
  N  N36  1  0.21792362  0.20304162  0.32698260  1
  N  N37  1  0.10397903  0.09500405  0.07345600  1
  N  N38  1  0.89645514  0.21208331  0.80762418  1
  N  N39  1  0.79012791  0.10672707  0.62487706  1
  N  N40  1  0.58059765  0.19123969  0.36922613  1
  N  N41  1  0.45685370  0.06728292  0.12070297  1
  N  N42  1  0.21991925  0.20811405  0.82916324  1
  N  N43  1  0.08736416  0.10710745  0.58441172  1
  N  N44  1  0.87887757  0.19143017  0.32967977  1
  N  N45  1  0.77003574  0.08644910  0.14743911  1
  N  N46  1  0.56146227  0.20714090  0.88293391  1
  N  N47  1  0.45335800  0.09532684  0.63027337  1
  N  N48  1  0.22648503  0.54055112  0.37574111  1
  N  N49  1  0.10754440  0.42456401  0.07900323  1
  N  N50  1  0.89061836  0.53866033  0.82829825  1
  N  N51  1  0.79610017  0.39919444  0.58609046  1
  N  N52  1  0.55640751  0.53414486  0.38208480  1
  N  N53  1  0.44561120  0.42554459  0.12970709  1
  N  N54  1  0.22566161  0.54142365  0.87895912  1
  N  N55  1  0.10879292  0.42615386  0.57538237  1
  N  N56  1  0.88699591  0.53477598  0.32637151  1
  N  N57  1  0.78473089  0.41615052  0.07330386  1
  N  N58  1  0.55244813  0.53922614  0.87487065  1
  N  N59  1  0.44515907  0.42380139  0.62879252  1
  N  N60  1  0.22129582  0.87669545  0.32870034  1
  N  N61  1  0.10561882  0.76007997  0.12724325  1
  N  N62  1  0.88724103  0.87939330  0.88266193  1
  N  N63  1  0.77794042  0.77101019  0.62946711  1
  N  N64  1  0.55721768  0.87429511  0.38343395  1
  N  N65  1  0.45703861  0.77292446  0.09620387  1
  N  N66  1  0.21918455  0.87843144  0.83159548  1
  N  N67  1  0.10654460  0.76098343  0.62666064  1
  N  N68  1  0.87473680  0.89648694  0.36958167  1
  N  N69  1  0.74947980  0.77425034  0.12041868  1
  N  N70  1  0.55998045  0.87930847  0.89914481  1
  N  N71  1  0.44717727  0.76243760  0.60921586  1
