# generated using pymatgen
data_Al11BN12
_symmetry_space_group_name_H-M   'P 1'
_cell_length_a   9.27338881
_cell_length_b   9.27170267
_cell_length_c   10.12473680
_cell_angle_alpha   89.67600518
_cell_angle_beta   89.72430171
_cell_angle_gamma   60.09771312
_symmetry_Int_Tables_number   1
_chemical_formula_structural   Al11BN12
_chemical_formula_sum   'Al33 B3 N36'
_cell_volume   754.62471071
_cell_formula_units_Z   3
loop_
 _symmetry_equiv_pos_site_id
 _symmetry_equiv_pos_as_xyz
  1  'x, y, z'
loop_
 _atom_site_type_symbol
 _atom_site_label
 _atom_site_symmetry_multiplicity
 _atom_site_fract_x
 _atom_site_fract_y
 _atom_site_fract_z
 _atom_site_occupancy
  Al  Al0  1  0.10181967  0.09200571  0.39405295  1
  Al  Al1  1  0.21820587  0.20152814  0.13524554  1
  Al  Al2  1  0.77863051  0.09661983  0.81207324  1
  Al  Al3  1  0.45578022  0.08599250  0.31424297  1
  Al  Al4  1  0.55704834  0.19836577  0.07137678  1
  Al  Al5  1  0.10862586  0.09667971  0.88654249  1
  Al  Al6  1  0.21496255  0.21015307  0.63942860  1
  Al  Al7  1  0.88689952  0.20312020  0.14349910  1
  Al  Al8  1  0.45262337  0.09294526  0.82466737  1
  Al  Al9  1  0.56805729  0.20404090  0.56225617  1
  Al  Al10  1  0.10825018  0.42332901  0.38584667  1
  Al  Al11  1  0.22489930  0.54168401  0.06929352  1
  Al  Al12  1  0.78424296  0.42334372  0.88293069  1
  Al  Al13  1  0.89191925  0.53246619  0.63913717  1
  Al  Al14  1  0.45151879  0.42316735  0.31729531  1
  Al  Al15  1  0.55164279  0.54404705  0.06692816  1
  Al  Al16  1  0.10826868  0.42525033  0.88945703  1
  Al  Al17  1  0.22566572  0.54292112  0.56615861  1
  Al  Al18  1  0.78681663  0.41091266  0.39346461  1
  Al  Al19  1  0.88322750  0.53532669  0.13514277  1
  Al  Al20  1  0.44476688  0.42742816  0.81700742  1
  Al  Al21  1  0.55558040  0.53785724  0.57611818  1
  Al  Al22  1  0.10329864  0.76242541  0.31668950  1
  Al  Al23  1  0.22480136  0.87787282  0.13346745  1
  Al  Al24  1  0.77314308  0.77125827  0.82320694  1
  Al  Al25  1  0.88811347  0.88487396  0.56166717  1
  Al  Al26  1  0.45262622  0.75827686  0.32675010  1
  Al  Al27  1  0.10561248  0.75884914  0.81913816  1
  Al  Al28  1  0.21755925  0.88249849  0.64035661  1
  Al  Al29  1  0.76858197  0.77304219  0.31388211  1
  Al  Al30  1  0.88051874  0.87392671  0.07039641  1
  Al  Al31  1  0.44874064  0.76408901  0.83459580  1
  Al  Al32  1  0.55809124  0.87504404  0.56986586  1
  B  B33  1  0.89195409  0.20992094  0.64501796  1
  B  B34  1  0.77453344  0.09051543  0.30994009  1
  B  B35  1  0.55652769  0.87211069  0.06622335  1
  N  N36  1  0.21797235  0.20299865  0.32714306  1
  N  N37  1  0.10367868  0.09571313  0.07338852  1
  N  N38  1  0.89625884  0.21226163  0.80774879  1
  N  N39  1  0.79019666  0.10683457  0.62497288  1
  N  N40  1  0.58057986  0.19152873  0.36952994  1
  N  N41  1  0.45711084  0.06718865  0.12111667  1
  N  N42  1  0.21991243  0.20795102  0.82924751  1
  N  N43  1  0.08742620  0.10749088  0.58424299  1
  N  N44  1  0.87859379  0.19176990  0.32988871  1
  N  N45  1  0.77007273  0.08661251  0.14755768  1
  N  N46  1  0.56139587  0.20660504  0.88310226  1
  N  N47  1  0.45367012  0.09475216  0.63054517  1
  N  N48  1  0.22635186  0.54027032  0.37573228  1
  N  N49  1  0.10755324  0.42452754  0.07914272  1
  N  N50  1  0.89040318  0.53859226  0.82843223  1
  N  N51  1  0.79551386  0.39966720  0.58615986  1
  N  N52  1  0.55434441  0.53830895  0.38346114  1
  N  N53  1  0.44580200  0.42614625  0.12998072  1
  N  N54  1  0.22553552  0.54109168  0.87891663  1
  N  N55  1  0.10875389  0.42619469  0.57554689  1
  N  N56  1  0.88681874  0.53485253  0.32658110  1
  N  N57  1  0.78408644  0.41681357  0.07347328  1
  N  N58  1  0.55120021  0.54063466  0.87681057  1
  N  N59  1  0.44539685  0.42462073  0.62884305  1
  N  N60  1  0.22177300  0.87592903  0.32960849  1
  N  N61  1  0.10501438  0.75998224  0.12717508  1
  N  N62  1  0.88650745  0.87937248  0.88276518  1
  N  N63  1  0.77766571  0.77129886  0.62969719  1
  N  N64  1  0.55606410  0.87285839  0.38451319  1
  N  N65  1  0.46103268  0.77079028  0.11751700  1
  N  N66  1  0.21817888  0.87810140  0.83322312  1
  N  N67  1  0.10666746  0.76085696  0.62640057  1
  N  N68  1  0.87464274  0.89665052  0.36980364  1
  N  N69  1  0.74984547  0.77441838  0.12085540  1
  N  N70  1  0.55704257  0.87579179  0.90135425  1
  N  N71  1  0.45213680  0.76110567  0.63110438  1
