# generated using pymatgen
data_Al11BN12
_symmetry_space_group_name_H-M   'P 1'
_cell_length_a   9.26228681
_cell_length_b   9.27322976
_cell_length_c   10.16245297
_cell_angle_alpha   89.76662090
_cell_angle_beta   89.79017024
_cell_angle_gamma   60.18372303
_symmetry_Int_Tables_number   1
_chemical_formula_structural   Al11BN12
_chemical_formula_sum   'Al33 B3 N36'
_cell_volume   757.31244295
_cell_formula_units_Z   3
loop_
 _symmetry_equiv_pos_site_id
 _symmetry_equiv_pos_as_xyz
  1  'x, y, z'
loop_
 _atom_site_type_symbol
 _atom_site_label
 _atom_site_symmetry_multiplicity
 _atom_site_fract_x
 _atom_site_fract_y
 _atom_site_fract_z
 _atom_site_occupancy
  Al  Al0  1  0.10011286  0.09370653  0.39382753  1
  Al  Al1  1  0.21781824  0.20150870  0.13451748  1
  Al  Al2  1  0.77921982  0.09662536  0.81172678  1
  Al  Al3  1  0.45571341  0.08409725  0.31232355  1
  Al  Al4  1  0.55739670  0.19711198  0.07025192  1
  Al  Al5  1  0.10952076  0.09639632  0.88605588  1
  Al  Al6  1  0.21442278  0.21062496  0.63933967  1
  Al  Al7  1  0.88798225  0.20155909  0.14332716  1
  Al  Al8  1  0.45320381  0.09457396  0.82235282  1
  Al  Al9  1  0.56799640  0.20389308  0.56074578  1
  Al  Al10  1  0.10791669  0.42336804  0.38533650  1
  Al  Al11  1  0.22443475  0.54239701  0.06919664  1
  Al  Al12  1  0.78423758  0.42408996  0.88127191  1
  Al  Al13  1  0.89336696  0.53221493  0.63946007  1
  Al  Al14  1  0.45125412  0.42193916  0.31656623  1
  Al  Al15  1  0.55517361  0.53893136  0.07502755  1
  Al  Al16  1  0.10913597  0.42549060  0.88944134  1
  Al  Al17  1  0.22556125  0.54351677  0.56535880  1
  Al  Al18  1  0.78493199  0.41168369  0.39294714  1
  Al  Al19  1  0.88369338  0.53487325  0.13481952  1
  Al  Al20  1  0.44481320  0.42777165  0.81713271  1
  Al  Al21  1  0.55975168  0.53212866  0.58705512  1
  Al  Al22  1  0.10219505  0.76242588  0.31622667  1
  Al  Al23  1  0.22961199  0.87646587  0.13945767  1
  Al  Al24  1  0.77510083  0.77112863  0.82201458  1
  Al  Al25  1  0.88825884  0.88474753  0.56103160  1
  Al  Al26  1  0.43820448  0.76067158  0.39030202  1
  Al  Al27  1  0.10764949  0.75912508  0.81821152  1
  Al  Al28  1  0.21966783  0.88191232  0.64064391  1
  Al  Al29  1  0.76603743  0.77236633  0.31211490  1
  Al  Al30  1  0.88162545  0.87345280  0.07005615  1
  Al  Al31  1  0.44049128  0.76972689  0.88907808  1
  Al  Al32  1  0.55983445  0.87840015  0.56846477  1
  B  B33  1  0.89367983  0.20877968  0.64488966  1
  B  B34  1  0.77373225  0.09019089  0.30968336  1
  B  B35  1  0.55820986  0.87570221  0.06162770  1
  N  N36  1  0.21753630  0.20324568  0.32586324  1
  N  N37  1  0.10487336  0.09332986  0.07312080  1
  N  N38  1  0.89763193  0.21175277  0.80719807  1
  N  N39  1  0.79000342  0.10678100  0.62481101  1
  N  N40  1  0.57999168  0.19054581  0.36870709  1
  N  N41  1  0.45695142  0.06632710  0.11992827  1
  N  N42  1  0.22034871  0.20860266  0.82876612  1
  N  N43  1  0.08697449  0.10757590  0.58391455  1
  N  N44  1  0.87824147  0.19177364  0.32930265  1
  N  N45  1  0.76992603  0.08598166  0.14739993  1
  N  N46  1  0.56208356  0.20749507  0.88290910  1
  N  N47  1  0.45315553  0.09543790  0.63037727  1
  N  N48  1  0.22603039  0.54084534  0.37566933  1
  N  N49  1  0.10769146  0.42428572  0.07839418  1
  N  N50  1  0.89203954  0.53862772  0.82801074  1
  N  N51  1  0.79682628  0.39942737  0.58650235  1
  N  N52  1  0.55694004  0.53294615  0.37750120  1
  N  N53  1  0.44522321  0.42399875  0.12918986  1
  N  N54  1  0.22610399  0.54235655  0.87974246  1
  N  N55  1  0.10908879  0.42594719  0.57455039  1
  N  N56  1  0.88696368  0.53433340  0.32544434  1
  N  N57  1  0.78520631  0.41536839  0.07195368  1
  N  N58  1  0.55399079  0.54166293  0.86609284  1
  N  N59  1  0.44420916  0.42269983  0.62937368  1
  N  N60  1  0.22202333  0.87655192  0.32924606  1
  N  N61  1  0.10600727  0.76012510  0.12802493  1
  N  N62  1  0.88902604  0.87945791  0.88273428  1
  N  N63  1  0.77728818  0.77072541  0.63000824  1
  N  N64  1  0.55642333  0.87423548  0.38269182  1
  N  N65  1  0.45302700  0.77339476  0.08244965  1
  N  N66  1  0.22405206  0.87769609  0.82831587  1
  N  N67  1  0.10618146  0.76108497  0.62690008  1
  N  N68  1  0.87395527  0.89610700  0.36946454  1
  N  N69  1  0.74882238  0.77398132  0.11954966  1
  N  N70  1  0.56202002  0.88133216  0.89779994  1
  N  N71  1  0.43993945  0.76483315  0.58515065  1
