# generated using pymatgen
data_Al11BN12
_symmetry_space_group_name_H-M   'P 1'
_cell_length_a   9.25677827
_cell_length_b   9.25677761
_cell_length_c   9.88913150
_cell_angle_alpha   90.07593425
_cell_angle_beta   90.07594139
_cell_angle_gamma   60.02533687
_symmetry_Int_Tables_number   1
_chemical_formula_structural   Al11BN12
_chemical_formula_sum   'Al33 B3 N36'
_cell_volume   734.03841599
_cell_formula_units_Z   3
loop_
 _symmetry_equiv_pos_site_id
 _symmetry_equiv_pos_as_xyz
  1  'x, y, z'
loop_
 _atom_site_type_symbol
 _atom_site_label
 _atom_site_symmetry_multiplicity
 _atom_site_fract_x
 _atom_site_fract_y
 _atom_site_fract_z
 _atom_site_occupancy
  Al  Al0  1  0.10517823  0.09436460  0.31260496  1
  Al  Al1  1  0.22516435  0.19936772  0.05568521  1
  Al  Al2  1  0.78048835  0.09716701  0.80319592  1
  Al  Al3  1  0.45187793  0.08782558  0.30129224  1
  Al  Al4  1  0.56141964  0.19891643  0.06186277  1
  Al  Al5  1  0.10419752  0.09755888  0.80080770  1
  Al  Al6  1  0.21893666  0.20596125  0.55552874  1
  Al  Al7  1  0.88807966  0.20475900  0.06339034  1
  Al  Al8  1  0.44686011  0.09225600  0.81236460  1
  Al  Al9  1  0.56418024  0.20336564  0.55161537  1
  Al  Al10  1  0.11120021  0.42787815  0.30421430  1
  Al  Al11  1  0.22247230  0.53915146  0.05486733  1
  Al  Al12  1  0.78087957  0.42087686  0.80080756  1
  Al  Al13  1  0.88928083  0.53561687  0.55552886  1
  Al  Al14  1  0.44960850  0.42431060  0.30509450  1
  Al  Al15  1  0.55909135  0.54145370  0.05527838  1
  Al  Al16  1  0.11069878  0.42737739  0.80575225  1
  Al  Al17  1  0.22192299  0.53860278  0.55501643  1
  Al  Al18  1  0.77768524  0.42185768  0.31260511  1
  Al  Al19  1  0.88268918  0.54184250  0.05568509  1
  Al  Al20  1  0.44592313  0.42577832  0.80575995  1
  Al  Al21  1  0.55797140  0.53566137  0.55559131  1
  Al  Al22  1  0.10763103  0.76628741  0.30509432  1
  Al  Al23  1  0.22477451  0.87577085  0.05527859  1
  Al  Al24  1  0.77557633  0.76353936  0.81236495  1
  Al  Al25  1  0.88668650  0.88085910  0.55161537  1
  Al  Al26  1  0.44701104  0.76369094  0.30102322  1
  Al  Al27  1  0.10909866  0.76260281  0.80576018  1
  Al  Al28  1  0.21898049  0.87465233  0.55559115  1
  Al  Al29  1  0.77114727  0.76855592  0.30129206  1
  Al  Al30  1  0.88223696  0.87809865  0.06186290  1
  Al  Al31  1  0.44582694  0.76250744  0.81203901  1
  Al  Al32  1  0.55578693  0.87246629  0.55692092  1
  B  B33  1  0.88422215  0.20090198  0.54909009  1
  B  B34  1  0.77704738  0.09372669  0.30768883  1
  B  B35  1  0.55576215  0.87244121  0.05144493  1
  N  N36  1  0.22568181  0.20445428  0.36321577  1
  N  N37  1  0.10989947  0.09513688  0.12065300  1
  N  N38  1  0.88831105  0.20499041  0.87238544  1
  N  N39  1  0.79041821  0.10709728  0.61062909  1
  N  N40  1  0.57965265  0.19186978  0.35699929  1
  N  N41  1  0.45734950  0.06937786  0.10711052  1
  N  N42  1  0.22092447  0.20375359  0.86301217  1
  N  N43  1  0.08469054  0.10684035  0.60443498  1
  N  N44  1  0.87675432  0.19343371  0.37862111  1
  N  N45  1  0.77948790  0.09616698  0.14122006  1
  N  N46  1  0.56017497  0.20358308  0.86842478  1
  N  N47  1  0.44645804  0.09461987  0.61784738  1
  N  N48  1  0.22265830  0.53933732  0.36325495  1
  N  N49  1  0.11067363  0.42735221  0.11250281  1
  N  N50  1  0.88707473  0.53760335  0.86301206  1
  N  N51  1  0.79015988  0.40137074  0.60443485  1
  N  N52  1  0.55348164  0.54210988  0.36420248  1
  N  N53  1  0.44561587  0.42773903  0.11381821  1
  N  N54  1  0.22243560  0.53911508  0.86354240  1
  N  N55  1  0.11096717  0.42764728  0.61456567  1
  N  N56  1  0.88777595  0.54236023  0.36321578  1
  N  N57  1  0.77845737  0.42657869  0.12065305  1
  N  N58  1  0.55851795  0.53693148  0.86297392  1
  N  N59  1  0.44522361  0.42538152  0.61301180  1
  N  N60  1  0.22542998  0.87016113  0.36420240  1
  N  N61  1  0.11105971  0.76229511  0.11381812  1
  N  N62  1  0.88690366  0.87685402  0.86842497  1
  N  N63  1  0.77794015  0.76313774  0.61784771  1
  N  N64  1  0.55534536  0.87202377  0.36843853  1
  N  N65  1  0.45691900  0.77359827  0.10617093  1
  N  N66  1  0.22025152  0.87519767  0.86297426  1
  N  N67  1  0.10870203  0.76190331  0.61301197  1
  N  N68  1  0.87519043  0.89633165  0.35699932  1
  N  N69  1  0.75269905  0.77402793  0.10711037  1
  N  N70  1  0.55571909  0.87239868  0.88581408  1
  N  N71  1  0.44509765  0.76177839  0.61916428  1
