# generated using pymatgen
data_Al11BN12
_symmetry_space_group_name_H-M   'P 1'
_cell_length_a   9.28183954
_cell_length_b   9.27443345
_cell_length_c   10.04313220
_cell_angle_alpha   89.82491829
_cell_angle_beta   89.64474368
_cell_angle_gamma   60.11756637
_symmetry_Int_Tables_number   1
_chemical_formula_structural   Al11BN12
_chemical_formula_sum   'Al33 B3 N36'
_cell_volume   749.59415057
_cell_formula_units_Z   3
loop_
 _symmetry_equiv_pos_site_id
 _symmetry_equiv_pos_as_xyz
  1  'x, y, z'
loop_
 _atom_site_type_symbol
 _atom_site_label
 _atom_site_symmetry_multiplicity
 _atom_site_fract_x
 _atom_site_fract_y
 _atom_site_fract_z
 _atom_site_occupancy
  Al  Al0  1  0.09807951  0.10147915  0.39432233  1
  Al  Al1  1  0.22162759  0.19593439  0.13462898  1
  Al  Al2  1  0.77920842  0.09440384  0.81480458  1
  Al  Al3  1  0.45772673  0.08395152  0.31773119  1
  Al  Al4  1  0.55777842  0.19848179  0.07379513  1
  Al  Al5  1  0.10746502  0.10112573  0.88776480  1
  Al  Al6  1  0.21883845  0.20143607  0.63973281  1
  Al  Al7  1  0.88591423  0.20491371  0.14556536  1
  Al  Al8  1  0.45440778  0.08955115  0.82916948  1
  Al  Al9  1  0.56825051  0.20361207  0.56439242  1
  Al  Al10  1  0.10730195  0.43355675  0.32041395  1
  Al  Al11  1  0.22156374  0.53870277  0.06982704  1
  Al  Al12  1  0.77989057  0.42530777  0.86787268  1
  Al  Al13  1  0.89179162  0.53923827  0.57500229  1
  Al  Al14  1  0.44977295  0.42414029  0.31926055  1
  Al  Al15  1  0.55263888  0.54272540  0.06846739  1
  Al  Al16  1  0.10953354  0.43552750  0.82115542  1
  Al  Al17  1  0.22285870  0.53853101  0.56794712  1
  Al  Al18  1  0.78008311  0.41276884  0.38891737  1
  Al  Al19  1  0.88371875  0.54344225  0.06892756  1
  Al  Al20  1  0.44456390  0.42642802  0.81918644  1
  Al  Al21  1  0.55377207  0.53838904  0.57725428  1
  Al  Al22  1  0.10747729  0.76818725  0.31984787  1
  Al  Al23  1  0.22816442  0.86672043  0.06948359  1
  Al  Al24  1  0.77582853  0.76711112  0.82466312  1
  Al  Al25  1  0.88761929  0.88427579  0.56436415  1
  Al  Al26  1  0.44639173  0.76331507  0.31748234  1
  Al  Al27  1  0.11027121  0.76310724  0.81951094  1
  Al  Al28  1  0.22218392  0.87041976  0.57551122  1
  Al  Al29  1  0.77169033  0.76603440  0.31536093  1
  Al  Al30  1  0.88221289  0.87415558  0.07400701  1
  Al  Al31  1  0.44575526  0.76487989  0.82526994  1
  Al  Al32  1  0.55827722  0.87299223  0.57049350  1
  B  B33  1  0.89306047  0.20816985  0.64739561  1
  B  B34  1  0.77439945  0.08911563  0.31198189  1
  B  B35  1  0.55613360  0.87161001  0.06794558  1
  N  N36  1  0.22169701  0.20035648  0.33267986  1
  N  N37  1  0.10130205  0.09872891  0.07808846  1
  N  N38  1  0.89823655  0.20858226  0.80963803  1
  N  N39  1  0.78967385  0.10573716  0.62675702  1
  N  N40  1  0.58056339  0.19183024  0.37099518  1
  N  N41  1  0.45939255  0.06513814  0.12205688  1
  N  N42  1  0.22399005  0.20412601  0.83605626  1
  N  N43  1  0.08412127  0.11030680  0.58730281  1
  N  N44  1  0.87798214  0.19162684  0.33315964  1
  N  N45  1  0.77031935  0.08665719  0.14937847  1
  N  N46  1  0.56198373  0.20556220  0.88454366  1
  N  N47  1  0.45581951  0.09178958  0.63200982  1
  N  N48  1  0.22259349  0.53979302  0.37890029  1
  N  N49  1  0.10575418  0.43320659  0.12819141  1
  N  N50  1  0.89021016  0.54569703  0.87720618  1
  N  N51  1  0.79099584  0.40162879  0.59465019  1
  N  N52  1  0.55016127  0.54280031  0.38279552  1
  N  N53  1  0.44371229  0.42651789  0.13016955  1
  N  N54  1  0.22326222  0.54067906  0.88085674  1
  N  N55  1  0.11045386  0.43281018  0.62977598  1
  N  N56  1  0.88705098  0.54285223  0.38118094  1
  N  N57  1  0.77947871  0.41875471  0.08291592  1
  N  N58  1  0.54983348  0.54205001  0.87566752  1
  N  N59  1  0.44418470  0.42478100  0.62925188  1
  N  N60  1  0.22597527  0.86876726  0.38229865  1
  N  N61  1  0.10989482  0.76159502  0.13078731  1
  N  N62  1  0.88861135  0.87795580  0.88408719  1
  N  N63  1  0.77873400  0.76619072  0.63274439  1
  N  N64  1  0.55658025  0.86984328  0.38423401  1
  N  N65  1  0.45584708  0.77237857  0.12421987  1
  N  N66  1  0.22462719  0.86806260  0.87821954  1
  N  N67  1  0.10874448  0.76150876  0.62919327  1
  N  N68  1  0.87479055  0.89593117  0.37061487  1
  N  N69  1  0.75206280  0.77113069  0.12342302  1
  N  N70  1  0.55733153  0.87133900  0.90241570  1
  N  N71  1  0.44624474  0.76416970  0.63543863  1
