# generated using pymatgen
data_Al11BN12
_symmetry_space_group_name_H-M   'P 1'
_cell_length_a   9.26679274
_cell_length_b   9.26704509
_cell_length_c   10.03985131
_cell_angle_alpha   89.80839167
_cell_angle_beta   89.46650901
_cell_angle_gamma   60.08336526
_symmetry_Int_Tables_number   1
_chemical_formula_structural   Al11BN12
_chemical_formula_sum   'Al33 B3 N36'
_cell_volume   747.26310085
_cell_formula_units_Z   3
loop_
 _symmetry_equiv_pos_site_id
 _symmetry_equiv_pos_as_xyz
  1  'x, y, z'
loop_
 _atom_site_type_symbol
 _atom_site_label
 _atom_site_symmetry_multiplicity
 _atom_site_fract_x
 _atom_site_fract_y
 _atom_site_fract_z
 _atom_site_occupancy
  Al  Al0  1  0.09402915  0.10400936  0.37665319  1
  Al  Al1  1  0.22537874  0.19584279  0.13071688  1
  Al  Al2  1  0.78128281  0.09717937  0.81470735  1
  Al  Al3  1  0.45968743  0.08472172  0.31085133  1
  Al  Al4  1  0.55759310  0.19758847  0.06333090  1
  Al  Al5  1  0.10727272  0.10065332  0.88876927  1
  Al  Al6  1  0.21625957  0.20308114  0.62854464  1
  Al  Al7  1  0.88546238  0.20163125  0.10739806  1
  Al  Al8  1  0.45148372  0.08876566  0.81906132  1
  Al  Al9  1  0.56690810  0.20521195  0.55597492  1
  Al  Al10  1  0.10763115  0.43527460  0.31229437  1
  Al  Al11  1  0.22259262  0.53790599  0.06058889  1
  Al  Al12  1  0.78081007  0.42173436  0.81552857  1
  Al  Al13  1  0.89093364  0.53586348  0.56127083  1
  Al  Al14  1  0.45010856  0.42437418  0.31016083  1
  Al  Al15  1  0.55838860  0.54091401  0.05880343  1
  Al  Al16  1  0.10751571  0.43504488  0.81242439  1
  Al  Al17  1  0.22327526  0.53899419  0.55946120  1
  Al  Al18  1  0.77368320  0.42702389  0.31064605  1
  Al  Al19  1  0.88235397  0.54245219  0.05938659  1
  Al  Al20  1  0.44567429  0.42607163  0.81101490  1
  Al  Al21  1  0.55947841  0.53450338  0.56228542  1
  Al  Al22  1  0.10692579  0.76946215  0.31061702  1
  Al  Al23  1  0.23220956  0.86325786  0.06276203  1
  Al  Al24  1  0.77516574  0.76417297  0.81650969  1
  Al  Al25  1  0.88865244  0.88267733  0.55660662  1
  Al  Al26  1  0.44618908  0.76480350  0.30833612  1
  Al  Al27  1  0.11007276  0.76294412  0.81112379  1
  Al  Al28  1  0.22208510  0.86987359  0.56457213  1
  Al  Al29  1  0.77265641  0.76794977  0.30626485  1
  Al  Al30  1  0.88240741  0.87335643  0.06368851  1
  Al  Al31  1  0.44626065  0.76271796  0.81731810  1
  Al  Al32  1  0.55855331  0.87197804  0.56138651  1
  B  B33  1  0.88863758  0.20700433  0.60205009  1
  B  B34  1  0.77689838  0.09360594  0.30085850  1
  B  B35  1  0.55663350  0.87125029  0.05994797  1
  N  N36  1  0.22317112  0.20265950  0.32827607  1
  N  N37  1  0.11428546  0.09180858  0.07962428  1
  N  N38  1  0.88109015  0.20866623  0.87867294  1
  N  N39  1  0.79410400  0.11080558  0.62026621  1
  N  N40  1  0.58082823  0.19328814  0.36349525  1
  N  N41  1  0.46123620  0.06463269  0.11516050  1
  N  N42  1  0.21939975  0.20289890  0.82344005  1
  N  N43  1  0.07671107  0.11393415  0.57607538  1
  N  N44  1  0.87532157  0.19247840  0.32138891  1
  N  N45  1  0.77004949  0.08607411  0.13908918  1
  N  N46  1  0.55750458  0.20442428  0.87352554  1
  N  N47  1  0.45503395  0.09164633  0.62193697  1
  N  N48  1  0.22280052  0.54148809  0.37042662  1
  N  N49  1  0.10626805  0.43287513  0.11944290  1
  N  N50  1  0.88639480  0.54021600  0.86974869  1
  N  N51  1  0.79303595  0.39944492  0.61817572  1
  N  N52  1  0.55343146  0.54216595  0.37309924  1
  N  N53  1  0.44542671  0.42621464  0.12038346  1
  N  N54  1  0.22273909  0.53968816  0.87122626  1
  N  N55  1  0.10879032  0.43415378  0.61980910  1
  N  N56  1  0.88537644  0.54177646  0.37174310  1
  N  N57  1  0.77367880  0.43408756  0.12226788  1
  N  N58  1  0.55613786  0.53842436  0.86905574  1
  N  N59  1  0.44554435  0.42597143  0.61995823  1
  N  N60  1  0.22559753  0.87035770  0.37322264  1
  N  N61  1  0.11014851  0.76084949  0.12180605  1
  N  N62  1  0.88772090  0.87460723  0.87310859  1
  N  N63  1  0.77907002  0.76364223  0.62366578  1
  N  N64  1  0.55722175  0.86997509  0.37551882  1
  N  N65  1  0.45828893  0.77086968  0.11564504  1
  N  N66  1  0.22461145  0.86713812  0.87075521  1
  N  N67  1  0.10895021  0.76206150  0.62076686  1
  N  N68  1  0.87531476  0.89680763  0.36340439  1
  N  N69  1  0.75323631  0.77135619  0.11400284  1
  N  N70  1  0.55601579  0.87133035  0.89359600  1
  N  N71  1  0.44714247  0.76183114  0.62604745  1
