# generated using pymatgen
data_LiSi2N3
_symmetry_space_group_name_H-M   'P 1'
_cell_length_a   4.90524915
_cell_length_b   5.38297920
_cell_length_c   5.32697996
_cell_angle_alpha   60.14593572
_cell_angle_beta   89.35626480
_cell_angle_gamma   89.99518356
_symmetry_Int_Tables_number   1
_chemical_formula_structural   LiSi2N3
_chemical_formula_sum   'Li2 Si4 N6'
_cell_volume   121.98208946
_cell_formula_units_Z   2
loop_
 _symmetry_equiv_pos_site_id
 _symmetry_equiv_pos_as_xyz
  1  'x, y, z'
loop_
 _atom_site_type_symbol
 _atom_site_label
 _atom_site_symmetry_multiplicity
 _atom_site_fract_x
 _atom_site_fract_y
 _atom_site_fract_z
 _atom_site_occupancy
  Si  Si0  1  0.02473023  0.99433088  0.66373394  1
  Si  Si1  1  0.86803087  0.65936354  0.31882591  1
  Si  Si2  1  0.52333242  0.99877610  0.33375018  1
  Si  Si3  1  0.52383572  0.30863537  0.68042180  1
  N  N4  1  0.96782725  0.70667900  0.99695104  1
  N  N5  1  0.88564233  0.31170131  0.62169539  1
  N  N6  1  0.89035282  0.95397303  0.38205128  1
  N  N7  1  0.43266073  0.26668280  0.00403296  1
  N  N8  1  0.38180661  0.04735686  0.60888024  1
  N  N9  1  0.49191241  0.65379106  0.37837075  1
  Li  Li10  1  0.01177799  0.32359451  0.99871093  1
  Li  Li11  1  0.40371347  0.64175706  0.01253559  1
