# generated using pymatgen
data_LiSi2N3
_symmetry_space_group_name_H-M   'P 1'
_cell_length_a   4.81544689
_cell_length_b   5.33176386
_cell_length_c   5.35247116
_cell_angle_alpha   60.12758201
_cell_angle_beta   90.00002631
_cell_angle_gamma   90.00011082
_symmetry_Int_Tables_number   1
_chemical_formula_structural   LiSi2N3
_chemical_formula_sum   'Li2 Si4 N6'
_cell_volume   119.16517816
_cell_formula_units_Z   2
loop_
 _symmetry_equiv_pos_site_id
 _symmetry_equiv_pos_as_xyz
  1  'x, y, z'
loop_
 _atom_site_type_symbol
 _atom_site_label
 _atom_site_symmetry_multiplicity
 _atom_site_fract_x
 _atom_site_fract_y
 _atom_site_fract_z
 _atom_site_occupancy
  Si  Si0  1  0.00581146  0.99164475  0.66818874  1
  Si  Si1  1  0.00581173  0.65983414  0.33181014  1
  Si  Si2  1  0.50581180  0.98612856  0.33181252  1
  Si  Si3  1  0.50581187  0.31794021  0.66819201  1
  N  N4  1  0.92767943  0.71534874  0.99999787  1
  N  N5  1  0.86703254  0.32656352  0.60261407  1
  N  N6  1  0.86703333  0.92917606  0.39738675  1
  N  N7  1  0.42768004  0.26242855  0.99999769  1
  N  N8  1  0.36703310  0.04859796  0.60261330  1
  N  N9  1  0.36703220  0.65121031  0.39738698  1
  Li  Li10  1  0.99329964  0.32919968  0.00000059  1
  Li  Li11  1  0.49329978  0.64859419  0.99999935  1
