# generated using pymatgen
data_LiSi2N3
_symmetry_space_group_name_H-M   'P 1'
_cell_length_a   4.98505838
_cell_length_b   5.36930131
_cell_length_c   5.30660820
_cell_angle_alpha   60.12772616
_cell_angle_beta   89.38350686
_cell_angle_gamma   89.88207852
_symmetry_Int_Tables_number   1
_chemical_formula_structural   LiSi2N3
_chemical_formula_sum   'Li2 Si4 N6'
_cell_volume   123.15864864
_cell_formula_units_Z   2
loop_
 _symmetry_equiv_pos_site_id
 _symmetry_equiv_pos_as_xyz
  1  'x, y, z'
loop_
 _atom_site_type_symbol
 _atom_site_label
 _atom_site_symmetry_multiplicity
 _atom_site_fract_x
 _atom_site_fract_y
 _atom_site_fract_z
 _atom_site_occupancy
  Si  Si0  1  0.02580054  0.99499928  0.66322238  1
  Si  Si1  1  0.86559192  0.65924023  0.31846998  1
  Si  Si2  1  0.52491889  0.99963136  0.33366573  1
  Si  Si3  1  0.52535419  0.30807200  0.67986811  1
  N  N4  1  0.97321889  0.70587686  0.99846005  1
  N  N5  1  0.88283029  0.31024164  0.62321246  1
  N  N6  1  0.88753384  0.95474689  0.38234053  1
  N  N7  1  0.43255216  0.26780332  0.00319850  1
  N  N8  1  0.37926731  0.04824012  0.60783064  1
  N  N9  1  0.49688806  0.65456318  0.37597020  1
  Li  Li10  1  0.01533818  0.32208150  0.99887627  1
  Li  Li11  1  0.39617861  0.64114955  0.01483676  1
