# generated using pymatgen
data_LiSi2N3
_symmetry_space_group_name_H-M   'P 1'
_cell_length_a   5.02135733
_cell_length_b   5.36281325
_cell_length_c   5.29810684
_cell_angle_alpha   60.12832444
_cell_angle_beta   89.37584027
_cell_angle_gamma   89.86691082
_symmetry_Int_Tables_number   1
_chemical_formula_structural   LiSi2N3
_chemical_formula_sum   'Li2 Si4 N6'
_cell_volume   123.70769720
_cell_formula_units_Z   2
loop_
 _symmetry_equiv_pos_site_id
 _symmetry_equiv_pos_as_xyz
  1  'x, y, z'
loop_
 _atom_site_type_symbol
 _atom_site_label
 _atom_site_symmetry_multiplicity
 _atom_site_fract_x
 _atom_site_fract_y
 _atom_site_fract_z
 _atom_site_occupancy
  Si  Si0  1  0.02619828  0.99535061  0.66298860  1
  Si  Si1  1  0.86469470  0.65922797  0.31833183  1
  Si  Si2  1  0.52562025  0.99993453  0.33363466  1
  Si  Si3  1  0.52604437  0.30776061  0.67965345  1
  N  N4  1  0.97541533  0.70560485  0.99911173  1
  N  N5  1  0.88167019  0.30967993  0.62384147  1
  N  N6  1  0.88631099  0.95514174  0.38250578  1
  N  N7  1  0.43266471  0.26815002  0.00292002  1
  N  N8  1  0.37818774  0.04856769  0.60735776  1
  N  N9  1  0.49910421  0.65475276  0.37498434  1
  Li  Li10  1  0.01693579  0.32145979  0.99896994  1
  Li  Li11  1  0.39352888  0.64101386  0.01565262  1
