# generated using pymatgen
data_LiSi2N3
_symmetry_space_group_name_H-M   'P 1'
_cell_length_a   4.82510094
_cell_length_b   5.32998386
_cell_length_c   5.35080488
_cell_angle_alpha   60.12869443
_cell_angle_beta   90.00307540
_cell_angle_gamma   89.99530192
_symmetry_Int_Tables_number   1
_chemical_formula_structural   LiSi2N3
_chemical_formula_sum   'Li2 Si4 N6'
_cell_volume   119.32838889
_cell_formula_units_Z   2
loop_
 _symmetry_equiv_pos_site_id
 _symmetry_equiv_pos_as_xyz
  1  'x, y, z'
loop_
 _atom_site_type_symbol
 _atom_site_label
 _atom_site_symmetry_multiplicity
 _atom_site_fract_x
 _atom_site_fract_y
 _atom_site_fract_z
 _atom_site_occupancy
  Si  Si0  1  0.00966489  0.99171383  0.66812989  1
  Si  Si1  1  0.00965280  0.65982226  0.33191254  1
  Si  Si2  1  0.50964859  0.98602644  0.33191169  1
  Si  Si3  1  0.50966074  0.31791687  0.66813080  1
  N  N4  1  0.93158054  0.71532946  0.00001189  1
  N  N5  1  0.87051050  0.32657345  0.60261386  1
  N  N6  1  0.87050843  0.92916728  0.39742015  1
  N  N7  1  0.43157484  0.26242921  0.00001227  1
  N  N8  1  0.37051185  0.04857613  0.60262099  1
  N  N9  1  0.37050941  0.65118281  0.39741405  1
  Li  Li10  1  0.99741965  0.32917598  0.00002006  1
  Li  Li11  1  0.49742932  0.64861802  0.00001733  1
