# generated using pymatgen
data_LiSi2N3
_symmetry_space_group_name_H-M   'P 1'
_cell_length_a   5.23705358
_cell_length_b   5.28866785
_cell_length_c   5.34996663
_cell_angle_alpha   60.09974978
_cell_angle_beta   88.49464297
_cell_angle_gamma   89.72263813
_symmetry_Int_Tables_number   1
_chemical_formula_structural   LiSi2N3
_chemical_formula_sum   'Li2 Si4 N6'
_cell_volume   128.40473820
_cell_formula_units_Z   2
loop_
 _symmetry_equiv_pos_site_id
 _symmetry_equiv_pos_as_xyz
  1  'x, y, z'
loop_
 _atom_site_type_symbol
 _atom_site_label
 _atom_site_symmetry_multiplicity
 _atom_site_fract_x
 _atom_site_fract_y
 _atom_site_fract_z
 _atom_site_occupancy
  Si  Si0  1  0.02406376  0.98882530  0.68113081  1
  Si  Si1  1  0.86098720  0.66653028  0.32521217  1
  Si  Si2  1  0.35760699  0.98683301  0.32205982  1
  Si  Si3  1  0.52138074  0.31013524  0.67775852  1
  N  N4  1  0.95010896  0.69980939  0.00599409  1
  N  N5  1  0.85827007  0.30009226  0.61948849  1
  N  N6  1  0.02280222  0.91079237  0.39393339  1
  N  N7  1  0.41838158  0.27732353  0.99322778  1
  N  N8  1  0.36030270  0.06415333  0.60981676  1
  N  N9  1  0.52458633  0.67682355  0.38435166  1
  Li  Li10  1  0.98905049  0.33546251  0.98428586  1
  Li  Li11  1  0.43473716  0.64932951  0.00384444  1
