# generated using pymatgen
data_LiSi2N3
_symmetry_space_group_name_H-M   'P 1'
_cell_length_a   5.02556468
_cell_length_b   5.36254539
_cell_length_c   5.29700798
_cell_angle_alpha   60.11063066
_cell_angle_beta   89.39022045
_cell_angle_gamma   89.83495740
_symmetry_Int_Tables_number   1
_chemical_formula_structural   LiSi2N3
_chemical_formula_sum   'Li2 Si4 N6'
_cell_volume   123.75817115
_cell_formula_units_Z   2
loop_
 _symmetry_equiv_pos_site_id
 _symmetry_equiv_pos_as_xyz
  1  'x, y, z'
loop_
 _atom_site_type_symbol
 _atom_site_label
 _atom_site_symmetry_multiplicity
 _atom_site_fract_x
 _atom_site_fract_y
 _atom_site_fract_z
 _atom_site_occupancy
  Si  Si0  1  0.02617715  0.99531748  0.66301110  1
  Si  Si1  1  0.86449566  0.65919678  0.31834941  1
  Si  Si2  1  0.52557599  0.00002137  0.33361216  1
  Si  Si3  1  0.52599566  0.30777146  0.67955583  1
  N  N4  1  0.97565036  0.70548067  0.99929054  1
  N  N5  1  0.88139402  0.30950643  0.62399907  1
  N  N6  1  0.88606554  0.95510412  0.38257513  1
  N  N7  1  0.43252898  0.26834766  0.00274749  1
  N  N8  1  0.37796118  0.04866244  0.60727541  1
  N  N9  1  0.49927273  0.65492180  0.37473942  1
  Li  Li10  1  0.01699563  0.32136599  0.99900865  1
  Li  Li11  1  0.39314582  0.64096258  0.01576198  1
