# generated using pymatgen
data_LiSi2N3
_symmetry_space_group_name_H-M   'P 1'
_cell_length_a   4.99198835
_cell_length_b   5.36769978
_cell_length_c   5.30527433
_cell_angle_alpha   60.12997192
_cell_angle_beta   89.37369650
_cell_angle_gamma   89.91426257
_symmetry_Int_Tables_number   1
_chemical_formula_structural   LiSi2N3
_chemical_formula_sum   'Li2 Si4 N6'
_cell_volume   123.26424225
_cell_formula_units_Z   2
loop_
 _symmetry_equiv_pos_site_id
 _symmetry_equiv_pos_as_xyz
  1  'x, y, z'
loop_
 _atom_site_type_symbol
 _atom_site_label
 _atom_site_symmetry_multiplicity
 _atom_site_fract_x
 _atom_site_fract_y
 _atom_site_fract_z
 _atom_site_occupancy
  Si  Si0  1  0.02584562  0.99514803  0.66312506  1
  Si  Si1  1  0.86540920  0.65929935  0.31840855  1
  Si  Si2  1  0.52507150  0.99964017  0.33368188  1
  Si  Si3  1  0.52551293  0.30794009  0.67989915  1
  N  N4  1  0.97357572  0.70587767  0.99853582  1
  N  N5  1  0.88264665  0.31021352  0.62329202  1
  N  N6  1  0.88729172  0.95492614  0.38232218  1
  N  N7  1  0.43258535  0.26775100  0.00323281  1
  N  N8  1  0.37906418  0.04823449  0.60775662  1
  N  N9  1  0.49730660  0.65447922  0.37586423  1
  Li  Li10  1  0.01567958  0.32200809  0.99883958  1
  Li  Li11  1  0.39561911  0.64112400  0.01500178  1
