# generated using pymatgen
data_LiSi2N3
_symmetry_space_group_name_H-M   'P 1'
_cell_length_a   5.23713416
_cell_length_b   5.28930007
_cell_length_c   5.35628162
_cell_angle_alpha   59.97695937
_cell_angle_beta   88.37399174
_cell_angle_gamma   89.66310152
_symmetry_Int_Tables_number   1
_chemical_formula_structural   LiSi2N3
_chemical_formula_sum   'Li2 Si4 N6'
_cell_volume   128.40741306
_cell_formula_units_Z   2
loop_
 _symmetry_equiv_pos_site_id
 _symmetry_equiv_pos_as_xyz
  1  'x, y, z'
loop_
 _atom_site_type_symbol
 _atom_site_label
 _atom_site_symmetry_multiplicity
 _atom_site_fract_x
 _atom_site_fract_y
 _atom_site_fract_z
 _atom_site_occupancy
  Si  Si0  1  0.03996566  0.98984885  0.68018916  1
  Si  Si1  1  0.87679252  0.66659293  0.32452940  1
  Si  Si2  1  0.37236976  0.98780797  0.31996503  1
  Si  Si3  1  0.53558680  0.31111024  0.67560296  1
  N  N4  1  0.97991984  0.69908940  0.00953687  1
  N  N5  1  0.87236824  0.29952719  0.61975660  1
  N  N6  1  0.03715088  0.91041965  0.39477928  1
  N  N7  1  0.43202435  0.27861894  0.99045493  1
  N  N8  1  0.37526080  0.06719885  0.60540816  1
  N  N9  1  0.54002277  0.67819219  0.38041044  1
  Li  Li10  1  0.99854661  0.33418330  0.98450701  1
  Li  Li11  1  0.41538713  0.64402805  0.01478080  1
