# generated using pymatgen
data_LiSi2N3
_symmetry_space_group_name_H-M   'P 1'
_cell_length_a   5.15395695
_cell_length_b   5.31382859
_cell_length_c   5.36376515
_cell_angle_alpha   60.00340306
_cell_angle_beta   88.62020407
_cell_angle_gamma   89.74068680
_symmetry_Int_Tables_number   1
_chemical_formula_structural   LiSi2N3
_chemical_formula_sum   'Li2 Si4 N6'
_cell_volume   127.18072907
_cell_formula_units_Z   2
loop_
 _symmetry_equiv_pos_site_id
 _symmetry_equiv_pos_as_xyz
  1  'x, y, z'
loop_
 _atom_site_type_symbol
 _atom_site_label
 _atom_site_symmetry_multiplicity
 _atom_site_fract_x
 _atom_site_fract_y
 _atom_site_fract_z
 _atom_site_occupancy
  Si  Si0  1  0.03363849  0.99025870  0.67971887  1
  Si  Si1  1  0.87091803  0.66721145  0.32375675  1
  Si  Si2  1  0.36738812  0.98754392  0.32022890  1
  Si  Si3  1  0.53009443  0.31057827  0.67619617  1
  N  N4  1  0.97057594  0.70106388  0.00755779  1
  N  N5  1  0.87138445  0.30267743  0.61856107  1
  N  N6  1  0.02717302  0.91438827  0.39264587  1
  N  N7  1  0.43059976  0.27673057  0.99243767  1
  N  N8  1  0.37383695  0.06341679  0.60729999  1
  N  N9  1  0.52962592  0.67510984  0.38137813  1
  Li  Li10  1  0.98490179  0.33412090  0.98770413  1
  Li  Li11  1  0.41549428  0.64354149  0.01247466  1
