# generated using pymatgen
data_LiSi2N3
_symmetry_space_group_name_H-M   'P 1'
_cell_length_a   4.92602844
_cell_length_b   5.37906728
_cell_length_c   5.32200240
_cell_angle_alpha   60.14345229
_cell_angle_beta   89.34728003
_cell_angle_gamma   89.99803645
_symmetry_Int_Tables_number   1
_chemical_formula_structural   LiSi2N3
_chemical_formula_sum   'Li2 Si4 N6'
_cell_volume   122.29204292
_cell_formula_units_Z   2
loop_
 _symmetry_equiv_pos_site_id
 _symmetry_equiv_pos_as_xyz
  1  'x, y, z'
loop_
 _atom_site_type_symbol
 _atom_site_label
 _atom_site_symmetry_multiplicity
 _atom_site_fract_x
 _atom_site_fract_y
 _atom_site_fract_z
 _atom_site_occupancy
  Si  Si0  1  0.02502123  0.99460063  0.66350991  1
  Si  Si1  1  0.86736806  0.65939772  0.31867004  1
  Si  Si2  1  0.52382176  0.99895794  0.33376203  1
  Si  Si3  1  0.52429631  0.30841303  0.68036967  1
  N  N4  1  0.96923685  0.70652560  0.99726111  1
  N  N5  1  0.88497052  0.31141048  0.62202007  1
  N  N6  1  0.88964818  0.95428508  0.38205009  1
  N  N7  1  0.43265822  0.26684556  0.00393121  1
  N  N8  1  0.38117365  0.04753124  0.60863265  1
  N  N9  1  0.49324473  0.65387356  0.37785503  1
  Li  Li10  1  0.01273664  0.32324475  0.99865558  1
  Li  Li11  1  0.40144670  0.64155592  0.01324261  1
