# generated using pymatgen
data_LiSi2N3
_symmetry_space_group_name_H-M   'P 1'
_cell_length_a   4.83736068
_cell_length_b   5.32784244
_cell_length_c   5.34842921
_cell_angle_alpha   60.13101579
_cell_angle_beta   90.01592155
_cell_angle_gamma   89.99922240
_symmetry_Int_Tables_number   1
_chemical_formula_structural   LiSi2N3
_chemical_formula_sum   'Li2 Si4 N6'
_cell_volume   119.53320030
_cell_formula_units_Z   2
loop_
 _symmetry_equiv_pos_site_id
 _symmetry_equiv_pos_as_xyz
  1  'x, y, z'
loop_
 _atom_site_type_symbol
 _atom_site_label
 _atom_site_symmetry_multiplicity
 _atom_site_fract_x
 _atom_site_fract_y
 _atom_site_fract_z
 _atom_site_occupancy
  Si  Si0  1  0.01191111  0.99184691  0.66799789  1
  Si  Si1  1  0.01184717  0.65983401  0.33200225  1
  Si  Si2  1  0.51188373  0.98592215  0.33200819  1
  Si  Si3  1  0.51191825  0.31792622  0.66802241  1
  N  N4  1  0.93396057  0.71526645  0.99995899  1
  N  N5  1  0.87229467  0.32660131  0.60261550  1
  N  N6  1  0.87229383  0.92922635  0.39735527  1
  N  N7  1  0.43386863  0.26245229  0.99999801  1
  N  N8  1  0.37228883  0.04859961  0.60257604  1
  N  N9  1  0.37228622  0.65117338  0.39741951  1
  Li  Li10  1  0.00041338  0.32911143  0.00000009  1
  Li  Li11  1  0.49979306  0.64866940  0.00003120  1
