# generated using pymatgen
data_LiSi2N3
_symmetry_space_group_name_H-M   'P 1'
_cell_length_a   4.94942585
_cell_length_b   5.37473286
_cell_length_c   5.31638787
_cell_angle_alpha   60.13996018
_cell_angle_beta   89.34747822
_cell_angle_gamma   90.00106561
_symmetry_Int_Tables_number   1
_chemical_formula_structural   LiSi2N3
_chemical_formula_sum   'Li2 Si4 N6'
_cell_volume   122.64003332
_cell_formula_units_Z   2
loop_
 _symmetry_equiv_pos_site_id
 _symmetry_equiv_pos_as_xyz
  1  'x, y, z'
loop_
 _atom_site_type_symbol
 _atom_site_label
 _atom_site_symmetry_multiplicity
 _atom_site_fract_x
 _atom_site_fract_y
 _atom_site_fract_z
 _atom_site_occupancy
  Si  Si0  1  0.02531944  0.99488265  0.66330286  1
  Si  Si1  1  0.86664617  0.65942805  0.31852675  1
  Si  Si2  1  0.52431984  0.99915467  0.33376572  1
  Si  Si3  1  0.52478369  0.30817108  0.68028631  1
  N  N4  1  0.97074283  0.70635172  0.99764443  1
  N  N5  1  0.88419849  0.31106754  0.62241433  1
  N  N6  1  0.88882755  0.95461760  0.38208219  1
  N  N7  1  0.43264820  0.26704640  0.00378017  1
  N  N8  1  0.38044717  0.04771622  0.60834702  1
  N  N9  1  0.49470550  0.65397393  0.37724571  1
  Li  Li10  1  0.01378273  0.32285859  0.99864064  1
  Li  Li11  1  0.39920124  0.64137306  0.01392389  1
