# generated using pymatgen
data_LiSi2N3
_symmetry_space_group_name_H-M   'P 1'
_cell_length_a   5.05493744
_cell_length_b   5.35795609
_cell_length_c   5.29032896
_cell_angle_alpha   60.09474413
_cell_angle_beta   89.35508328
_cell_angle_gamma   89.75151502
_symmetry_Int_Tables_number   1
_chemical_formula_structural   LiSi2N3
_chemical_formula_sum   'Li2 Si4 N6'
_cell_volume   124.19785482
_cell_formula_units_Z   2
loop_
 _symmetry_equiv_pos_site_id
 _symmetry_equiv_pos_as_xyz
  1  'x, y, z'
loop_
 _atom_site_type_symbol
 _atom_site_label
 _atom_site_symmetry_multiplicity
 _atom_site_fract_x
 _atom_site_fract_y
 _atom_site_fract_z
 _atom_site_occupancy
  Si  Si0  1  0.02645430  0.99544873  0.66286156  1
  Si  Si1  1  0.86383248  0.65909027  0.31830364  1
  Si  Si2  1  0.52608464  0.00036643  0.33355370  1
  Si  Si3  1  0.52640447  0.30761894  0.67927472  1
  N  N4  1  0.97745540  0.70511591  0.99990449  1
  N  N5  1  0.88034518  0.30889705  0.62457568  1
  N  N6  1  0.88508577  0.95520878  0.38283445  1
  N  N7  1  0.43257599  0.26881847  0.00241610  1
  N  N8  1  0.37705356  0.04908653  0.60686172  1
  N  N9  1  0.50102263  0.65529702  0.37381162  1
  Li  Li10  1  0.01814965  0.32080565  0.99911560  1
  Li  Li11  1  0.39116712  0.64088773  0.01644672  1
