
#======================================================================
# CRYSTAL DATA
#----------------------------------------------------------------------
data_VESTA_phase_1

_chemical_name_common                  'Hf   Al   Mg   N                      '
_cell_length_a                         9.455383
_cell_length_b                         9.452216
_cell_length_c                         10.061862
_cell_angle_alpha                      90.000000
_cell_angle_beta                       89.999245
_cell_angle_gamma                      60.011013
_cell_volume                           778.878931
_space_group_name_H-M_alt              'P 1'
_space_group_IT_number                 1

loop_
_space_group_symop_operation_xyz
   'x, y, z'

loop_
   _atom_site_label
   _atom_site_occupancy
   _atom_site_fract_x
   _atom_site_fract_y
   _atom_site_fract_z
   _atom_site_adp_type
   _atom_site_U_iso_or_equiv
   _atom_site_type_symbol
   Hf1        1.0     0.110791     0.094604     0.392292    Uiso  ? Hf
   Al1        1.0     0.224077     0.209998     0.143870    Uiso  ? Al
   Al2        1.0     0.776598     0.093121     0.901225    Uiso  ? Al
   Al3        1.0     0.885125     0.207437     0.655899    Uiso  ? Al
   Al4        1.0     0.449797     0.094744     0.400584    Uiso  ? Al
   Al5        1.0     0.556117     0.206787     0.149098    Uiso  ? Al
   Al6        1.0     0.111678     0.094161     0.904403    Uiso  ? Al
   Al7        1.0     0.224249     0.206914     0.655814    Uiso  ? Al
   Al8        1.0     0.772104     0.094502     0.400672    Uiso  ? Al
   Al9        1.0     0.881664     0.209168     0.143538    Uiso  ? Al
   Al10       1.0     0.446328     0.093609     0.900572    Uiso  ? Al
   Al11       1.0     0.555652     0.205867     0.651099    Uiso  ? Al
   Al12       1.0     0.111551     0.433552     0.402788    Uiso  ? Al
   Al13       1.0     0.776598     0.430281     0.901225    Uiso  ? Al
   Al14       1.0     0.888250     0.539395     0.650833    Uiso  ? Al
   Al15       1.0     0.443371     0.428315     0.401530    Uiso  ? Al
   Al16       1.0     0.556117     0.537096     0.149098    Uiso  ? Al
   Al17       1.0     0.109420     0.428956     0.900869    Uiso  ? Al
   Al18       1.0     0.223099     0.538450     0.650017    Uiso  ? Al
   Al19       1.0     0.772103     0.433395     0.400672    Uiso  ? Al
   Al20       1.0     0.889737     0.537662     0.149196    Uiso  ? Al
   Al21       1.0     0.446010     0.426995     0.901240    Uiso  ? Al
   Al22       1.0     0.555652     0.538481     0.651098    Uiso  ? Al
   Al23       1.0     0.111550     0.754898     0.402788    Uiso  ? Al
   Al24       1.0     0.224077     0.865924     0.143871    Uiso  ? Al
   Al25       1.0     0.778043     0.760979     0.900888    Uiso  ? Al
   Al26       1.0     0.888251     0.872354     0.650833    Uiso  ? Al
   Al27       1.0     0.449797     0.755459     0.400584    Uiso  ? Al
   Al28       1.0     0.556006     0.871997     0.149636    Uiso  ? Al
   Al29       1.0     0.109420     0.761624     0.900869    Uiso  ? Al
   Al30       1.0     0.224249     0.868836     0.655814    Uiso  ? Al
   Al31       1.0     0.778249     0.760876     0.399690    Uiso  ? Al
   Al32       1.0     0.889737     0.872601     0.149196    Uiso  ? Al
   Al33       1.0     0.446328     0.760063     0.900572    Uiso  ? Al
   Al34       1.0     0.556232     0.871884     0.650691    Uiso  ? Al
   Mg1        1.0     0.222490     0.538755     0.148989    Uiso  ? Mg
   N1         1.0     0.231625     0.214679     0.336474    Uiso  ? N
   N2         1.0     0.111396     0.094302     0.100322    Uiso  ? N
   N3         1.0     0.888825     0.205587     0.845643    Uiso  ? N
   N4         1.0     0.778201     0.094884     0.591394    Uiso  ? N
   N5         1.0     0.555272     0.206210     0.341232    Uiso  ? N
   N6         1.0     0.446375     0.093368     0.090614    Uiso  ? N
   N7         1.0     0.223279     0.204100     0.844232    Uiso  ? N
   N8         1.0     0.110794     0.094603     0.599860    Uiso  ? N
   N9         1.0     0.869751     0.215124     0.335603    Uiso  ? N
   N10        1.0     0.776503     0.093142     0.090640    Uiso  ? N
   N11        1.0     0.556044     0.204435     0.840010    Uiso  ? N
   N12        1.0     0.444097     0.094436     0.591313    Uiso  ? N
   N13        1.0     0.223248     0.538376     0.354601    Uiso  ? N
   N14        1.0     0.102531     0.422672     0.086078    Uiso  ? N
   N15        1.0     0.887369     0.540088     0.839939    Uiso  ? N
   N16        1.0     0.778201     0.426915     0.591394    Uiso  ? N
   N17        1.0     0.555272     0.538517     0.341232    Uiso  ? N
   N18        1.0     0.459280     0.420360     0.087326    Uiso  ? N
   N19        1.0     0.222629     0.538685     0.841187    Uiso  ? N
   N20        1.0     0.110463     0.426198     0.593889    Uiso  ? N
   N21        1.0     0.889319     0.537850     0.342265    Uiso  ? N
   N22        1.0     0.776503     0.430355     0.090640    Uiso  ? N
   N23        1.0     0.556044     0.539520     0.840010    Uiso  ? N
   N24        1.0     0.446446     0.426777     0.592947    Uiso  ? N
   N25        1.0     0.231625     0.853696     0.336474    Uiso  ? N
   N26        1.0     0.102531     0.774797     0.086078    Uiso  ? N
   N27        1.0     0.887369     0.872543     0.839939    Uiso  ? N
   N28        1.0     0.777626     0.761187     0.590246    Uiso  ? N
   N29        1.0     0.554823     0.872589     0.341686    Uiso  ? N
   N30        1.0     0.446375     0.760258     0.090614    Uiso  ? N
   N31        1.0     0.223279     0.872621     0.844232    Uiso  ? N
   N32        1.0     0.110463     0.763339     0.593889    Uiso  ? N
   N33        1.0     0.889319     0.872830     0.342265    Uiso  ? N
   N34        1.0     0.777567     0.761216     0.092172    Uiso  ? N
   N35        1.0     0.556073     0.871964     0.840976    Uiso  ? N
   N36        1.0     0.444097     0.761467     0.591313    Uiso  ? N
