
#======================================================================
# CRYSTAL DATA
#----------------------------------------------------------------------
data_VESTA_phase_1

_chemical_name_common                  'Hf   Al   Mg   N                      '
_cell_length_a                         9.452176
_cell_length_b                         9.447606
_cell_length_c                         10.065717
_cell_angle_alpha                      90.000000
_cell_angle_beta                       90.004456
_cell_angle_gamma                      60.015999
_cell_volume                           778.572228
_space_group_name_H-M_alt              'P 1'
_space_group_IT_number                 1

loop_
_space_group_symop_operation_xyz
   'x, y, z'

loop_
   _atom_site_label
   _atom_site_occupancy
   _atom_site_fract_x
   _atom_site_fract_y
   _atom_site_fract_z
   _atom_site_adp_type
   _atom_site_U_iso_or_equiv
   _atom_site_type_symbol
   Hf1        1.0     0.111154     0.094423     0.305233    Uiso  ? Hf
   Al1        1.0     0.222785     0.208711     0.046576    Uiso  ? Al
   Al2        1.0     0.776706     0.093441     0.802413    Uiso  ? Al
   Al3        1.0     0.882625     0.208688     0.557554    Uiso  ? Al
   Al4        1.0     0.449791     0.094562     0.300808    Uiso  ? Al
   Al5        1.0     0.555771     0.207513     0.052003    Uiso  ? Al
   Al6        1.0     0.111152     0.094424     0.800262    Uiso  ? Al
   Al7        1.0     0.225436     0.208046     0.557675    Uiso  ? Al
   Al8        1.0     0.772012     0.094310     0.300191    Uiso  ? Al
   Al9        1.0     0.884513     0.207743     0.046854    Uiso  ? Al
   Al10       1.0     0.446257     0.093822     0.802541    Uiso  ? Al
   Al11       1.0     0.555833     0.205304     0.552393    Uiso  ? Al
   Al12       1.0     0.110482     0.432269     0.300839    Uiso  ? Al
   Al13       1.0     0.776706     0.429853     0.802413    Uiso  ? Al
   Al14       1.0     0.888142     0.539424     0.552198    Uiso  ? Al
   Al15       1.0     0.446044     0.426978     0.301505    Uiso  ? Al
   Al16       1.0     0.555771     0.536717     0.052003    Uiso  ? Al
   Al17       1.0     0.110739     0.430351     0.800442    Uiso  ? Al
   Al18       1.0     0.222331     0.538835     0.553462    Uiso  ? Al
   Al19       1.0     0.772012     0.433677     0.300191    Uiso  ? Al
   Al20       1.0     0.889804     0.537407     0.052385    Uiso  ? Al
   Al21       1.0     0.443073     0.428464     0.800704    Uiso  ? Al
   Al22       1.0     0.555833     0.538863     0.552393    Uiso  ? Al
   Al23       1.0     0.110482     0.757250     0.300839    Uiso  ? Al
   Al24       1.0     0.222785     0.868505     0.046576    Uiso  ? Al
   Al25       1.0     0.778256     0.760872     0.802599    Uiso  ? Al
   Al26       1.0     0.888142     0.872434     0.552198    Uiso  ? Al
   Al27       1.0     0.449791     0.755647     0.300808    Uiso  ? Al
   Al28       1.0     0.556301     0.871850     0.051812    Uiso  ? Al
   Al29       1.0     0.110739     0.758910     0.800442    Uiso  ? Al
   Al30       1.0     0.225436     0.866518     0.557675    Uiso  ? Al
   Al31       1.0     0.778061     0.760970     0.301559    Uiso  ? Al
   Al32       1.0     0.889804     0.872789     0.052385    Uiso  ? Al
   Al33       1.0     0.446257     0.759920     0.802541    Uiso  ? Al
   Al34       1.0     0.556143     0.871928     0.552409    Uiso  ? Al
   Mg1        1.0     0.222539     0.538731     0.052973    Uiso  ? Mg
   N1         1.0     0.232172     0.212712     0.367409    Uiso  ? N
   N2         1.0     0.111744     0.094128     0.098826    Uiso  ? N
   N3         1.0     0.888324     0.205838     0.857138    Uiso  ? N
   N4         1.0     0.776877     0.093629     0.612340    Uiso  ? N
   N5         1.0     0.555759     0.204883     0.362647    Uiso  ? N
   N6         1.0     0.444030     0.094538     0.110257    Uiso  ? N
   N7         1.0     0.222512     0.205777     0.856356    Uiso  ? N
   N8         1.0     0.110682     0.094659     0.604523    Uiso  ? N
   N9         1.0     0.870839     0.214581     0.365951    Uiso  ? N
   N10        1.0     0.777738     0.094655     0.110191    Uiso  ? N
   N11        1.0     0.555559     0.205786     0.860932    Uiso  ? N
   N12        1.0     0.446556     0.093144     0.612446    Uiso  ? N
   N13        1.0     0.222917     0.538542     0.361234    Uiso  ? N
   N14        1.0     0.103915     0.419026     0.115462    Uiso  ? N
   N15        1.0     0.888840     0.539038     0.861013    Uiso  ? N
   N16        1.0     0.776877     0.429494     0.612340    Uiso  ? N
   N17        1.0     0.555759     0.539358     0.362647    Uiso  ? N
   N18        1.0     0.459035     0.420482     0.115740    Uiso  ? N
   N19        1.0     0.222442     0.538779     0.848206    Uiso  ? N
   N20        1.0     0.109062     0.428837     0.609808    Uiso  ? N
   N21        1.0     0.887896     0.538911     0.361681    Uiso  ? N
   N22        1.0     0.777738     0.427607     0.110191    Uiso  ? N
   N23        1.0     0.555559     0.538655     0.860932    Uiso  ? N
   N24        1.0     0.446169     0.426916     0.608953    Uiso  ? N
   N25        1.0     0.232172     0.855116     0.367409    Uiso  ? N
   N26        1.0     0.103915     0.777059     0.115462    Uiso  ? N
   N27        1.0     0.888840     0.872122     0.861013    Uiso  ? N
   N28        1.0     0.777559     0.761221     0.611197    Uiso  ? N
   N29        1.0     0.554938     0.872531     0.360611    Uiso  ? N
   N30        1.0     0.444030     0.761431     0.110257    Uiso  ? N
   N31        1.0     0.222512     0.871711     0.856356    Uiso  ? N
   N32        1.0     0.109062     0.762101     0.609808    Uiso  ? N
   N33        1.0     0.887896     0.873193     0.361681    Uiso  ? N
   N34        1.0     0.777943     0.761028     0.111227    Uiso  ? N
   N35        1.0     0.556023     0.871988     0.861410    Uiso  ? N
   N36        1.0     0.446556     0.760300     0.612446    Uiso  ? N
