
#======================================================================
# CRYSTAL DATA
#----------------------------------------------------------------------
data_VESTA_phase_1

_chemical_name_common                  'Hf   Al   Mg   N                      '
_cell_length_a                         9.811045
_cell_length_b                         9.804246
_cell_length_c                         9.024452
_cell_angle_alpha                      90.000008
_cell_angle_beta                       89.992592
_cell_angle_gamma                      60.021591
_cell_volume                           751.926472
_space_group_name_H-M_alt              'P 1'
_space_group_IT_number                 1

loop_
_space_group_symop_operation_xyz
   'x, y, z'

loop_
   _atom_site_label
   _atom_site_occupancy
   _atom_site_fract_x
   _atom_site_fract_y
   _atom_site_fract_z
   _atom_site_adp_type
   _atom_site_U_iso_or_equiv
   _atom_site_type_symbol
   Hf1        1.0     0.110399     0.094802     0.355393    Uiso  ? Hf
   Al1        1.0     0.225947     0.208919     0.110431    Uiso  ? Al
   Al2        1.0     0.775420     0.091692     0.871551    Uiso  ? Al
   Al3        1.0     0.885140     0.207429     0.631085    Uiso  ? Al
   Al4        1.0     0.448852     0.094121     0.374321    Uiso  ? Al
   Al5        1.0     0.557518     0.204493     0.123623    Uiso  ? Al
   Al6        1.0     0.111770     0.094116     0.872886    Uiso  ? Al
   Al7        1.0     0.223655     0.208044     0.629258    Uiso  ? Al
   Al8        1.0     0.773143     0.095168     0.374609    Uiso  ? Al
   Al9        1.0     0.879327     0.210335     0.108758    Uiso  ? Al
   Al10       1.0     0.448307     0.092764     0.871256    Uiso  ? Al
   Al11       1.0     0.554657     0.207777     0.622164    Uiso  ? Al
   Al12       1.0     0.111842     0.431705     0.369707    Uiso  ? Al
   Al13       1.0     0.775420     0.432888     0.871551    Uiso  ? Al
   Al14       1.0     0.889227     0.539264     0.620733    Uiso  ? Al
   Al15       1.0     0.444140     0.427931     0.368183    Uiso  ? Al
   Al16       1.0     0.557518     0.537988     0.123623    Uiso  ? Al
   Al17       1.0     0.108312     0.431561     0.874344    Uiso  ? Al
   Al18       1.0     0.223696     0.538152     0.614035    Uiso  ? Al
   Al19       1.0     0.773143     0.431689     0.374609    Uiso  ? Al
   Al20       1.0     0.887839     0.538176     0.124067    Uiso  ? Al
   Al21       1.0     0.445406     0.427298     0.876372    Uiso  ? Al
   Al22       1.0     0.554657     0.537566     0.622163    Uiso  ? Al
   Al23       1.0     0.111841     0.756455     0.369707    Uiso  ? Al
   Al24       1.0     0.225947     0.865133     0.110431    Uiso  ? Al
   Al25       1.0     0.778465     0.760768     0.873787    Uiso  ? Al
   Al26       1.0     0.889227     0.871507     0.620733    Uiso  ? Al
   Al27       1.0     0.448851     0.757029     0.374320    Uiso  ? Al
   Al28       1.0     0.555877     0.872061     0.122136    Uiso  ? Al
   Al29       1.0     0.108312     0.760128     0.874344    Uiso  ? Al
   Al30       1.0     0.223655     0.868300     0.629258    Uiso  ? Al
   Al31       1.0     0.777279     0.761360     0.371326    Uiso  ? Al
   Al32       1.0     0.887839     0.873983     0.124067    Uiso  ? Al
   Al33       1.0     0.448307     0.758931     0.871256    Uiso  ? Al
   Al34       1.0     0.556748     0.871626     0.622923    Uiso  ? Al
   Mg1        1.0     0.222653     0.538673     0.116342    Uiso  ? Mg
   N1         1.0     0.232693     0.212729     0.332052    Uiso  ? N
   N2         1.0     0.111279     0.094362     0.094465    Uiso  ? N
   N3         1.0     0.888328     0.205835     0.845248    Uiso  ? N
   N4         1.0     0.778261     0.095451     0.589002    Uiso  ? N
   N5         1.0     0.556193     0.203931     0.338569    Uiso  ? N
   N6         1.0     0.447609     0.092872     0.084746    Uiso  ? N
   N7         1.0     0.223432     0.204712     0.842945    Uiso  ? N
   N8         1.0     0.110270     0.094866     0.595195    Uiso  ? N
   N9         1.0     0.869396     0.215300     0.329739    Uiso  ? N
   N10        1.0     0.775934     0.092535     0.084431    Uiso  ? N
   N11        1.0     0.555263     0.205749     0.834631    Uiso  ? N
   N12        1.0     0.443917     0.094399     0.588869    Uiso  ? N
   N13        1.0     0.222685     0.538656     0.351877    Uiso  ? N
   N14        1.0     0.101827     0.423589     0.085797    Uiso  ? N
   N15        1.0     0.887356     0.541133     0.833933    Uiso  ? N
   N16        1.0     0.778261     0.426290     0.589002    Uiso  ? N
   N17        1.0     0.556193     0.539874     0.338569    Uiso  ? N
   N18        1.0     0.459757     0.420123     0.088941    Uiso  ? N
   N19        1.0     0.223216     0.538391     0.835226    Uiso  ? N
   N20        1.0     0.110469     0.425575     0.587648    Uiso  ? N
   N21        1.0     0.887962     0.538203     0.339464    Uiso  ? N
   N22        1.0     0.775934     0.431533     0.084431    Uiso  ? N
   N23        1.0     0.555263     0.538987     0.834631    Uiso  ? N
   N24        1.0     0.446965     0.426519     0.584779    Uiso  ? N
   N25        1.0     0.232692     0.854577     0.332052    Uiso  ? N
   N26        1.0     0.101827     0.774587     0.085798    Uiso  ? N
   N27        1.0     0.887356     0.871508     0.833933    Uiso  ? N
   N28        1.0     0.777200     0.761401     0.584469    Uiso  ? N
   N29        1.0     0.554329     0.872835     0.337293    Uiso  ? N
   N30        1.0     0.447609     0.759522     0.084747    Uiso  ? N
   N31        1.0     0.223432     0.871853     0.842946    Uiso  ? N
   N32        1.0     0.110469     0.763959     0.587648    Uiso  ? N
   N33        1.0     0.887961     0.873832     0.339464    Uiso  ? N
   N34        1.0     0.777799     0.761101     0.089203    Uiso  ? N
   N35        1.0     0.557341     0.871328     0.836406    Uiso  ? N
   N36        1.0     0.443916     0.761688     0.588869    Uiso  ? N
