
#======================================================================
# CRYSTAL DATA
#----------------------------------------------------------------------
data_VESTA_phase_1

_chemical_name_common                  'Hf   Al   Mg   N                      '
_cell_length_a                         9.455399
_cell_length_b                         9.452255
_cell_length_c                         10.061795
_cell_angle_alpha                      90.000008
_cell_angle_beta                       89.999329
_cell_angle_gamma                      60.011070
_cell_volume                           778.878691
_space_group_name_H-M_alt              'P 1'
_space_group_IT_number                 1

loop_
_space_group_symop_operation_xyz
   'x, y, z'

loop_
   _atom_site_label
   _atom_site_occupancy
   _atom_site_fract_x
   _atom_site_fract_y
   _atom_site_fract_z
   _atom_site_adp_type
   _atom_site_U_iso_or_equiv
   _atom_site_type_symbol
   Hf1        1.0     0.110784     0.094608     0.385137    Uiso  ? Hf
   Al1        1.0     0.224075     0.210000     0.136720    Uiso  ? Al
   Al2        1.0     0.776596     0.093122     0.894073    Uiso  ? Al
   Al3        1.0     0.885124     0.207438     0.648748    Uiso  ? Al
   Al4        1.0     0.449795     0.094746     0.393433    Uiso  ? Al
   Al5        1.0     0.556115     0.206788     0.141948    Uiso  ? Al
   Al6        1.0     0.111675     0.094162     0.897257    Uiso  ? Al
   Al7        1.0     0.224246     0.206915     0.648664    Uiso  ? Al
   Al8        1.0     0.772101     0.094504     0.393521    Uiso  ? Al
   Al9        1.0     0.881659     0.209171     0.136387    Uiso  ? Al
   Al10       1.0     0.446327     0.093610     0.893420    Uiso  ? Al
   Al11       1.0     0.555650     0.205868     0.643947    Uiso  ? Al
   Al12       1.0     0.111548     0.433553     0.395638    Uiso  ? Al
   Al13       1.0     0.776596     0.430282     0.894073    Uiso  ? Al
   Al14       1.0     0.888248     0.539397     0.643681    Uiso  ? Al
   Al15       1.0     0.443369     0.428316     0.394379    Uiso  ? Al
   Al16       1.0     0.556114     0.537097     0.141948    Uiso  ? Al
   Al17       1.0     0.109418     0.428957     0.893718    Uiso  ? Al
   Al18       1.0     0.223098     0.538451     0.642867    Uiso  ? Al
   Al19       1.0     0.772101     0.433395     0.393521    Uiso  ? Al
   Al20       1.0     0.889734     0.537663     0.142045    Uiso  ? Al
   Al21       1.0     0.446008     0.426996     0.894089    Uiso  ? Al
   Al22       1.0     0.555650     0.538482     0.643947    Uiso  ? Al
   Al23       1.0     0.111548     0.754899     0.395638    Uiso  ? Al
   Al24       1.0     0.224075     0.865924     0.136720    Uiso  ? Al
   Al25       1.0     0.778041     0.760979     0.893736    Uiso  ? Al
   Al26       1.0     0.888248     0.872356     0.643681    Uiso  ? Al
   Al27       1.0     0.449795     0.755459     0.393433    Uiso  ? Al
   Al28       1.0     0.556004     0.871998     0.142485    Uiso  ? Al
   Al29       1.0     0.109418     0.761625     0.893718    Uiso  ? Al
   Al30       1.0     0.224246     0.868839     0.648664    Uiso  ? Al
   Al31       1.0     0.778248     0.760876     0.392538    Uiso  ? Al
   Al32       1.0     0.889734     0.872603     0.142045    Uiso  ? Al
   Al33       1.0     0.446327     0.760064     0.893420    Uiso  ? Al
   Al34       1.0     0.556230     0.871885     0.643540    Uiso  ? Al
   Mg1        1.0     0.222487     0.538756     0.141838    Uiso  ? Mg
   N1         1.0     0.231624     0.214681     0.329325    Uiso  ? N
   N2         1.0     0.111394     0.094303     0.093177    Uiso  ? N
   N3         1.0     0.888824     0.205588     0.838494    Uiso  ? N
   N4         1.0     0.778199     0.094885     0.584245    Uiso  ? N
   N5         1.0     0.555269     0.206211     0.334082    Uiso  ? N
   N6         1.0     0.446373     0.093368     0.083464    Uiso  ? N
   N7         1.0     0.223276     0.204100     0.837084    Uiso  ? N
   N8         1.0     0.110792     0.094604     0.592707    Uiso  ? N
   N9         1.0     0.869748     0.215126     0.328453    Uiso  ? N
   N10        1.0     0.776500     0.093143     0.083489    Uiso  ? N
   N11        1.0     0.556041     0.204437     0.832860    Uiso  ? N
   N12        1.0     0.444094     0.094437     0.584164    Uiso  ? N
   N13        1.0     0.223245     0.538378     0.347451    Uiso  ? N
   N14        1.0     0.102528     0.422673     0.078929    Uiso  ? N
   N15        1.0     0.887366     0.540090     0.832789    Uiso  ? N
   N16        1.0     0.778199     0.426915     0.584245    Uiso  ? N
   N17        1.0     0.555269     0.538520     0.334082    Uiso  ? N
   N18        1.0     0.459277     0.420361     0.080177    Uiso  ? N
   N19        1.0     0.222627     0.538687     0.834038    Uiso  ? N
   N20        1.0     0.110461     0.426198     0.586741    Uiso  ? N
   N21        1.0     0.889317     0.537852     0.335116    Uiso  ? N
   N22        1.0     0.776500     0.430357     0.083489    Uiso  ? N
   N23        1.0     0.556041     0.539522     0.832860    Uiso  ? N
   N24        1.0     0.446443     0.426778     0.585797    Uiso  ? N
   N25        1.0     0.231624     0.853696     0.329325    Uiso  ? N
   N26        1.0     0.102528     0.774798     0.078929    Uiso  ? N
   N27        1.0     0.887366     0.872544     0.832789    Uiso  ? N
   N28        1.0     0.777624     0.761188     0.583096    Uiso  ? N
   N29        1.0     0.554820     0.872590     0.334536    Uiso  ? N
   N30        1.0     0.446373     0.760259     0.083464    Uiso  ? N
   N31        1.0     0.223276     0.872624     0.837084    Uiso  ? N
   N32        1.0     0.110461     0.763340     0.586741    Uiso  ? N
   N33        1.0     0.889317     0.872832     0.335116    Uiso  ? N
   N34        1.0     0.777565     0.761217     0.085022    Uiso  ? N
   N35        1.0     0.556070     0.871965     0.833826    Uiso  ? N
   N36        1.0     0.444094     0.761468     0.584164    Uiso  ? N
