
#======================================================================
# CRYSTAL DATA
#----------------------------------------------------------------------
data_VESTA_phase_1

_chemical_name_common                  'Hf   Al   Mg   N                      '
_cell_length_a                         9.893077
_cell_length_b                         9.890298
_cell_length_c                         8.757654
_cell_angle_alpha                      89.999992
_cell_angle_beta                       89.997429
_cell_angle_gamma                      60.009895
_cell_volume                           742.168430
_space_group_name_H-M_alt              'P 1'
_space_group_IT_number                 1

loop_
_space_group_symop_operation_xyz
   'x, y, z'

loop_
   _atom_site_label
   _atom_site_occupancy
   _atom_site_fract_x
   _atom_site_fract_y
   _atom_site_fract_z
   _atom_site_adp_type
   _atom_site_U_iso_or_equiv
   _atom_site_type_symbol
   Hf1        1.0     0.111574     0.094212     0.354833    Uiso  ? Hf
   Al1        1.0     0.223978     0.206752     0.082608    Uiso  ? Al
   Al2        1.0     0.775952     0.092273     0.842148    Uiso  ? Al
   Al3        1.0     0.880768     0.209616     0.604193    Uiso  ? Al
   Al4        1.0     0.448322     0.095268     0.341700    Uiso  ? Al
   Al5        1.0     0.556732     0.205904     0.090182    Uiso  ? Al
   Al6        1.0     0.110943     0.094528     0.843674    Uiso  ? Al
   Al7        1.0     0.225725     0.210246     0.605770    Uiso  ? Al
   Al8        1.0     0.773015     0.094436     0.341600    Uiso  ? Al
   Al9        1.0     0.883621     0.208190     0.085219    Uiso  ? Al
   Al10       1.0     0.448742     0.091600     0.842131    Uiso  ? Al
   Al11       1.0     0.555217     0.206532     0.593437    Uiso  ? Al
   Al12       1.0     0.111411     0.431493     0.338288    Uiso  ? Al
   Al13       1.0     0.775952     0.431775     0.842149    Uiso  ? Al
   Al14       1.0     0.889543     0.538563     0.592606    Uiso  ? Al
   Al15       1.0     0.444975     0.427512     0.339649    Uiso  ? Al
   Al16       1.0     0.556732     0.537365     0.090182    Uiso  ? Al
   Al17       1.0     0.109110     0.431867     0.846987    Uiso  ? Al
   Al18       1.0     0.222252     0.538874     0.600940    Uiso  ? Al
   Al19       1.0     0.773015     0.432549     0.341600    Uiso  ? Al
   Al20       1.0     0.887642     0.538770     0.091627    Uiso  ? Al
   Al21       1.0     0.444041     0.427979     0.846012    Uiso  ? Al
   Al22       1.0     0.555217     0.538252     0.593437    Uiso  ? Al
   Al23       1.0     0.111411     0.757095     0.338288    Uiso  ? Al
   Al24       1.0     0.223978     0.869271     0.082608    Uiso  ? Al
   Al25       1.0     0.777227     0.761386     0.840287    Uiso  ? Al
   Al26       1.0     0.889543     0.871895     0.592606    Uiso  ? Al
   Al27       1.0     0.448322     0.756409     0.341700    Uiso  ? Al
   Al28       1.0     0.556597     0.871702     0.093617    Uiso  ? Al
   Al29       1.0     0.109110     0.759022     0.846987    Uiso  ? Al
   Al30       1.0     0.225725     0.864030     0.605770    Uiso  ? Al
   Al31       1.0     0.778547     0.760726     0.343719    Uiso  ? Al
   Al32       1.0     0.887642     0.873589     0.091627    Uiso  ? Al
   Al33       1.0     0.448742     0.759658     0.842131    Uiso  ? Al
   Al34       1.0     0.555919     0.872041     0.590557    Uiso  ? Al
   Mg1        1.0     0.223611     0.538195     0.096869    Uiso  ? Mg
   N1         1.0     0.231490     0.213364     0.372846    Uiso  ? N
   N2         1.0     0.111461     0.094269     0.105721    Uiso  ? N
   N3         1.0     0.887622     0.206189     0.860636    Uiso  ? N
   N4         1.0     0.776760     0.093437     0.618017    Uiso  ? N
   N5         1.0     0.555616     0.205045     0.367942    Uiso  ? N
   N6         1.0     0.443985     0.094907     0.114824    Uiso  ? N
   N7         1.0     0.223984     0.204233     0.858484    Uiso  ? N
   N8         1.0     0.110046     0.094977     0.613749    Uiso  ? N
   N9         1.0     0.871480     0.214260     0.369955    Uiso  ? N
   N10        1.0     0.777564     0.094655     0.114797    Uiso  ? N
   N11        1.0     0.555835     0.204601     0.865418    Uiso  ? N
   N12        1.0     0.447390     0.092388     0.618108    Uiso  ? N
   N13        1.0     0.222532     0.538734     0.368509    Uiso  ? N
   N14        1.0     0.104298     0.420046     0.113160    Uiso  ? N
   N15        1.0     0.886459     0.541394     0.865994    Uiso  ? N
   N16        1.0     0.776760     0.429802     0.618017    Uiso  ? N
   N17        1.0     0.555616     0.539340     0.367942    Uiso  ? N
   N18        1.0     0.458870     0.420564     0.115554    Uiso  ? N
   N19        1.0     0.223040     0.538481     0.853306    Uiso  ? N
   N20        1.0     0.108443     0.429242     0.619324    Uiso  ? N
   N21        1.0     0.888865     0.538121     0.366924    Uiso  ? N
   N22        1.0     0.777564     0.427780     0.114797    Uiso  ? N
   N23        1.0     0.555835     0.539565     0.865418    Uiso  ? N
   N24        1.0     0.446709     0.426645     0.616792    Uiso  ? N
   N25        1.0     0.231490     0.855147     0.372846    Uiso  ? N
   N26        1.0     0.104298     0.775655     0.113160    Uiso  ? N
   N27        1.0     0.886459     0.872148     0.865994    Uiso  ? N
   N28        1.0     0.777181     0.761409     0.614144    Uiso  ? N
   N29        1.0     0.554407     0.872797     0.364665    Uiso  ? N
   N30        1.0     0.443985     0.761108     0.114824    Uiso  ? N
   N31        1.0     0.223984     0.871783     0.858484    Uiso  ? N
   N32        1.0     0.108443     0.762315     0.619324    Uiso  ? N
   N33        1.0     0.888865     0.873015     0.366924    Uiso  ? N
   N34        1.0     0.778030     0.760984     0.118740    Uiso  ? N
   N35        1.0     0.557116     0.871443     0.868326    Uiso  ? N
   N36        1.0     0.447391     0.760220     0.618108    Uiso  ? N
