
#======================================================================
# CRYSTAL DATA
#----------------------------------------------------------------------
data_VESTA_phase_1

_chemical_name_common                  'Hf   Al   Mg   N                      '
_cell_length_a                         9.452206
_cell_length_b                         9.447641
_cell_length_c                         10.065638
_cell_angle_alpha                      90.000000
_cell_angle_beta                       90.004486
_cell_angle_gamma                      60.016083
_cell_volume                           778.572106
_space_group_name_H-M_alt              'P 1'
_space_group_IT_number                 1

loop_
_space_group_symop_operation_xyz
   'x, y, z'

loop_
   _atom_site_label
   _atom_site_occupancy
   _atom_site_fract_x
   _atom_site_fract_y
   _atom_site_fract_z
   _atom_site_adp_type
   _atom_site_U_iso_or_equiv
   _atom_site_type_symbol
   Hf1        1.0     0.111154     0.094423     0.308525    Uiso  ? Hf
   Al1        1.0     0.222785     0.208711     0.049868    Uiso  ? Al
   Al2        1.0     0.776708     0.093440     0.805705    Uiso  ? Al
   Al3        1.0     0.882624     0.208688     0.560839    Uiso  ? Al
   Al4        1.0     0.449794     0.094561     0.304095    Uiso  ? Al
   Al5        1.0     0.555771     0.207514     0.055291    Uiso  ? Al
   Al6        1.0     0.111153     0.094423     0.803548    Uiso  ? Al
   Al7        1.0     0.225439     0.208045     0.560959    Uiso  ? Al
   Al8        1.0     0.772013     0.094310     0.303477    Uiso  ? Al
   Al9        1.0     0.884515     0.207742     0.050145    Uiso  ? Al
   Al10       1.0     0.446257     0.093822     0.805833    Uiso  ? Al
   Al11       1.0     0.555835     0.205302     0.555684    Uiso  ? Al
   Al12       1.0     0.110483     0.432269     0.304128    Uiso  ? Al
   Al13       1.0     0.776708     0.429852     0.805705    Uiso  ? Al
   Al14       1.0     0.888143     0.539423     0.555487    Uiso  ? Al
   Al15       1.0     0.446046     0.426977     0.304798    Uiso  ? Al
   Al16       1.0     0.555771     0.536716     0.055291    Uiso  ? Al
   Al17       1.0     0.110740     0.430349     0.803728    Uiso  ? Al
   Al18       1.0     0.222331     0.538834     0.556753    Uiso  ? Al
   Al19       1.0     0.772013     0.433678     0.303477    Uiso  ? Al
   Al20       1.0     0.889806     0.537407     0.055674    Uiso  ? Al
   Al21       1.0     0.443074     0.428463     0.803989    Uiso  ? Al
   Al22       1.0     0.555835     0.538863     0.555684    Uiso  ? Al
   Al23       1.0     0.110483     0.757248     0.304128    Uiso  ? Al
   Al24       1.0     0.222785     0.868505     0.049868    Uiso  ? Al
   Al25       1.0     0.778258     0.760871     0.805890    Uiso  ? Al
   Al26       1.0     0.888143     0.872434     0.555487    Uiso  ? Al
   Al27       1.0     0.449794     0.755645     0.304095    Uiso  ? Al
   Al28       1.0     0.556302     0.871849     0.055101    Uiso  ? Al
   Al29       1.0     0.110740     0.758911     0.803728    Uiso  ? Al
   Al30       1.0     0.225439     0.866516     0.560959    Uiso  ? Al
   Al31       1.0     0.778062     0.760969     0.304848    Uiso  ? Al
   Al32       1.0     0.889806     0.872787     0.055674    Uiso  ? Al
   Al33       1.0     0.446257     0.759920     0.805833    Uiso  ? Al
   Al34       1.0     0.556144     0.871928     0.555699    Uiso  ? Al
   Mg1        1.0     0.222540     0.538730     0.056260    Uiso  ? Mg
   N1         1.0     0.232175     0.212712     0.370692    Uiso  ? N
   N2         1.0     0.111746     0.094127     0.102116    Uiso  ? N
   N3         1.0     0.888327     0.205837     0.860427    Uiso  ? N
   N4         1.0     0.776879     0.093628     0.615628    Uiso  ? N
   N5         1.0     0.555761     0.204882     0.365935    Uiso  ? N
   N6         1.0     0.444032     0.094538     0.113543    Uiso  ? N
   N7         1.0     0.222512     0.205777     0.859645    Uiso  ? N
   N8         1.0     0.110683     0.094658     0.607805    Uiso  ? N
   N9         1.0     0.870838     0.214581     0.369235    Uiso  ? N
   N10        1.0     0.777739     0.094654     0.113476    Uiso  ? N
   N11        1.0     0.555559     0.205787     0.864219    Uiso  ? N
   N12        1.0     0.446557     0.093143     0.615735    Uiso  ? N
   N13        1.0     0.222918     0.538541     0.364523    Uiso  ? N
   N14        1.0     0.103916     0.419026     0.118749    Uiso  ? N
   N15        1.0     0.888842     0.539037     0.864300    Uiso  ? N
   N16        1.0     0.776879     0.429492     0.615628    Uiso  ? N
   N17        1.0     0.555761     0.539358     0.365935    Uiso  ? N
   N18        1.0     0.459036     0.420482     0.119029    Uiso  ? N
   N19        1.0     0.222443     0.538779     0.851490    Uiso  ? N
   N20        1.0     0.109063     0.428835     0.613093    Uiso  ? N
   N21        1.0     0.887897     0.538910     0.364968    Uiso  ? N
   N22        1.0     0.777739     0.427607     0.113476    Uiso  ? N
   N23        1.0     0.555559     0.538654     0.864219    Uiso  ? N
   N24        1.0     0.446170     0.426915     0.612239    Uiso  ? N
   N25        1.0     0.232175     0.855113     0.370692    Uiso  ? N
   N26        1.0     0.103916     0.777058     0.118749    Uiso  ? N
   N27        1.0     0.888842     0.872122     0.864300    Uiso  ? N
   N28        1.0     0.777560     0.761220     0.614485    Uiso  ? N
   N29        1.0     0.554939     0.872531     0.363898    Uiso  ? N
   N30        1.0     0.444032     0.761430     0.113543    Uiso  ? N
   N31        1.0     0.222512     0.871711     0.859645    Uiso  ? N
   N32        1.0     0.109063     0.762101     0.613093    Uiso  ? N
   N33        1.0     0.887897     0.873194     0.364968    Uiso  ? N
   N34        1.0     0.777944     0.761028     0.114514    Uiso  ? N
   N35        1.0     0.556024     0.871988     0.864697    Uiso  ? N
   N36        1.0     0.446557     0.760300     0.615735    Uiso  ? N
