
#======================================================================
# CRYSTAL DATA
#----------------------------------------------------------------------
data_VESTA_phase_1

_chemical_name_common                  'Hf   Al   Mg   N                      '
_cell_length_a                         9.455365
_cell_length_b                         9.452224
_cell_length_c                         10.061887
_cell_angle_alpha                      90.000000
_cell_angle_beta                       89.999352
_cell_angle_gamma                      60.010986
_cell_volume                           778.879777
_space_group_name_H-M_alt              'P 1'
_space_group_IT_number                 1

loop_
_space_group_symop_operation_xyz
   'x, y, z'

loop_
   _atom_site_label
   _atom_site_occupancy
   _atom_site_fract_x
   _atom_site_fract_y
   _atom_site_fract_z
   _atom_site_adp_type
   _atom_site_U_iso_or_equiv
   _atom_site_type_symbol
   Hf1        1.0     0.110791     0.094605     0.402036    Uiso  ? Hf
   Al1        1.0     0.224080     0.209997     0.153611    Uiso  ? Al
   Al2        1.0     0.776602     0.093119     0.910963    Uiso  ? Al
   Al3        1.0     0.885128     0.207436     0.665641    Uiso  ? Al
   Al4        1.0     0.449800     0.094743     0.410321    Uiso  ? Al
   Al5        1.0     0.556120     0.206786     0.158836    Uiso  ? Al
   Al6        1.0     0.111681     0.094159     0.914147    Uiso  ? Al
   Al7        1.0     0.224253     0.206913     0.665558    Uiso  ? Al
   Al8        1.0     0.772107     0.094501     0.410410    Uiso  ? Al
   Al9        1.0     0.881667     0.209166     0.153278    Uiso  ? Al
   Al10       1.0     0.446333     0.093607     0.910310    Uiso  ? Al
   Al11       1.0     0.555656     0.205865     0.660835    Uiso  ? Al
   Al12       1.0     0.111553     0.433550     0.412530    Uiso  ? Al
   Al13       1.0     0.776602     0.430280     0.910963    Uiso  ? Al
   Al14       1.0     0.888253     0.539394     0.660570    Uiso  ? Al
   Al15       1.0     0.443375     0.428313     0.411269    Uiso  ? Al
   Al16       1.0     0.556120     0.537094     0.158836    Uiso  ? Al
   Al17       1.0     0.109424     0.428955     0.910608    Uiso  ? Al
   Al18       1.0     0.223103     0.538448     0.659756    Uiso  ? Al
   Al19       1.0     0.772107     0.433392     0.410410    Uiso  ? Al
   Al20       1.0     0.889740     0.537660     0.158934    Uiso  ? Al
   Al21       1.0     0.446013     0.426993     0.910977    Uiso  ? Al
   Al22       1.0     0.555656     0.538479     0.660835    Uiso  ? Al
   Al23       1.0     0.111553     0.754897     0.412530    Uiso  ? Al
   Al24       1.0     0.224080     0.865923     0.153611    Uiso  ? Al
   Al25       1.0     0.778047     0.760977     0.910625    Uiso  ? Al
   Al26       1.0     0.888253     0.872353     0.660570    Uiso  ? Al
   Al27       1.0     0.449800     0.755457     0.410321    Uiso  ? Al
   Al28       1.0     0.556010     0.871995     0.159374    Uiso  ? Al
   Al29       1.0     0.109424     0.761622     0.910608    Uiso  ? Al
   Al30       1.0     0.224253     0.868835     0.665558    Uiso  ? Al
   Al31       1.0     0.778253     0.760874     0.409427    Uiso  ? Al
   Al32       1.0     0.889740     0.872600     0.158934    Uiso  ? Al
   Al33       1.0     0.446333     0.760060     0.910310    Uiso  ? Al
   Al34       1.0     0.556235     0.871882     0.660428    Uiso  ? Al
   Mg1        1.0     0.222494     0.538753     0.158731    Uiso  ? Mg
   N1         1.0     0.231628     0.214677     0.346215    Uiso  ? N
   N2         1.0     0.111400     0.094300     0.110062    Uiso  ? N
   N3         1.0     0.888829     0.205586     0.855384    Uiso  ? N
   N4         1.0     0.778205     0.094883     0.601132    Uiso  ? N
   N5         1.0     0.555274     0.206209     0.350969    Uiso  ? N
   N6         1.0     0.446378     0.093366     0.100353    Uiso  ? N
   N7         1.0     0.223282     0.204098     0.853974    Uiso  ? N
   N8         1.0     0.110798     0.094601     0.609604    Uiso  ? N
   N9         1.0     0.869757     0.215121     0.345343    Uiso  ? N
   N10        1.0     0.776507     0.093140     0.100378    Uiso  ? N
   N11        1.0     0.556047     0.204433     0.849747    Uiso  ? N
   N12        1.0     0.444099     0.094435     0.601051    Uiso  ? N
   N13        1.0     0.223250     0.538375     0.364342    Uiso  ? N
   N14        1.0     0.102535     0.422671     0.095818    Uiso  ? N
   N15        1.0     0.887372     0.540087     0.849677    Uiso  ? N
   N16        1.0     0.778205     0.426912     0.601132    Uiso  ? N
   N17        1.0     0.555274     0.538517     0.350969    Uiso  ? N
   N18        1.0     0.459282     0.420359     0.097063    Uiso  ? N
   N19        1.0     0.222632     0.538684     0.850925    Uiso  ? N
   N20        1.0     0.110467     0.426195     0.603630    Uiso  ? N
   N21        1.0     0.889323     0.537849     0.352004    Uiso  ? N
   N22        1.0     0.776507     0.430353     0.100378    Uiso  ? N
   N23        1.0     0.556047     0.539519     0.849747    Uiso  ? N
   N24        1.0     0.446450     0.426775     0.602686    Uiso  ? N
   N25        1.0     0.231628     0.853695     0.346215    Uiso  ? N
   N26        1.0     0.102535     0.774795     0.095818    Uiso  ? N
   N27        1.0     0.887372     0.872541     0.849677    Uiso  ? N
   N28        1.0     0.777630     0.761185     0.599984    Uiso  ? N
   N29        1.0     0.554825     0.872587     0.351423    Uiso  ? N
   N30        1.0     0.446378     0.760256     0.100353    Uiso  ? N
   N31        1.0     0.223282     0.872620     0.853974    Uiso  ? N
   N32        1.0     0.110467     0.763338     0.603630    Uiso  ? N
   N33        1.0     0.889323     0.872828     0.352004    Uiso  ? N
   N34        1.0     0.777571     0.761215     0.101909    Uiso  ? N
   N35        1.0     0.556076     0.871962     0.850713    Uiso  ? N
   N36        1.0     0.444099     0.761466     0.601051    Uiso  ? N
