
#======================================================================
# CRYSTAL DATA
#----------------------------------------------------------------------
data_VESTA_phase_1

_chemical_name_common                  'Hf   Al   Mg   N                      '
_cell_length_a                         9.970174
_cell_length_b                         9.966844
_cell_length_c                         8.520434
_cell_angle_alpha                      89.999992
_cell_angle_beta                       89.997368
_cell_angle_gamma                      60.010330
_cell_volume                           733.327446
_space_group_name_H-M_alt              'P 1'
_space_group_IT_number                 1

loop_
_space_group_symop_operation_xyz
   'x, y, z'

loop_
   _atom_site_label
   _atom_site_occupancy
   _atom_site_fract_x
   _atom_site_fract_y
   _atom_site_fract_z
   _atom_site_adp_type
   _atom_site_U_iso_or_equiv
   _atom_site_type_symbol
   Hf1        1.0     0.111404     0.094299     0.355108    Uiso  ? Hf
   Al1        1.0     0.224541     0.207369     0.089501    Uiso  ? Al
   Al2        1.0     0.775991     0.092437     0.849606    Uiso  ? Al
   Al3        1.0     0.881558     0.209220     0.610544    Uiso  ? Al
   Al4        1.0     0.448688     0.094664     0.349930    Uiso  ? Al
   Al5        1.0     0.556782     0.205674     0.098090    Uiso  ? Al
   Al6        1.0     0.111162     0.094419     0.850715    Uiso  ? Al
   Al7        1.0     0.225372     0.209991     0.610639    Uiso  ? Al
   Al8        1.0     0.773172     0.094208     0.350096    Uiso  ? Al
   Al9        1.0     0.882352     0.208823     0.091997    Uiso  ? Al
   Al10       1.0     0.448190     0.092136     0.849163    Uiso  ? Al
   Al11       1.0     0.555010     0.206977     0.601158    Uiso  ? Al
   Al12       1.0     0.111296     0.431912     0.346032    Uiso  ? Al
   Al13       1.0     0.775991     0.431572     0.849605    Uiso  ? Al
   Al14       1.0     0.889537     0.538714     0.600373    Uiso  ? Al
   Al15       1.0     0.444500     0.427751     0.346838    Uiso  ? Al
   Al16       1.0     0.556782     0.537543     0.098090    Uiso  ? Al
   Al17       1.0     0.109383     0.431511     0.853743    Uiso  ? Al
   Al18       1.0     0.222655     0.538672     0.604362    Uiso  ? Al
   Al19       1.0     0.773171     0.432621     0.350097    Uiso  ? Al
   Al20       1.0     0.887822     0.538538     0.099178    Uiso  ? Al
   Al21       1.0     0.444004     0.427999     0.853988    Uiso  ? Al
   Al22       1.0     0.555010     0.538013     0.601158    Uiso  ? Al
   Al23       1.0     0.111296     0.756792     0.346032    Uiso  ? Al
   Al24       1.0     0.224541     0.868090     0.089501    Uiso  ? Al
   Al25       1.0     0.777511     0.761245     0.848678    Uiso  ? Al
   Al26       1.0     0.889537     0.871748     0.600373    Uiso  ? Al
   Al27       1.0     0.448688     0.756649     0.349931    Uiso  ? Al
   Al28       1.0     0.556322     0.871839     0.100192    Uiso  ? Al
   Al29       1.0     0.109383     0.759107     0.853743    Uiso  ? Al
   Al30       1.0     0.225372     0.864636     0.610639    Uiso  ? Al
   Al31       1.0     0.778264     0.760868     0.350659    Uiso  ? Al
   Al32       1.0     0.887822     0.873639     0.099178    Uiso  ? Al
   Al33       1.0     0.448190     0.759675     0.849163    Uiso  ? Al
   Al34       1.0     0.556139     0.871930     0.599124    Uiso  ? Al
   Mg1        1.0     0.223371     0.538314     0.101457    Uiso  ? Mg
   N1         1.0     0.231010     0.212545     0.363180    Uiso  ? N
   N2         1.0     0.111368     0.094317     0.099085    Uiso  ? N
   N3         1.0     0.887209     0.206395     0.856435    Uiso  ? N
   N4         1.0     0.777105     0.093969     0.610242    Uiso  ? N
   N5         1.0     0.555631     0.205009     0.360304    Uiso  ? N
   N6         1.0     0.444725     0.094395     0.107749    Uiso  ? N
   N7         1.0     0.224208     0.204554     0.854808    Uiso  ? N
   N8         1.0     0.110025     0.094988     0.613018    Uiso  ? N
   N9         1.0     0.872560     0.213719     0.359945    Uiso  ? N
   N10        1.0     0.777274     0.094290     0.107421    Uiso  ? N
   N11        1.0     0.555759     0.204643     0.857807    Uiso  ? N
   N12        1.0     0.446468     0.093047     0.610408    Uiso  ? N
   N13        1.0     0.222648     0.538675     0.364608    Uiso  ? N
   N14        1.0     0.104197     0.421059     0.106669    Uiso  ? N
   N15        1.0     0.886827     0.541051     0.858067    Uiso  ? N
   N16        1.0     0.777105     0.428927     0.610242    Uiso  ? N
   N17        1.0     0.555631     0.539359     0.360304    Uiso  ? N
   N18        1.0     0.458261     0.420870     0.108062    Uiso  ? N
   N19        1.0     0.222853     0.538573     0.848626    Uiso  ? N
   N20        1.0     0.109100     0.428425     0.611285    Uiso  ? N
   N21        1.0     0.888537     0.538500     0.359846    Uiso  ? N
   N22        1.0     0.777274     0.428436     0.107421    Uiso  ? N
   N23        1.0     0.555759     0.539598     0.857807    Uiso  ? N
   N24        1.0     0.446537     0.426732     0.609199    Uiso  ? N
   N25        1.0     0.231009     0.856444     0.363180    Uiso  ? N
   N26        1.0     0.104197     0.774745     0.106669    Uiso  ? N
   N27        1.0     0.886827     0.872121     0.858068    Uiso  ? N
   N28        1.0     0.777322     0.761340     0.607329    Uiso  ? N
   N29        1.0     0.554724     0.872638     0.358203    Uiso  ? N
   N30        1.0     0.444725     0.760882     0.107749    Uiso  ? N
   N31        1.0     0.224208     0.871237     0.854808    Uiso  ? N
   N32        1.0     0.109100     0.762477     0.611285    Uiso  ? N
   N33        1.0     0.888537     0.872960     0.359846    Uiso  ? N
   N34        1.0     0.777861     0.761070     0.110647    Uiso  ? N
   N35        1.0     0.556868     0.871565     0.859906    Uiso  ? N
   N36        1.0     0.446468     0.760487     0.610408    Uiso  ? N
