
#======================================================================
# CRYSTAL DATA
#----------------------------------------------------------------------
data_VESTA_phase_1

_chemical_name_common                  'Hf   Al   Mg   N                      '
_cell_length_a                         9.452183
_cell_length_b                         9.447644
_cell_length_c                         10.065665
_cell_angle_alpha                      90.000000
_cell_angle_beta                       90.004417
_cell_angle_gamma                      60.016029
_cell_volume                           778.572178
_space_group_name_H-M_alt              'P 1'
_space_group_IT_number                 1

loop_
_space_group_symop_operation_xyz
   'x, y, z'

loop_
   _atom_site_label
   _atom_site_occupancy
   _atom_site_fract_x
   _atom_site_fract_y
   _atom_site_fract_z
   _atom_site_adp_type
   _atom_site_U_iso_or_equiv
   _atom_site_type_symbol
   Hf1        1.0     0.111157     0.094421     0.315441    Uiso  ? Hf
   Al1        1.0     0.222787     0.208709     0.056783    Uiso  ? Al
   Al2        1.0     0.776710     0.093439     0.812618    Uiso  ? Al
   Al3        1.0     0.882626     0.208687     0.567756    Uiso  ? Al
   Al4        1.0     0.449795     0.094560     0.311009    Uiso  ? Al
   Al5        1.0     0.555774     0.207512     0.062205    Uiso  ? Al
   Al6        1.0     0.111156     0.094422     0.810464    Uiso  ? Al
   Al7        1.0     0.225441     0.208044     0.567876    Uiso  ? Al
   Al8        1.0     0.772015     0.094308     0.310392    Uiso  ? Al
   Al9        1.0     0.884518     0.207741     0.057061    Uiso  ? Al
   Al10       1.0     0.446260     0.093821     0.812746    Uiso  ? Al
   Al11       1.0     0.555837     0.205302     0.562597    Uiso  ? Al
   Al12       1.0     0.110485     0.432268     0.311042    Uiso  ? Al
   Al13       1.0     0.776710     0.429850     0.812618    Uiso  ? Al
   Al14       1.0     0.888145     0.539422     0.562401    Uiso  ? Al
   Al15       1.0     0.446048     0.426976     0.311710    Uiso  ? Al
   Al16       1.0     0.555774     0.536714     0.062205    Uiso  ? Al
   Al17       1.0     0.110743     0.430348     0.810644    Uiso  ? Al
   Al18       1.0     0.222334     0.538833     0.563666    Uiso  ? Al
   Al19       1.0     0.772015     0.433676     0.310392    Uiso  ? Al
   Al20       1.0     0.889808     0.537406     0.062587    Uiso  ? Al
   Al21       1.0     0.443077     0.428462     0.810904    Uiso  ? Al
   Al22       1.0     0.555837     0.538862     0.562597    Uiso  ? Al
   Al23       1.0     0.110485     0.757247     0.311042    Uiso  ? Al
   Al24       1.0     0.222787     0.868504     0.056783    Uiso  ? Al
   Al25       1.0     0.778260     0.760870     0.812802    Uiso  ? Al
   Al26       1.0     0.888145     0.872433     0.562401    Uiso  ? Al
   Al27       1.0     0.449795     0.755645     0.311009    Uiso  ? Al
   Al28       1.0     0.556305     0.871848     0.062014    Uiso  ? Al
   Al29       1.0     0.110743     0.758909     0.810644    Uiso  ? Al
   Al30       1.0     0.225441     0.866515     0.567876    Uiso  ? Al
   Al31       1.0     0.778064     0.760968     0.311761    Uiso  ? Al
   Al32       1.0     0.889808     0.872786     0.062587    Uiso  ? Al
   Al33       1.0     0.446260     0.759919     0.812746    Uiso  ? Al
   Al34       1.0     0.556146     0.871927     0.562612    Uiso  ? Al
   Mg1        1.0     0.222543     0.538728     0.063175    Uiso  ? Mg
   N1         1.0     0.232176     0.212712     0.377609    Uiso  ? N
   N2         1.0     0.111748     0.094126     0.109034    Uiso  ? N
   N3         1.0     0.888329     0.205836     0.867344    Uiso  ? N
   N4         1.0     0.776881     0.093627     0.622543    Uiso  ? N
   N5         1.0     0.555763     0.204881     0.372850    Uiso  ? N
   N6         1.0     0.444035     0.094536     0.120458    Uiso  ? N
   N7         1.0     0.222514     0.205776     0.866561    Uiso  ? N
   N8         1.0     0.110685     0.094657     0.614723    Uiso  ? N
   N9         1.0     0.870839     0.214581     0.376153    Uiso  ? N
   N10        1.0     0.777742     0.094652     0.120392    Uiso  ? N
   N11        1.0     0.555562     0.205785     0.871134    Uiso  ? N
   N12        1.0     0.446559     0.093142     0.622650    Uiso  ? N
   N13        1.0     0.222920     0.538540     0.371438    Uiso  ? N
   N14        1.0     0.103919     0.419025     0.125664    Uiso  ? N
   N15        1.0     0.888844     0.539036     0.871215    Uiso  ? N
   N16        1.0     0.776881     0.429492     0.622543    Uiso  ? N
   N17        1.0     0.555763     0.539357     0.372850    Uiso  ? N
   N18        1.0     0.459039     0.420480     0.125943    Uiso  ? N
   N19        1.0     0.222445     0.538777     0.858407    Uiso  ? N
   N20        1.0     0.109065     0.428835     0.620009    Uiso  ? N
   N21        1.0     0.887899     0.538909     0.371883    Uiso  ? N
   N22        1.0     0.777742     0.427605     0.120392    Uiso  ? N
   N23        1.0     0.555562     0.538653     0.871134    Uiso  ? N
   N24        1.0     0.446173     0.426914     0.619154    Uiso  ? N
   N25        1.0     0.232176     0.855112     0.377609    Uiso  ? N
   N26        1.0     0.103919     0.777056     0.125664    Uiso  ? N
   N27        1.0     0.888844     0.872120     0.871215    Uiso  ? N
   N28        1.0     0.777562     0.761219     0.621399    Uiso  ? N
   N29        1.0     0.554941     0.872530     0.370813    Uiso  ? N
   N30        1.0     0.444035     0.761429     0.120458    Uiso  ? N
   N31        1.0     0.222515     0.871710     0.866561    Uiso  ? N
   N32        1.0     0.109065     0.762100     0.620009    Uiso  ? N
   N33        1.0     0.887899     0.873192     0.371883    Uiso  ? N
   N34        1.0     0.777947     0.761027     0.121428    Uiso  ? N
   N35        1.0     0.556027     0.871987     0.871612    Uiso  ? N
   N36        1.0     0.446559     0.760298     0.622650    Uiso  ? N
