
#======================================================================
# CRYSTAL DATA
#----------------------------------------------------------------------
data_VESTA_phase_1

_chemical_name_common                  'Hf   Al   Mg   N                      '
_cell_length_a                         9.851574
_cell_length_b                         9.848909
_cell_length_c                         8.888915
_cell_angle_alpha                      89.999985
_cell_angle_beta                       89.997643
_cell_angle_gamma                      60.009754
_cell_volume                           746.991790
_space_group_name_H-M_alt              'P 1'
_space_group_IT_number                 1

loop_
_space_group_symop_operation_xyz
   'x, y, z'

loop_
   _atom_site_label
   _atom_site_occupancy
   _atom_site_fract_x
   _atom_site_fract_y
   _atom_site_fract_z
   _atom_site_adp_type
   _atom_site_U_iso_or_equiv
   _atom_site_type_symbol
   Hf1        1.0     0.111622     0.094189     0.354126    Uiso  ? Hf
   Al1        1.0     0.223621     0.206581     0.080010    Uiso  ? Al
   Al2        1.0     0.775981     0.092258     0.839240    Uiso  ? Al
   Al3        1.0     0.880264     0.209869     0.600815    Uiso  ? Al
   Al4        1.0     0.448272     0.095434     0.338322    Uiso  ? Al
   Al5        1.0     0.556684     0.206080     0.087225    Uiso  ? Al
   Al6        1.0     0.110855     0.094572     0.839540    Uiso  ? Al
   Al7        1.0     0.225994     0.210357     0.602811    Uiso  ? Al
   Al8        1.0     0.772899     0.094525     0.338145    Uiso  ? Al
   Al9        1.0     0.884234     0.207884     0.082524    Uiso  ? Al
   Al10       1.0     0.448826     0.091522     0.839353    Uiso  ? Al
   Al11       1.0     0.555334     0.206292     0.590235    Uiso  ? Al
   Al12       1.0     0.111421     0.431359     0.335185    Uiso  ? Al
   Al13       1.0     0.775981     0.431761     0.839240    Uiso  ? Al
   Al14       1.0     0.889435     0.538599     0.589421    Uiso  ? Al
   Al15       1.0     0.445214     0.427392     0.336826    Uiso  ? Al
   Al16       1.0     0.556684     0.537237     0.087225    Uiso  ? Al
   Al17       1.0     0.109066     0.431948     0.843664    Uiso  ? Al
   Al18       1.0     0.222120     0.538940     0.598308    Uiso  ? Al
   Al19       1.0     0.772899     0.432575     0.338145    Uiso  ? Al
   Al20       1.0     0.887703     0.538746     0.088675    Uiso  ? Al
   Al21       1.0     0.444021     0.427989     0.842305    Uiso  ? Al
   Al22       1.0     0.555334     0.538375     0.590235    Uiso  ? Al
   Al23       1.0     0.111421     0.757219     0.335185    Uiso  ? Al
   Al24       1.0     0.223621     0.869799     0.080010    Uiso  ? Al
   Al25       1.0     0.777198     0.761401     0.837217    Uiso  ? Al
   Al26       1.0     0.889435     0.871967     0.589421    Uiso  ? Al
   Al27       1.0     0.448272     0.756293     0.338322    Uiso  ? Al
   Al28       1.0     0.556658     0.871672     0.090759    Uiso  ? Al
   Al29       1.0     0.109066     0.758985     0.843664    Uiso  ? Al
   Al30       1.0     0.225994     0.863650     0.602811    Uiso  ? Al
   Al31       1.0     0.778587     0.760706     0.340710    Uiso  ? Al
   Al32       1.0     0.887702     0.873552     0.088675    Uiso  ? Al
   Al33       1.0     0.448826     0.759651     0.839354    Uiso  ? Al
   Al34       1.0     0.555893     0.872054     0.587386    Uiso  ? Al
   Mg1        1.0     0.223683     0.538159     0.094436    Uiso  ? Mg
   N1         1.0     0.231839     0.213691     0.376686    Uiso  ? N
   N2         1.0     0.111518     0.094241     0.109715    Uiso  ? N
   N3         1.0     0.887907     0.206047     0.863069    Uiso  ? N
   N4         1.0     0.776636     0.093267     0.621184    Uiso  ? N
   N5         1.0     0.555648     0.204975     0.371001    Uiso  ? N
   N6         1.0     0.443766     0.095051     0.117720    Uiso  ? N
   N7         1.0     0.223768     0.204158     0.860748    Uiso  ? N
   N8         1.0     0.110057     0.094971     0.614081    Uiso  ? N
   N9         1.0     0.870825     0.214588     0.373905    Uiso  ? N
   N10        1.0     0.777652     0.094756     0.117798    Uiso  ? N
   N11        1.0     0.555838     0.204680     0.868540    Uiso  ? N
   N12        1.0     0.447708     0.092188     0.621291    Uiso  ? N
   N13        1.0     0.222486     0.538758     0.370670    Uiso  ? N
   N14        1.0     0.104270     0.419659     0.116522    Uiso  ? N
   N15        1.0     0.886452     0.541402     0.869192    Uiso  ? N
   N16        1.0     0.776636     0.430096     0.621184    Uiso  ? N
   N17        1.0     0.555648     0.539378     0.371001    Uiso  ? N
   N18        1.0     0.459188     0.420405     0.119162    Uiso  ? N
   N19        1.0     0.223104     0.538449     0.855890    Uiso  ? N
   N20        1.0     0.108190     0.429517     0.622396    Uiso  ? N
   N21        1.0     0.888887     0.538048     0.369866    Uiso  ? N
   N22        1.0     0.777652     0.427591     0.117798    Uiso  ? N
   N23        1.0     0.555838     0.539483     0.868540    Uiso  ? N
   N24        1.0     0.446809     0.426595     0.619679    Uiso  ? N
   N25        1.0     0.231839     0.854471     0.376686    Uiso  ? N
   N26        1.0     0.104270     0.776070     0.116522    Uiso  ? N
   N27        1.0     0.886452     0.872148     0.869192    Uiso  ? N
   N28        1.0     0.777158     0.761421     0.617157    Uiso  ? N
   N29        1.0     0.554310     0.872845     0.367502    Uiso  ? N
   N30        1.0     0.443766     0.761182     0.117720    Uiso  ? N
   N31        1.0     0.223768     0.872075     0.860748    Uiso  ? N
   N32        1.0     0.108190     0.762291     0.622397    Uiso  ? N
   N33        1.0     0.888887     0.873067     0.369866    Uiso  ? N
   N34        1.0     0.778077     0.760961     0.121763    Uiso  ? N
   N35        1.0     0.557162     0.871420     0.871510    Uiso  ? N
   N36        1.0     0.447708     0.760102     0.621291    Uiso  ? N
