
#======================================================================
# CRYSTAL DATA
#----------------------------------------------------------------------
data_VESTA_phase_1

_chemical_name_common                  'Hf   Al   Mg   N                      '
_cell_length_a                         9.452188
_cell_length_b                         9.447614
_cell_length_c                         10.065713
_cell_angle_alpha                      90.000000
_cell_angle_beta                       90.004478
_cell_angle_gamma                      60.016045
_cell_volume                           778.573942
_space_group_name_H-M_alt              'P 1'
_space_group_IT_number                 1

loop_
_space_group_symop_operation_xyz
   'x, y, z'

loop_
   _atom_site_label
   _atom_site_occupancy
   _atom_site_fract_x
   _atom_site_fract_y
   _atom_site_fract_z
   _atom_site_adp_type
   _atom_site_U_iso_or_equiv
   _atom_site_type_symbol
   Hf1        1.0     0.111152     0.094424     0.302067    Uiso  ? Hf
   Al1        1.0     0.222783     0.208711     0.043411    Uiso  ? Al
   Al2        1.0     0.776705     0.093442     0.799251    Uiso  ? Al
   Al3        1.0     0.882622     0.208689     0.554384    Uiso  ? Al
   Al4        1.0     0.449791     0.094562     0.297641    Uiso  ? Al
   Al5        1.0     0.555769     0.207514     0.048838    Uiso  ? Al
   Al6        1.0     0.111151     0.094425     0.797091    Uiso  ? Al
   Al7        1.0     0.225436     0.208046     0.554504    Uiso  ? Al
   Al8        1.0     0.772010     0.094311     0.297023    Uiso  ? Al
   Al9        1.0     0.884514     0.207743     0.043688    Uiso  ? Al
   Al10       1.0     0.446255     0.093823     0.799379    Uiso  ? Al
   Al11       1.0     0.555833     0.205303     0.549231    Uiso  ? Al
   Al12       1.0     0.110480     0.432270     0.297674    Uiso  ? Al
   Al13       1.0     0.776705     0.429853     0.799251    Uiso  ? Al
   Al14       1.0     0.888140     0.539424     0.549034    Uiso  ? Al
   Al15       1.0     0.446043     0.426978     0.298344    Uiso  ? Al
   Al16       1.0     0.555769     0.536717     0.048838    Uiso  ? Al
   Al17       1.0     0.110738     0.430350     0.797274    Uiso  ? Al
   Al18       1.0     0.222329     0.538836     0.550299    Uiso  ? Al
   Al19       1.0     0.772010     0.433679     0.297023    Uiso  ? Al
   Al20       1.0     0.889804     0.537408     0.049220    Uiso  ? Al
   Al21       1.0     0.443072     0.428464     0.797536    Uiso  ? Al
   Al22       1.0     0.555833     0.538864     0.549231    Uiso  ? Al
   Al23       1.0     0.110480     0.757249     0.297674    Uiso  ? Al
   Al24       1.0     0.222783     0.868506     0.043411    Uiso  ? Al
   Al25       1.0     0.778256     0.760872     0.799437    Uiso  ? Al
   Al26       1.0     0.888140     0.872436     0.549034    Uiso  ? Al
   Al27       1.0     0.449791     0.755647     0.297641    Uiso  ? Al
   Al28       1.0     0.556300     0.871850     0.048648    Uiso  ? Al
   Al29       1.0     0.110738     0.758912     0.797274    Uiso  ? Al
   Al30       1.0     0.225436     0.866518     0.554504    Uiso  ? Al
   Al31       1.0     0.778060     0.760970     0.298396    Uiso  ? Al
   Al32       1.0     0.889804     0.872788     0.049220    Uiso  ? Al
   Al33       1.0     0.446255     0.759921     0.799379    Uiso  ? Al
   Al34       1.0     0.556142     0.871929     0.549246    Uiso  ? Al
   Mg1        1.0     0.222539     0.538731     0.049805    Uiso  ? Mg
   N1         1.0     0.232172     0.212713     0.364239    Uiso  ? N
   N2         1.0     0.111743     0.094128     0.095661    Uiso  ? N
   N3         1.0     0.888325     0.205838     0.853973    Uiso  ? N
   N4         1.0     0.776877     0.093630     0.609176    Uiso  ? N
   N5         1.0     0.555759     0.204883     0.359483    Uiso  ? N
   N6         1.0     0.444030     0.094539     0.107090    Uiso  ? N
   N7         1.0     0.222510     0.205778     0.853190    Uiso  ? N
   N8         1.0     0.110680     0.094660     0.601352    Uiso  ? N
   N9         1.0     0.870836     0.214582     0.362782    Uiso  ? N
   N10        1.0     0.777737     0.094655     0.107024    Uiso  ? N
   N11        1.0     0.555557     0.205788     0.857767    Uiso  ? N
   N12        1.0     0.446554     0.093145     0.609283    Uiso  ? N
   N13        1.0     0.222915     0.538542     0.358071    Uiso  ? N
   N14        1.0     0.103915     0.419027     0.112297    Uiso  ? N
   N15        1.0     0.888840     0.539038     0.857848    Uiso  ? N
   N16        1.0     0.776877     0.429494     0.609176    Uiso  ? N
   N17        1.0     0.555759     0.539359     0.359483    Uiso  ? N
   N18        1.0     0.459034     0.420483     0.112577    Uiso  ? N
   N19        1.0     0.222441     0.538780     0.845037    Uiso  ? N
   N20        1.0     0.109061     0.428836     0.606640    Uiso  ? N
   N21        1.0     0.887895     0.538911     0.358516    Uiso  ? N
   N22        1.0     0.777737     0.427607     0.107023    Uiso  ? N
   N23        1.0     0.555557     0.538655     0.857767    Uiso  ? N
   N24        1.0     0.446168     0.426916     0.605786    Uiso  ? N
   N25        1.0     0.232172     0.855116     0.364239    Uiso  ? N
   N26        1.0     0.103915     0.777059     0.112297    Uiso  ? N
   N27        1.0     0.888840     0.872122     0.857848    Uiso  ? N
   N28        1.0     0.777558     0.761221     0.608033    Uiso  ? N
   N29        1.0     0.554937     0.872532     0.357446    Uiso  ? N
   N30        1.0     0.444030     0.761432     0.107090    Uiso  ? N
   N31        1.0     0.222510     0.871712     0.853190    Uiso  ? N
   N32        1.0     0.109061     0.762103     0.606640    Uiso  ? N
   N33        1.0     0.887895     0.873195     0.358516    Uiso  ? N
   N34        1.0     0.777942     0.761029     0.108062    Uiso  ? N
   N35        1.0     0.556022     0.871989     0.858246    Uiso  ? N
   N36        1.0     0.446554     0.760301     0.609283    Uiso  ? N
