
#======================================================================
# CRYSTAL DATA
#----------------------------------------------------------------------
data_VESTA_phase_1

_chemical_name_common                  'Hf   Al   Mg   N                      '
_cell_length_a                         9.763070
_cell_length_b                         9.760499
_cell_length_c                         9.167247
_cell_angle_alpha                      89.999992
_cell_angle_beta                       89.998528
_cell_angle_gamma                      60.009808
_cell_volume                           756.607944
_space_group_name_H-M_alt              'P 1'
_space_group_IT_number                 1

loop_
_space_group_symop_operation_xyz
   'x, y, z'

loop_
   _atom_site_label
   _atom_site_occupancy
   _atom_site_fract_x
   _atom_site_fract_y
   _atom_site_fract_z
   _atom_site_adp_type
   _atom_site_U_iso_or_equiv
   _atom_site_type_symbol
   Hf1        1.0     0.111646     0.094176     0.351592    Uiso  ? Hf
   Al1        1.0     0.222863     0.206485     0.076287    Uiso  ? Al
   Al2        1.0     0.776162     0.092394     0.834614    Uiso  ? Al
   Al3        1.0     0.879333     0.210334     0.594172    Uiso  ? Al
   Al4        1.0     0.448443     0.095519     0.332814    Uiso  ? Al
   Al5        1.0     0.556539     0.206486     0.082598    Uiso  ? Al
   Al6        1.0     0.110761     0.094619     0.831620    Uiso  ? Al
   Al7        1.0     0.226552     0.210496     0.596345    Uiso  ? Al
   Al8        1.0     0.772600     0.094608     0.332533    Uiso  ? Al
   Al9        1.0     0.885355     0.207323     0.078458    Uiso  ? Al
   Al10       1.0     0.448552     0.091727     0.834854    Uiso  ? Al
   Al11       1.0     0.555547     0.205849     0.585008    Uiso  ? Al
   Al12       1.0     0.111310     0.431317     0.330429    Uiso  ? Al
   Al13       1.0     0.776162     0.431443     0.834614    Uiso  ? Al
   Al14       1.0     0.889091     0.538811     0.584316    Uiso  ? Al
   Al15       1.0     0.445674     0.427162     0.332427    Uiso  ? Al
   Al16       1.0     0.556538     0.536976     0.082598    Uiso  ? Al
   Al17       1.0     0.109265     0.431870     0.837531    Uiso  ? Al
   Al18       1.0     0.221982     0.539009     0.591934    Uiso  ? Al
   Al19       1.0     0.772600     0.432792     0.332533    Uiso  ? Al
   Al20       1.0     0.888065     0.538508     0.083890    Uiso  ? Al
   Al21       1.0     0.443787     0.428106     0.835862    Uiso  ? Al
   Al22       1.0     0.555547     0.538604     0.585008    Uiso  ? Al
   Al23       1.0     0.111310     0.757372     0.330429    Uiso  ? Al
   Al24       1.0     0.222863     0.870654     0.076287    Uiso  ? Al
   Al25       1.0     0.777298     0.761351     0.832634    Uiso  ? Al
   Al26       1.0     0.889091     0.872099     0.584317    Uiso  ? Al
   Al27       1.0     0.448444     0.756036     0.332814    Uiso  ? Al
   Al28       1.0     0.556662     0.871669     0.085651    Uiso  ? Al
   Al29       1.0     0.109265     0.758864     0.837531    Uiso  ? Al
   Al30       1.0     0.226553     0.862952     0.596345    Uiso  ? Al
   Al31       1.0     0.778536     0.760732     0.335413    Uiso  ? Al
   Al32       1.0     0.888064     0.873429     0.083890    Uiso  ? Al
   Al33       1.0     0.448552     0.759720     0.834854    Uiso  ? Al
   Al34       1.0     0.555938     0.872031     0.582649    Uiso  ? Al
   Mg1        1.0     0.223708     0.538147     0.089549    Uiso  ? Mg
   N1         1.0     0.232584     0.214195     0.382503    Uiso  ? N
   N2         1.0     0.111631     0.094184     0.117587    Uiso  ? N
   N3         1.0     0.888604     0.205699     0.868163    Uiso  ? N
   N4         1.0     0.776503     0.093118     0.626360    Uiso  ? N
   N5         1.0     0.555736     0.204794     0.376028    Uiso  ? N
   N6         1.0     0.443581     0.095141     0.122588    Uiso  ? N
   N7         1.0     0.223185     0.204133     0.865853    Uiso  ? N
   N8         1.0     0.110122     0.094938     0.614913    Uiso  ? N
   N9         1.0     0.869523     0.215240     0.379885    Uiso  ? N
   N10        1.0     0.777747     0.094826     0.122749    Uiso  ? N
   N11        1.0     0.555785     0.204959     0.873675    Uiso  ? N
   N12        1.0     0.447984     0.092061     0.626526    Uiso  ? N
   N13        1.0     0.222446     0.538778     0.374873    Uiso  ? N
   N14        1.0     0.104125     0.419121     0.123002    Uiso  ? N
   N15        1.0     0.886746     0.541138     0.874328    Uiso  ? N
   N16        1.0     0.776503     0.430378     0.626360    Uiso  ? N
   N17        1.0     0.555737     0.539471     0.376028    Uiso  ? N
   N18        1.0     0.459726     0.420136     0.125644    Uiso  ? N
   N19        1.0     0.223128     0.538437     0.861298    Uiso  ? N
   N20        1.0     0.107991     0.429819     0.626962    Uiso  ? N
   N21        1.0     0.888756     0.538075     0.374844    Uiso  ? N
   N22        1.0     0.777747     0.427426     0.122749    Uiso  ? N
   N23        1.0     0.555785     0.539257     0.873675    Uiso  ? N
   N24        1.0     0.446826     0.426586     0.624107    Uiso  ? N
   N25        1.0     0.232585     0.853222     0.382503    Uiso  ? N
   N26        1.0     0.104125     0.776752     0.123002    Uiso  ? N
   N27        1.0     0.886746     0.872119     0.874328    Uiso  ? N
   N28        1.0     0.777177     0.761411     0.622536    Uiso  ? N
   N29        1.0     0.554232     0.872885     0.372594    Uiso  ? N
   N30        1.0     0.443581     0.761275     0.122588    Uiso  ? N
   N31        1.0     0.223185     0.872683     0.865853    Uiso  ? N
   N32        1.0     0.107991     0.762188     0.626962    Uiso  ? N
   N33        1.0     0.888756     0.873172     0.374845    Uiso  ? N
   N34        1.0     0.778101     0.760949     0.126355    Uiso  ? N
   N35        1.0     0.557100     0.871451     0.876340    Uiso  ? N
   N36        1.0     0.447985     0.759952     0.626526    Uiso  ? N
