
#======================================================================
# CRYSTAL DATA
#----------------------------------------------------------------------
data_VESTA_phase_1

_chemical_name_common                  'Hf   Al   Mg   N                      '
_cell_length_a                         9.616433
_cell_length_b                         9.613628
_cell_length_c                         9.610149
_cell_angle_alpha                      90.000015
_cell_angle_beta                       90.001114
_cell_angle_gamma                      60.010315
_cell_volume                           769.497563
_space_group_name_H-M_alt              'P 1'
_space_group_IT_number                 1

loop_
_space_group_symop_operation_xyz
   'x, y, z'

loop_
   _atom_site_label
   _atom_site_occupancy
   _atom_site_fract_x
   _atom_site_fract_y
   _atom_site_fract_z
   _atom_site_adp_type
   _atom_site_U_iso_or_equiv
   _atom_site_type_symbol
   Hf1        1.0     0.111509     0.094245     0.344531    Uiso  ? Hf
   Al1        1.0     0.222126     0.206985     0.073077    Uiso  ? Al
   Al2        1.0     0.776591     0.092895     0.829572    Uiso  ? Al
   Al3        1.0     0.879090     0.210456     0.585783    Uiso  ? Al
   Al4        1.0     0.449217     0.095170     0.326995    Uiso  ? Al
   Al5        1.0     0.556226     0.207084     0.077773    Uiso  ? Al
   Al6        1.0     0.110855     0.094572     0.823837    Uiso  ? Al
   Al7        1.0     0.226902     0.210178     0.587173    Uiso  ? Al
   Al8        1.0     0.772092     0.094505     0.326570    Uiso  ? Al
   Al9        1.0     0.886178     0.206912     0.074442    Uiso  ? Al
   Al10       1.0     0.447360     0.092675     0.829818    Uiso  ? Al
   Al11       1.0     0.555759     0.205387     0.579372    Uiso  ? Al
   Al12       1.0     0.110863     0.431788     0.325945    Uiso  ? Al
   Al13       1.0     0.776591     0.430514     0.829572    Uiso  ? Al
   Al14       1.0     0.888536     0.539188     0.578972    Uiso  ? Al
   Al15       1.0     0.446220     0.426889     0.327874    Uiso  ? Al
   Al16       1.0     0.556226     0.536690     0.077773    Uiso  ? Al
   Al17       1.0     0.110076     0.431234     0.829970    Uiso  ? Al
   Al18       1.0     0.222004     0.538998     0.582593    Uiso  ? Al
   Al19       1.0     0.772092     0.433404     0.326569    Uiso  ? Al
   Al20       1.0     0.888902     0.537992     0.078654    Uiso  ? Al
   Al21       1.0     0.443177     0.428411     0.828635    Uiso  ? Al
   Al22       1.0     0.555760     0.538853     0.579372    Uiso  ? Al
   Al23       1.0     0.110863     0.757349     0.325945    Uiso  ? Al
   Al24       1.0     0.222126     0.870889     0.073077    Uiso  ? Al
   Al25       1.0     0.777694     0.761153     0.828205    Uiso  ? Al
   Al26       1.0     0.888536     0.872276     0.578972    Uiso  ? Al
   Al27       1.0     0.449218     0.755612     0.326995    Uiso  ? Al
   Al28       1.0     0.556535     0.871732     0.079364    Uiso  ? Al
   Al29       1.0     0.110076     0.758690     0.829970    Uiso  ? Al
   Al30       1.0     0.226903     0.862919     0.587173    Uiso  ? Al
   Al31       1.0     0.778284     0.760859     0.329114    Uiso  ? Al
   Al32       1.0     0.888902     0.873107     0.078653    Uiso  ? Al
   Al33       1.0     0.447360     0.759965     0.829818    Uiso  ? Al
   Al34       1.0     0.556032     0.871984     0.578153    Uiso  ? Al
   Mg1        1.0     0.223475     0.538263     0.082764    Uiso  ? Mg
   N1         1.0     0.233373     0.214442     0.387574    Uiso  ? N
   N2         1.0     0.111752     0.094123     0.125455    Uiso  ? N
   N3         1.0     0.889431     0.205285     0.875214    Uiso  ? N
   N4         1.0     0.776554     0.093266     0.631955    Uiso  ? N
   N5         1.0     0.555853     0.204609     0.381672    Uiso  ? N
   N6         1.0     0.443778     0.094920     0.128343    Uiso  ? N
   N7         1.0     0.222329     0.204463     0.873549    Uiso  ? N
   N8         1.0     0.110347     0.094825     0.617823    Uiso  ? N
   N9         1.0     0.868267     0.215868     0.385397    Uiso  ? N
   N10        1.0     0.777758     0.094698     0.128435    Uiso  ? N
   N11        1.0     0.555635     0.205478     0.879436    Uiso  ? N
   N12        1.0     0.447592     0.092417     0.632150    Uiso  ? N
   N13        1.0     0.222543     0.538729     0.379959    Uiso  ? N
   N14        1.0     0.103838     0.418920     0.131417    Uiso  ? N
   N15        1.0     0.887672     0.540272     0.879868    Uiso  ? N
   N16        1.0     0.776554     0.430179     0.631955    Uiso  ? N
   N17        1.0     0.555854     0.539538     0.381671    Uiso  ? N
   N18        1.0     0.460055     0.419971     0.133333    Uiso  ? N
   N19        1.0     0.222935     0.538533     0.868154    Uiso  ? N
   N20        1.0     0.108382     0.429704     0.631052    Uiso  ? N
   N21        1.0     0.888346     0.538383     0.380591    Uiso  ? N
   N22        1.0     0.777758     0.427544     0.128435    Uiso  ? N
   N23        1.0     0.555635     0.538887     0.879436    Uiso  ? N
   N24        1.0     0.446428     0.426785     0.628609    Uiso  ? N
   N25        1.0     0.233374     0.852186     0.387574    Uiso  ? N
   N26        1.0     0.103838     0.777241     0.131417    Uiso  ? N
   N27        1.0     0.887672     0.872059     0.879868    Uiso  ? N
   N28        1.0     0.777295     0.761352     0.629102    Uiso  ? N
   N29        1.0     0.554362     0.872819     0.378866    Uiso  ? N
   N30        1.0     0.443778     0.761300     0.128343    Uiso  ? N
   N31        1.0     0.222329     0.873210     0.873549    Uiso  ? N
   N32        1.0     0.108382     0.761912     0.631052    Uiso  ? N
   N33        1.0     0.888346     0.873274     0.380591    Uiso  ? N
   N34        1.0     0.778034     0.760983     0.131009    Uiso  ? N
   N35        1.0     0.556697     0.871652     0.881130    Uiso  ? N
   N36        1.0     0.447593     0.759988     0.632150    Uiso  ? N
