
#======================================================================
# CRYSTAL DATA
#----------------------------------------------------------------------
data_VESTA_phase_1

_chemical_name_common                  'Hf   Al   Mg   N                      '
_cell_length_a                         9.667134
_cell_length_b                         9.664469
_cell_length_c                         9.460130
_cell_angle_alpha                      90.000000
_cell_angle_beta                       90.000061
_cell_angle_gamma                      60.010086
_cell_volume                           765.504226
_space_group_name_H-M_alt              'P 1'
_space_group_IT_number                 1

loop_
_space_group_symop_operation_xyz
   'x, y, z'

loop_
   _atom_site_label
   _atom_site_occupancy
   _atom_site_fract_x
   _atom_site_fract_y
   _atom_site_fract_z
   _atom_site_adp_type
   _atom_site_U_iso_or_equiv
   _atom_site_type_symbol
   Hf1        1.0     0.111575     0.094211     0.347448    Uiso  ? Hf
   Al1        1.0     0.222275     0.206724     0.073962    Uiso  ? Al
   Al2        1.0     0.776447     0.092703     0.831078    Uiso  ? Al
   Al3        1.0     0.878924     0.210539     0.588296    Uiso  ? Al
   Al4        1.0     0.448918     0.095333     0.328655    Uiso  ? Al
   Al5        1.0     0.556341     0.206895     0.079157    Uiso  ? Al
   Al6        1.0     0.110796     0.094601     0.825749    Uiso  ? Al
   Al7        1.0     0.226903     0.210393     0.590026    Uiso  ? Al
   Al8        1.0     0.772254     0.094564     0.328281    Uiso  ? Al
   Al9        1.0     0.886074     0.206964     0.075630    Uiso  ? Al
   Al10       1.0     0.447816     0.092302     0.831338    Uiso  ? Al
   Al11       1.0     0.555704     0.205508     0.581019    Uiso  ? Al
   Al12       1.0     0.111035     0.431575     0.327166    Uiso  ? Al
   Al13       1.0     0.776447     0.430850     0.831079    Uiso  ? Al
   Al14       1.0     0.888706     0.539076     0.580517    Uiso  ? Al
   Al15       1.0     0.446074     0.426962     0.329200    Uiso  ? Al
   Al16       1.0     0.556341     0.536765     0.079157    Uiso  ? Al
   Al17       1.0     0.109772     0.431502     0.832287    Uiso  ? Al
   Al18       1.0     0.221971     0.539014     0.585454    Uiso  ? Al
   Al19       1.0     0.772254     0.433182     0.328280    Uiso  ? Al
   Al20       1.0     0.888608     0.538163     0.080187    Uiso  ? Al
   Al21       1.0     0.443375     0.428312     0.830756    Uiso  ? Al
   Al22       1.0     0.555705     0.538788     0.581018    Uiso  ? Al
   Al23       1.0     0.111036     0.757389     0.327166    Uiso  ? Al
   Al24       1.0     0.222275     0.871002     0.073963    Uiso  ? Al
   Al25       1.0     0.777541     0.761230     0.829451    Uiso  ? Al
   Al26       1.0     0.888707     0.872218     0.580517    Uiso  ? Al
   Al27       1.0     0.448918     0.755748     0.328655    Uiso  ? Al
   Al28       1.0     0.556583     0.871708     0.081281    Uiso  ? Al
   Al29       1.0     0.109773     0.758725     0.832287    Uiso  ? Al
   Al30       1.0     0.226903     0.862704     0.590025    Uiso  ? Al
   Al31       1.0     0.778379     0.760811     0.331005    Uiso  ? Al
   Al32       1.0     0.888607     0.873231     0.080187    Uiso  ? Al
   Al33       1.0     0.447816     0.759881     0.831338    Uiso  ? Al
   Al34       1.0     0.556011     0.871994     0.579399    Uiso  ? Al
   Mg1        1.0     0.223588     0.538207     0.084953    Uiso  ? Mg
   N1         1.0     0.233202     0.214454     0.386244    Uiso  ? N
   N2         1.0     0.111720     0.094139     0.123597    Uiso  ? N
   N3         1.0     0.889244     0.205379     0.873008    Uiso  ? N
   N4         1.0     0.776507     0.093179     0.630328    Uiso  ? N
   N5         1.0     0.555822     0.204647     0.379990    Uiso  ? N
   N6         1.0     0.443667     0.095028     0.126573    Uiso  ? N
   N7         1.0     0.222572     0.204292     0.871082    Uiso  ? N
   N8         1.0     0.110258     0.094870     0.616467    Uiso  ? N
   N9         1.0     0.868513     0.215745     0.383882    Uiso  ? N
   N10        1.0     0.777766     0.094760     0.126703    Uiso  ? N
   N11        1.0     0.555688     0.205308     0.877706    Uiso  ? N
   N12        1.0     0.447815     0.092240     0.630526    Uiso  ? N
   N13        1.0     0.222487     0.538757     0.378430    Uiso  ? N
   N14        1.0     0.103927     0.418911     0.128802    Uiso  ? N
   N15        1.0     0.887325     0.540603     0.878230    Uiso  ? N
   N16        1.0     0.776507     0.430313     0.630329    Uiso  ? N
   N17        1.0     0.555822     0.539533     0.379990    Uiso  ? N
   N18        1.0     0.460029     0.419984     0.131027    Uiso  ? N
   N19        1.0     0.223024     0.538489     0.866185    Uiso  ? N
   N20        1.0     0.108185     0.429816     0.629962    Uiso  ? N
   N21        1.0     0.888495     0.538256     0.378869    Uiso  ? N
   N22        1.0     0.777766     0.427472     0.126703    Uiso  ? N
   N23        1.0     0.555688     0.539006     0.877706    Uiso  ? N
   N24        1.0     0.446590     0.426704     0.627301    Uiso  ? N
   N25        1.0     0.233203     0.852345     0.386244    Uiso  ? N
   N26        1.0     0.103927     0.777160     0.128802    Uiso  ? N
   N27        1.0     0.887324     0.872075     0.878230    Uiso  ? N
   N28        1.0     0.777248     0.761375     0.627099    Uiso  ? N
   N29        1.0     0.554288     0.872857     0.376950    Uiso  ? N
   N30        1.0     0.443667     0.761303     0.126573    Uiso  ? N
   N31        1.0     0.222572     0.873138     0.871082    Uiso  ? N
   N32        1.0     0.108185     0.761997     0.629962    Uiso  ? N
   N33        1.0     0.888496     0.873252     0.378869    Uiso  ? N
   N34        1.0     0.778065     0.760967     0.129661    Uiso  ? N
   N35        1.0     0.556865     0.871568     0.879759    Uiso  ? N
   N36        1.0     0.447815     0.759942     0.630526    Uiso  ? N
