
#======================================================================
# CRYSTAL DATA
#----------------------------------------------------------------------
data_VESTA_phase_1

_chemical_name_common                  'Hf   Al   Mg   N                      '
_cell_length_a                         9.563836
_cell_length_b                         9.560732
_cell_length_c                         9.761605
_cell_angle_alpha                      90.000000
_cell_angle_beta                       90.002289
_cell_angle_gamma                      60.010571
_cell_volume                           773.074568
_space_group_name_H-M_alt              'P 1'
_space_group_IT_number                 1

loop_
_space_group_symop_operation_xyz
   'x, y, z'

loop_
   _atom_site_label
   _atom_site_occupancy
   _atom_site_fract_x
   _atom_site_fract_y
   _atom_site_fract_z
   _atom_site_adp_type
   _atom_site_U_iso_or_equiv
   _atom_site_type_symbol
   Hf1        1.0     0.111422     0.094289     0.340760    Uiso  ? Hf
   Al1        1.0     0.222118     0.207365     0.072219    Uiso  ? Al
   Al2        1.0     0.776712     0.093095     0.828179    Uiso  ? Al
   Al3        1.0     0.879623     0.210188     0.583598    Uiso  ? Al
   Al4        1.0     0.449517     0.094978     0.325601    Uiso  ? Al
   Al5        1.0     0.556100     0.207258     0.076596    Uiso  ? Al
   Al6        1.0     0.110935     0.094533     0.822664    Uiso  ? Al
   Al7        1.0     0.226720     0.209792     0.584609    Uiso  ? Al
   Al8        1.0     0.771963     0.094431     0.325119    Uiso  ? Al
   Al9        1.0     0.886042     0.206979     0.073253    Uiso  ? Al
   Al10       1.0     0.446898     0.093074     0.828399    Uiso  ? Al
   Al11       1.0     0.555802     0.205300     0.577910    Uiso  ? Al
   Al12       1.0     0.110690     0.432025     0.324958    Uiso  ? Al
   Al13       1.0     0.776713     0.430193     0.828179    Uiso  ? Al
   Al14       1.0     0.888389     0.539275     0.577603    Uiso  ? Al
   Al15       1.0     0.446302     0.426849     0.326687    Uiso  ? Al
   Al16       1.0     0.556100     0.536642     0.076596    Uiso  ? Al
   Al17       1.0     0.110370     0.430931     0.827798    Uiso  ? Al
   Al18       1.0     0.222061     0.538969     0.580103    Uiso  ? Al
   Al19       1.0     0.771963     0.433608     0.325118    Uiso  ? Al
   Al20       1.0     0.889199     0.537829     0.077319    Uiso  ? Al
   Al21       1.0     0.443034     0.428483     0.826749    Uiso  ? Al
   Al22       1.0     0.555802     0.538897     0.577910    Uiso  ? Al
   Al23       1.0     0.110691     0.757284     0.324958    Uiso  ? Al
   Al24       1.0     0.222118     0.870516     0.072219    Uiso  ? Al
   Al25       1.0     0.777861     0.761070     0.827136    Uiso  ? Al
   Al26       1.0     0.888389     0.872336     0.577603    Uiso  ? Al
   Al27       1.0     0.449517     0.755505     0.325601    Uiso  ? Al
   Al28       1.0     0.556484     0.871758     0.077627    Uiso  ? Al
   Al29       1.0     0.110370     0.758699     0.827798    Uiso  ? Al
   Al30       1.0     0.226721     0.863486     0.584609    Uiso  ? Al
   Al31       1.0     0.778189     0.760906     0.327419    Uiso  ? Al
   Al32       1.0     0.889199     0.872972     0.077319    Uiso  ? Al
   Al33       1.0     0.446898     0.760027     0.828399    Uiso  ? Al
   Al34       1.0     0.556037     0.871981     0.577097    Uiso  ? Al
   Mg1        1.0     0.223315     0.538343     0.080581    Uiso  ? Mg
   N1         1.0     0.233369     0.214265     0.388670    Uiso  ? N
   N2         1.0     0.111776     0.094112     0.126249    Uiso  ? N
   N3         1.0     0.889447     0.205277     0.877228    Uiso  ? N
   N4         1.0     0.776630     0.093380     0.633363    Uiso  ? N
   N5         1.0     0.555869     0.204611     0.383181    Uiso  ? N
   N6         1.0     0.443912     0.094792     0.130017    Uiso  ? N
   N7         1.0     0.222177     0.204722     0.875845    Uiso  ? N
   N8         1.0     0.110447     0.094776     0.619842    Uiso  ? N
   N9         1.0     0.868348     0.215826     0.386709    Uiso  ? N
   N10        1.0     0.777746     0.094630     0.130060    Uiso  ? N
   N11        1.0     0.555587     0.205633     0.881030    Uiso  ? N
   N12        1.0     0.447295     0.092639     0.633542    Uiso  ? N
   N13        1.0     0.222628     0.538686     0.381391    Uiso  ? N
   N14        1.0     0.103781     0.418988     0.133868    Uiso  ? N
   N15        1.0     0.888039     0.539910     0.881357    Uiso  ? N
   N16        1.0     0.776630     0.429990     0.633363    Uiso  ? N
   N17        1.0     0.555869     0.539520     0.383180    Uiso  ? N
   N18        1.0     0.459961     0.420019     0.135406    Uiso  ? N
   N19        1.0     0.222825     0.538588     0.869707    Uiso  ? N
   N20        1.0     0.108613     0.429514     0.631918    Uiso  ? N
   N21        1.0     0.888195     0.538528     0.382138    Uiso  ? N
   N22        1.0     0.777746     0.427624     0.130060    Uiso  ? N
   N23        1.0     0.555587     0.538780     0.881030    Uiso  ? N
   N24        1.0     0.446278     0.426861     0.629785    Uiso  ? N
   N25        1.0     0.233370     0.852365     0.388670    Uiso  ? N
   N26        1.0     0.103781     0.777231     0.133868    Uiso  ? N
   N27        1.0     0.888039     0.872052     0.881357    Uiso  ? N
   N28        1.0     0.777352     0.761324     0.630934    Uiso  ? N
   N29        1.0     0.554472     0.872764     0.380615    Uiso  ? N
   N30        1.0     0.443912     0.761296     0.130017    Uiso  ? N
   N31        1.0     0.222178     0.873101     0.875845    Uiso  ? N
   N32        1.0     0.108614     0.761872     0.631917    Uiso  ? N
   N33        1.0     0.888195     0.873278     0.382138    Uiso  ? N
   N34        1.0     0.777998     0.761001     0.132212    Uiso  ? N
   N35        1.0     0.556500     0.871750     0.882342    Uiso  ? N
   N36        1.0     0.447295     0.760065     0.633542    Uiso  ? N
