
#======================================================================
# CRYSTAL DATA
#----------------------------------------------------------------------
data_VESTA_phase_1

_chemical_name_common                  'Hf   Al   Mg   N                      '
_cell_length_a                         9.455706
_cell_length_b                         9.452527
_cell_length_c                         10.061014
_cell_angle_alpha                      89.999992
_cell_angle_beta                       89.999184
_cell_angle_gamma                      60.011486
_cell_volume                           778.869181
_space_group_name_H-M_alt              'P 1'
_space_group_IT_number                 1

loop_
_space_group_symop_operation_xyz
   'x, y, z'

loop_
   _atom_site_label
   _atom_site_occupancy
   _atom_site_fract_x
   _atom_site_fract_y
   _atom_site_fract_z
   _atom_site_adp_type
   _atom_site_U_iso_or_equiv
   _atom_site_type_symbol
   Hf1        1.0     0.110781     0.094609     0.381300    Uiso  ? Hf
   Al1        1.0     0.224083     0.210008     0.132945    Uiso  ? Al
   Al2        1.0     0.776595     0.093122     0.890287    Uiso  ? Al
   Al3        1.0     0.885133     0.207434     0.644955    Uiso  ? Al
   Al4        1.0     0.449797     0.094744     0.389657    Uiso  ? Al
   Al5        1.0     0.556114     0.206786     0.138167    Uiso  ? Al
   Al6        1.0     0.111674     0.094163     0.893491    Uiso  ? Al
   Al7        1.0     0.224240     0.206910     0.644869    Uiso  ? Al
   Al8        1.0     0.772097     0.094505     0.389745    Uiso  ? Al
   Al9        1.0     0.881639     0.209181     0.132610    Uiso  ? Al
   Al10       1.0     0.446323     0.093610     0.889633    Uiso  ? Al
   Al11       1.0     0.555647     0.205871     0.640167    Uiso  ? Al
   Al12       1.0     0.111548     0.433555     0.391861    Uiso  ? Al
   Al13       1.0     0.776595     0.430283     0.890287    Uiso  ? Al
   Al14       1.0     0.888245     0.539399     0.639898    Uiso  ? Al
   Al15       1.0     0.443366     0.428317     0.390594    Uiso  ? Al
   Al16       1.0     0.556114     0.537100     0.138167    Uiso  ? Al
   Al17       1.0     0.109415     0.428955     0.889928    Uiso  ? Al
   Al18       1.0     0.223099     0.538451     0.639084    Uiso  ? Al
   Al19       1.0     0.772097     0.433398     0.389745    Uiso  ? Al
   Al20       1.0     0.889733     0.537661     0.138264    Uiso  ? Al
   Al21       1.0     0.446007     0.426997     0.890312    Uiso  ? Al
   Al22       1.0     0.555647     0.538481     0.640167    Uiso  ? Al
   Al23       1.0     0.111549     0.754896     0.391861    Uiso  ? Al
   Al24       1.0     0.224083     0.865909     0.132945    Uiso  ? Al
   Al25       1.0     0.778040     0.760980     0.889959    Uiso  ? Al
   Al26       1.0     0.888245     0.872355     0.639898    Uiso  ? Al
   Al27       1.0     0.449797     0.755458     0.389657    Uiso  ? Al
   Al28       1.0     0.556002     0.871999     0.138701    Uiso  ? Al
   Al29       1.0     0.109415     0.761630     0.889928    Uiso  ? Al
   Al30       1.0     0.224240     0.868850     0.644869    Uiso  ? Al
   Al31       1.0     0.778247     0.760877     0.388751    Uiso  ? Al
   Al32       1.0     0.889733     0.872606     0.138264    Uiso  ? Al
   Al33       1.0     0.446323     0.760066     0.889633    Uiso  ? Al
   Al34       1.0     0.556232     0.871884     0.639759    Uiso  ? Al
   Mg1        1.0     0.222482     0.538759     0.138046    Uiso  ? Mg
   N1         1.0     0.231634     0.214689     0.325560    Uiso  ? N
   N2         1.0     0.111391     0.094304     0.089444    Uiso  ? N
   N3         1.0     0.888832     0.205584     0.834722    Uiso  ? N
   N4         1.0     0.778196     0.094886     0.580480    Uiso  ? N
   N5         1.0     0.555269     0.206209     0.330314    Uiso  ? N
   N6         1.0     0.446371     0.093369     0.079691    Uiso  ? N
   N7         1.0     0.223271     0.204095     0.833309    Uiso  ? N
   N8         1.0     0.110789     0.094605     0.588893    Uiso  ? N
   N9         1.0     0.869727     0.215137     0.324686    Uiso  ? N
   N10        1.0     0.776496     0.093144     0.079717    Uiso  ? N
   N11        1.0     0.556039     0.204439     0.829092    Uiso  ? N
   N12        1.0     0.444095     0.094436     0.580398    Uiso  ? N
   N13        1.0     0.223243     0.538379     0.343678    Uiso  ? N
   N14        1.0     0.102524     0.422672     0.075155    Uiso  ? N
   N15        1.0     0.887363     0.540094     0.829019    Uiso  ? N
   N16        1.0     0.778196     0.426918     0.580480    Uiso  ? N
   N17        1.0     0.555269     0.538522     0.330314    Uiso  ? N
   N18        1.0     0.459277     0.420361     0.076414    Uiso  ? N
   N19        1.0     0.222628     0.538687     0.830270    Uiso  ? N
   N20        1.0     0.110459     0.426200     0.582975    Uiso  ? N
   N21        1.0     0.889318     0.537849     0.331347    Uiso  ? N
   N22        1.0     0.776496     0.430360     0.079717    Uiso  ? N
   N23        1.0     0.556039     0.539522     0.829092    Uiso  ? N
   N24        1.0     0.446442     0.426779     0.582026    Uiso  ? N
   N25        1.0     0.231634     0.853678     0.325560    Uiso  ? N
   N26        1.0     0.102524     0.774803     0.075155    Uiso  ? N
   N27        1.0     0.887363     0.872544     0.829019    Uiso  ? N
   N28        1.0     0.777622     0.761189     0.579322    Uiso  ? N
   N29        1.0     0.554819     0.872591     0.330765    Uiso  ? N
   N30        1.0     0.446371     0.760259     0.079691    Uiso  ? N
   N31        1.0     0.223271     0.872635     0.833309    Uiso  ? N
   N32        1.0     0.110460     0.763340     0.582975    Uiso  ? N
   N33        1.0     0.889318     0.872834     0.331347    Uiso  ? N
   N34        1.0     0.777564     0.761218     0.081257    Uiso  ? N
   N35        1.0     0.556073     0.871964     0.830058    Uiso  ? N
   N36        1.0     0.444095     0.761468     0.580399    Uiso  ? N
