
#======================================================================
# CRYSTAL DATA
#----------------------------------------------------------------------
data_VESTA_phase_1

_chemical_name_common                  'Hf   Al   Mg   N                      '
_cell_length_a                         9.718897
_cell_length_b                         9.712403
_cell_length_c                         9.311666
_cell_angle_alpha                      90.000008
_cell_angle_beta                       89.993492
_cell_angle_gamma                      60.021446
_cell_volume                           761.369605
_space_group_name_H-M_alt              'P 1'
_space_group_IT_number                 1

loop_
_space_group_symop_operation_xyz
   'x, y, z'

loop_
   _atom_site_label
   _atom_site_occupancy
   _atom_site_fract_x
   _atom_site_fract_y
   _atom_site_fract_z
   _atom_site_adp_type
   _atom_site_U_iso_or_equiv
   _atom_site_type_symbol
   Hf1        1.0     0.110324     0.094839     0.357845    Uiso  ? Hf
   Al1        1.0     0.226158     0.209823     0.116995    Uiso  ? Al
   Al2        1.0     0.775694     0.091875     0.876184    Uiso  ? Al
   Al3        1.0     0.886126     0.206936     0.634145    Uiso  ? Al
   Al4        1.0     0.449093     0.094310     0.378503    Uiso  ? Al
   Al5        1.0     0.557306     0.204927     0.127567    Uiso  ? Al
   Al6        1.0     0.111876     0.094062     0.880741    Uiso  ? Al
   Al7        1.0     0.223340     0.207182     0.632694    Uiso  ? Al
   Al8        1.0     0.772794     0.095190     0.378720    Uiso  ? Al
   Al9        1.0     0.878550     0.210724     0.115095    Uiso  ? Al
   Al10       1.0     0.447821     0.092921     0.875835    Uiso  ? Al
   Al11       1.0     0.554887     0.207336     0.626703    Uiso  ? Al
   Al12       1.0     0.111949     0.432173     0.376141    Uiso  ? Al
   Al13       1.0     0.775694     0.432431     0.876184    Uiso  ? Al
   Al14       1.0     0.888885     0.539368     0.625499    Uiso  ? Al
   Al15       1.0     0.443827     0.428087     0.374066    Uiso  ? Al
   Al16       1.0     0.557306     0.537768     0.127568    Uiso  ? Al
   Al17       1.0     0.108382     0.430850     0.878029    Uiso  ? Al
   Al18       1.0     0.223669     0.538166     0.620610    Uiso  ? Al
   Al19       1.0     0.772794     0.432015     0.378720    Uiso  ? Al
   Al20       1.0     0.888320     0.538016     0.127904    Uiso  ? Al
   Al21       1.0     0.445774     0.427113     0.880035    Uiso  ? Al
   Al22       1.0     0.554887     0.537777     0.626703    Uiso  ? Al
   Al23       1.0     0.111949     0.755879     0.376141    Uiso  ? Al
   Al24       1.0     0.226158     0.864018     0.116995    Uiso  ? Al
   Al25       1.0     0.778396     0.760802     0.878139    Uiso  ? Al
   Al26       1.0     0.888885     0.871746     0.625499    Uiso  ? Al
   Al27       1.0     0.449093     0.756598     0.378503    Uiso  ? Al
   Al28       1.0     0.555948     0.872026     0.126453    Uiso  ? Al
   Al29       1.0     0.108382     0.760768     0.878029    Uiso  ? Al
   Al30       1.0     0.223340     0.869478     0.632694    Uiso  ? Al
   Al31       1.0     0.777469     0.761265     0.375580    Uiso  ? Al
   Al32       1.0     0.888320     0.873663     0.127904    Uiso  ? Al
   Al33       1.0     0.447821     0.759258     0.875835    Uiso  ? Al
   Al34       1.0     0.556661     0.871669     0.627198    Uiso  ? Al
   Mg1        1.0     0.222475     0.538762     0.121426    Uiso  ? Mg
   N1         1.0     0.233040     0.213750     0.327046    Uiso  ? N
   N2         1.0     0.111367     0.094317     0.093746    Uiso  ? N
   N3         1.0     0.889076     0.205461     0.840083    Uiso  ? N
   N4         1.0     0.778315     0.095441     0.584193    Uiso  ? N
   N5         1.0     0.556026     0.204355     0.333765    Uiso  ? N
   N6         1.0     0.447603     0.092867     0.080575    Uiso  ? N
   N7         1.0     0.223134     0.204195     0.837649    Uiso  ? N
   N8         1.0     0.110341     0.094831     0.587449    Uiso  ? N
   N9         1.0     0.868195     0.215901     0.325078    Uiso  ? N
   N10        1.0     0.775877     0.092444     0.080330    Uiso  ? N
   N11        1.0     0.555413     0.205456     0.830445    Uiso  ? N
   N12        1.0     0.443833     0.094459     0.584009    Uiso  ? N
   N13        1.0     0.222771     0.538614     0.346494    Uiso  ? N
   N14        1.0     0.101569     0.423491     0.079700    Uiso  ? N
   N15        1.0     0.887253     0.541060     0.829758    Uiso  ? N
   N16        1.0     0.778315     0.426244     0.584193    Uiso  ? N
   N17        1.0     0.556025     0.539619     0.333765    Uiso  ? N
   N18        1.0     0.460121     0.419941     0.082918    Uiso  ? N
   N19        1.0     0.223140     0.538429     0.831354    Uiso  ? N
   N20        1.0     0.110529     0.425510     0.583663    Uiso  ? N
   N21        1.0     0.888360     0.537948     0.334674    Uiso  ? N
   N22        1.0     0.775877     0.431680     0.080330    Uiso  ? N
   N23        1.0     0.555413     0.539130     0.830445    Uiso  ? N
   N24        1.0     0.446939     0.426532     0.581143    Uiso  ? N
   N25        1.0     0.233039     0.853210     0.327046    Uiso  ? N
   N26        1.0     0.101569     0.774942     0.079701    Uiso  ? N
   N27        1.0     0.887253     0.871685     0.829758    Uiso  ? N
   N28        1.0     0.777258     0.761372     0.580228    Uiso  ? N
   N29        1.0     0.554330     0.872835     0.332864    Uiso  ? N
   N30        1.0     0.447603     0.759532     0.080575    Uiso  ? N
   N31        1.0     0.223134     0.872670     0.837649    Uiso  ? N
   N32        1.0     0.110529     0.763964     0.583663    Uiso  ? N
   N33        1.0     0.888359     0.873690     0.334674    Uiso  ? N
   N34        1.0     0.777773     0.761114     0.084596    Uiso  ? N
   N35        1.0     0.557166     0.871416     0.832027    Uiso  ? N
   N36        1.0     0.443832     0.761710     0.584009    Uiso  ? N
