
#======================================================================
# CRYSTAL DATA
#----------------------------------------------------------------------
data_VESTA_phase_1

_chemical_name_common                  'Hf   Al   Mg   N                      '
_cell_length_a                         9.452183
_cell_length_b                         9.447607
_cell_length_c                         10.065709
_cell_angle_alpha                      90.000000
_cell_angle_beta                       90.004471
_cell_angle_gamma                      60.016029
_cell_volume                           778.572506
_space_group_name_H-M_alt              'P 1'
_space_group_IT_number                 1

loop_
_space_group_symop_operation_xyz
   'x, y, z'

loop_
   _atom_site_label
   _atom_site_occupancy
   _atom_site_fract_x
   _atom_site_fract_y
   _atom_site_fract_z
   _atom_site_adp_type
   _atom_site_U_iso_or_equiv
   _atom_site_type_symbol
   Hf1        1.0     0.111157     0.094421     0.311883    Uiso  ? Hf
   Al1        1.0     0.222787     0.208710     0.053226    Uiso  ? Al
   Al2        1.0     0.776708     0.093440     0.809066    Uiso  ? Al
   Al3        1.0     0.882626     0.208687     0.564203    Uiso  ? Al
   Al4        1.0     0.449793     0.094561     0.307460    Uiso  ? Al
   Al5        1.0     0.555773     0.207512     0.058655    Uiso  ? Al
   Al6        1.0     0.111154     0.094423     0.806910    Uiso  ? Al
   Al7        1.0     0.225439     0.208045     0.564324    Uiso  ? Al
   Al8        1.0     0.772014     0.094309     0.306841    Uiso  ? Al
   Al9        1.0     0.884516     0.207742     0.053504    Uiso  ? Al
   Al10       1.0     0.446259     0.093821     0.809193    Uiso  ? Al
   Al11       1.0     0.555835     0.205303     0.559046    Uiso  ? Al
   Al12       1.0     0.110484     0.432268     0.307491    Uiso  ? Al
   Al13       1.0     0.776708     0.429852     0.809066    Uiso  ? Al
   Al14       1.0     0.888144     0.539423     0.558850    Uiso  ? Al
   Al15       1.0     0.446047     0.426977     0.308158    Uiso  ? Al
   Al16       1.0     0.555773     0.536715     0.058655    Uiso  ? Al
   Al17       1.0     0.110741     0.430350     0.807093    Uiso  ? Al
   Al18       1.0     0.222333     0.538834     0.560113    Uiso  ? Al
   Al19       1.0     0.772014     0.433677     0.306841    Uiso  ? Al
   Al20       1.0     0.889807     0.537406     0.059037    Uiso  ? Al
   Al21       1.0     0.443075     0.428462     0.807355    Uiso  ? Al
   Al22       1.0     0.555835     0.538862     0.559046    Uiso  ? Al
   Al23       1.0     0.110484     0.757248     0.307491    Uiso  ? Al
   Al24       1.0     0.222787     0.868504     0.053226    Uiso  ? Al
   Al25       1.0     0.778259     0.760871     0.809252    Uiso  ? Al
   Al26       1.0     0.888144     0.872433     0.558850    Uiso  ? Al
   Al27       1.0     0.449793     0.755646     0.307460    Uiso  ? Al
   Al28       1.0     0.556303     0.871848     0.058465    Uiso  ? Al
   Al29       1.0     0.110741     0.758909     0.807093    Uiso  ? Al
   Al30       1.0     0.225439     0.866516     0.564324    Uiso  ? Al
   Al31       1.0     0.778063     0.760969     0.308212    Uiso  ? Al
   Al32       1.0     0.889807     0.872787     0.059037    Uiso  ? Al
   Al33       1.0     0.446259     0.759919     0.809193    Uiso  ? Al
   Al34       1.0     0.556145     0.871927     0.559061    Uiso  ? Al
   Mg1        1.0     0.222542     0.538729     0.059624    Uiso  ? Mg
   N1         1.0     0.232174     0.212711     0.374058    Uiso  ? N
   N2         1.0     0.111746     0.094127     0.105476    Uiso  ? N
   N3         1.0     0.888327     0.205836     0.863788    Uiso  ? N
   N4         1.0     0.776880     0.093628     0.618991    Uiso  ? N
   N5         1.0     0.555762     0.204882     0.369299    Uiso  ? N
   N6         1.0     0.444032     0.094537     0.116908    Uiso  ? N
   N7         1.0     0.222514     0.205776     0.863006    Uiso  ? N
   N8         1.0     0.110684     0.094658     0.611171    Uiso  ? N
   N9         1.0     0.870840     0.214580     0.372600    Uiso  ? N
   N10        1.0     0.777741     0.094654     0.116842    Uiso  ? N
   N11        1.0     0.555561     0.205785     0.867584    Uiso  ? N
   N12        1.0     0.446558     0.093143     0.619098    Uiso  ? N
   N13        1.0     0.222919     0.538540     0.367886    Uiso  ? N
   N14        1.0     0.103918     0.419025     0.122113    Uiso  ? N
   N15        1.0     0.888842     0.539037     0.867665    Uiso  ? N
   N16        1.0     0.776880     0.429492     0.618991    Uiso  ? N
   N17        1.0     0.555762     0.539356     0.369299    Uiso  ? N
   N18        1.0     0.459037     0.420481     0.122392    Uiso  ? N
   N19        1.0     0.222444     0.538778     0.854856    Uiso  ? N
   N20        1.0     0.109064     0.428836     0.616458    Uiso  ? N
   N21        1.0     0.887898     0.538909     0.368333    Uiso  ? N
   N22        1.0     0.777741     0.427605     0.116842    Uiso  ? N
   N23        1.0     0.555561     0.538654     0.867584    Uiso  ? N
   N24        1.0     0.446171     0.426915     0.615604    Uiso  ? N
   N25        1.0     0.232174     0.855115     0.374058    Uiso  ? N
   N26        1.0     0.103918     0.777058     0.122113    Uiso  ? N
   N27        1.0     0.888842     0.872121     0.867665    Uiso  ? N
   N28        1.0     0.777561     0.761220     0.617849    Uiso  ? N
   N29        1.0     0.554940     0.872530     0.367263    Uiso  ? N
   N30        1.0     0.444032     0.761430     0.116908    Uiso  ? N
   N31        1.0     0.222514     0.871710     0.863006    Uiso  ? N
   N32        1.0     0.109064     0.762100     0.616458    Uiso  ? N
   N33        1.0     0.887898     0.873193     0.368333    Uiso  ? N
   N34        1.0     0.777945     0.761027     0.117879    Uiso  ? N
   N35        1.0     0.556025     0.871987     0.868062    Uiso  ? N
   N36        1.0     0.446558     0.760299     0.619098    Uiso  ? N
