
#======================================================================
# CRYSTAL DATA
#----------------------------------------------------------------------
data_VESTA_phase_1

_chemical_name_common                  'Hf   Al   Mg   N                      '
_cell_length_a                         9.765926
_cell_length_b                         9.759238
_cell_length_c                         9.166279
_cell_angle_alpha                      90.000008
_cell_angle_beta                       89.992950
_cell_angle_gamma                      60.021553
_cell_volume                           756.741127
_space_group_name_H-M_alt              'P 1'
_space_group_IT_number                 1

loop_
_space_group_symop_operation_xyz
   'x, y, z'

loop_
   _atom_site_label
   _atom_site_occupancy
   _atom_site_fract_x
   _atom_site_fract_y
   _atom_site_fract_z
   _atom_site_adp_type
   _atom_site_U_iso_or_equiv
   _atom_site_type_symbol
   Hf1        1.0     0.110347     0.094828     0.356463    Uiso  ? Hf
   Al1        1.0     0.226090     0.209374     0.113810    Uiso  ? Al
   Al2        1.0     0.775529     0.091746     0.873975    Uiso  ? Al
   Al3        1.0     0.885682     0.207158     0.632790    Uiso  ? Al
   Al4        1.0     0.448946     0.094216     0.376574    Uiso  ? Al
   Al5        1.0     0.557438     0.204671     0.125771    Uiso  ? Al
   Al6        1.0     0.111837     0.094082     0.877070    Uiso  ? Al
   Al7        1.0     0.223467     0.207598     0.631153    Uiso  ? Al
   Al8        1.0     0.772986     0.095208     0.376824    Uiso  ? Al
   Al9        1.0     0.878888     0.210555     0.111918    Uiso  ? Al
   Al10       1.0     0.448106     0.092826     0.873666    Uiso  ? Al
   Al11       1.0     0.554761     0.207580     0.624533    Uiso  ? Al
   Al12       1.0     0.111904     0.431892     0.373102    Uiso  ? Al
   Al13       1.0     0.775529     0.432725     0.873975    Uiso  ? Al
   Al14       1.0     0.889060     0.539320     0.623202    Uiso  ? Al
   Al15       1.0     0.444009     0.427996     0.371221    Uiso  ? Al
   Al16       1.0     0.557439     0.537891     0.125771    Uiso  ? Al
   Al17       1.0     0.108311     0.431255     0.876352    Uiso  ? Al
   Al18       1.0     0.223697     0.538151     0.617254    Uiso  ? Al
   Al19       1.0     0.772985     0.431806     0.376824    Uiso  ? Al
   Al20       1.0     0.888058     0.538099     0.126173    Uiso  ? Al
   Al21       1.0     0.445596     0.427203     0.878378    Uiso  ? Al
   Al22       1.0     0.554760     0.537659     0.624533    Uiso  ? Al
   Al23       1.0     0.111904     0.756205     0.373102    Uiso  ? Al
   Al24       1.0     0.226089     0.864536     0.113809    Uiso  ? Al
   Al25       1.0     0.778443     0.760779     0.876126    Uiso  ? Al
   Al26       1.0     0.889060     0.871619     0.623202    Uiso  ? Al
   Al27       1.0     0.448945     0.756840     0.376573    Uiso  ? Al
   Al28       1.0     0.555910     0.872045     0.124438    Uiso  ? Al
   Al29       1.0     0.108311     0.760434     0.876352    Uiso  ? Al
   Al30       1.0     0.223467     0.868935     0.631153    Uiso  ? Al
   Al31       1.0     0.777353     0.761323     0.373551    Uiso  ? Al
   Al32       1.0     0.888059     0.873841     0.126173    Uiso  ? Al
   Al33       1.0     0.448106     0.759069     0.873666    Uiso  ? Al
   Al34       1.0     0.556713     0.871643     0.625178    Uiso  ? Al
   Mg1        1.0     0.222556     0.538721     0.118951    Uiso  ? Mg
   N1         1.0     0.232895     0.213225     0.329276    Uiso  ? N
   N2         1.0     0.111328     0.094337     0.094150    Uiso  ? N
   N3         1.0     0.888706     0.205646     0.842696    Uiso  ? N
   N4         1.0     0.778304     0.095471     0.586503    Uiso  ? N
   N5         1.0     0.556127     0.204106     0.336067    Uiso  ? N
   N6         1.0     0.447659     0.092844     0.082511    Uiso  ? N
   N7         1.0     0.223281     0.204461     0.840274    Uiso  ? N
   N8         1.0     0.110302     0.094850     0.591111    Uiso  ? N
   N9         1.0     0.868760     0.215618     0.327154    Uiso  ? N
   N10        1.0     0.775881     0.092455     0.082229    Uiso  ? N
   N11        1.0     0.555324     0.205625     0.832391    Uiso  ? N
   N12        1.0     0.443841     0.094445     0.586331    Uiso  ? N
   N13        1.0     0.222723     0.538638     0.349176    Uiso  ? N
   N14        1.0     0.101649     0.423583     0.082615    Uiso  ? N
   N15        1.0     0.887304     0.541117     0.831675    Uiso  ? N
   N16        1.0     0.778304     0.426227     0.586503    Uiso  ? N
   N17        1.0     0.556127     0.539766     0.336067    Uiso  ? N
   N18        1.0     0.459972     0.420016     0.085860    Uiso  ? N
   N19        1.0     0.223185     0.538407     0.833172    Uiso  ? N
   N20        1.0     0.110505     0.425487     0.585477    Uiso  ? N
   N21        1.0     0.888143     0.538070     0.336976    Uiso  ? N
   N22        1.0     0.775882     0.431665     0.082230    Uiso  ? N
   N23        1.0     0.555324     0.539049     0.832391    Uiso  ? N
   N24        1.0     0.446986     0.426508     0.582773    Uiso  ? N
   N25        1.0     0.232894     0.853879     0.329276    Uiso  ? N
   N26        1.0     0.101650     0.774770     0.082615    Uiso  ? N
   N27        1.0     0.887305     0.871576     0.831675    Uiso  ? N
   N28        1.0     0.777220     0.761391     0.582192    Uiso  ? N
   N29        1.0     0.554313     0.872843     0.334959    Uiso  ? N
   N30        1.0     0.447659     0.759500     0.082512    Uiso  ? N
   N31        1.0     0.223281     0.872256     0.840274    Uiso  ? N
   N32        1.0     0.110505     0.764011     0.585477    Uiso  ? N
   N33        1.0     0.888143     0.873783     0.336976    Uiso  ? N
   N34        1.0     0.777790     0.761106     0.086807    Uiso  ? N
   N35        1.0     0.557276     0.871361     0.834080    Uiso  ? N
   N36        1.0     0.443840     0.761718     0.586330    Uiso  ? N
