
#======================================================================
# CRYSTAL DATA
#----------------------------------------------------------------------
data_VESTA_phase_1

_chemical_name_common                  'Hf   Al   Mg   N                      '
_cell_length_a                         9.452239
_cell_length_b                         9.447639
_cell_length_c                         10.065598
_cell_angle_alpha                      90.000015
_cell_angle_beta                       90.004715
_cell_angle_gamma                      60.016018
_cell_volume                           778.571165
_space_group_name_H-M_alt              'P 1'
_space_group_IT_number                 1

loop_
_space_group_symop_operation_xyz
   'x, y, z'

loop_
   _atom_site_label
   _atom_site_occupancy
   _atom_site_fract_x
   _atom_site_fract_y
   _atom_site_fract_z
   _atom_site_adp_type
   _atom_site_U_iso_or_equiv
   _atom_site_type_symbol
   Hf1        1.0     0.111158     0.094421     0.319126    Uiso  ? Hf
   Al1        1.0     0.222788     0.208708     0.060464    Uiso  ? Al
   Al2        1.0     0.776711     0.093438     0.816303    Uiso  ? Al
   Al3        1.0     0.882626     0.208687     0.571437    Uiso  ? Al
   Al4        1.0     0.449796     0.094560     0.314694    Uiso  ? Al
   Al5        1.0     0.555776     0.207511     0.065890    Uiso  ? Al
   Al6        1.0     0.111156     0.094422     0.814142    Uiso  ? Al
   Al7        1.0     0.225443     0.208045     0.571559    Uiso  ? Al
   Al8        1.0     0.772016     0.094308     0.314076    Uiso  ? Al
   Al9        1.0     0.884521     0.207740     0.060741    Uiso  ? Al
   Al10       1.0     0.446261     0.093820     0.816431    Uiso  ? Al
   Al11       1.0     0.555838     0.205301     0.566282    Uiso  ? Al
   Al12       1.0     0.110486     0.432267     0.314726    Uiso  ? Al
   Al13       1.0     0.776711     0.429850     0.816303    Uiso  ? Al
   Al14       1.0     0.888146     0.539421     0.566086    Uiso  ? Al
   Al15       1.0     0.446050     0.426975     0.315395    Uiso  ? Al
   Al16       1.0     0.555776     0.536714     0.065890    Uiso  ? Al
   Al17       1.0     0.110743     0.430348     0.814329    Uiso  ? Al
   Al18       1.0     0.222335     0.538833     0.567350    Uiso  ? Al
   Al19       1.0     0.772016     0.433676     0.314076    Uiso  ? Al
   Al20       1.0     0.889809     0.537405     0.066272    Uiso  ? Al
   Al21       1.0     0.443078     0.428461     0.814589    Uiso  ? Al
   Al22       1.0     0.555838     0.538861     0.566282    Uiso  ? Al
   Al23       1.0     0.110486     0.757247     0.314726    Uiso  ? Al
   Al24       1.0     0.222788     0.868504     0.060464    Uiso  ? Al
   Al25       1.0     0.778261     0.760870     0.816487    Uiso  ? Al
   Al26       1.0     0.888146     0.872432     0.566086    Uiso  ? Al
   Al27       1.0     0.449796     0.755644     0.314694    Uiso  ? Al
   Al28       1.0     0.556306     0.871847     0.065700    Uiso  ? Al
   Al29       1.0     0.110743     0.758908     0.814329    Uiso  ? Al
   Al30       1.0     0.225442     0.866513     0.571559    Uiso  ? Al
   Al31       1.0     0.778065     0.760967     0.315448    Uiso  ? Al
   Al32       1.0     0.889810     0.872785     0.066272    Uiso  ? Al
   Al33       1.0     0.446261     0.759918     0.816431    Uiso  ? Al
   Al34       1.0     0.556147     0.871926     0.566297    Uiso  ? Al
   Mg1        1.0     0.222546     0.538727     0.066859    Uiso  ? Mg
   N1         1.0     0.232179     0.212711     0.381291    Uiso  ? N
   N2         1.0     0.111750     0.094125     0.112717    Uiso  ? N
   N3         1.0     0.888332     0.205834     0.871023    Uiso  ? N
   N4         1.0     0.776882     0.093627     0.626226    Uiso  ? N
   N5         1.0     0.555765     0.204879     0.376533    Uiso  ? N
   N6         1.0     0.444035     0.094536     0.124141    Uiso  ? N
   N7         1.0     0.222515     0.205774     0.870240    Uiso  ? N
   N8         1.0     0.110686     0.094657     0.618399    Uiso  ? N
   N9         1.0     0.870840     0.214580     0.379833    Uiso  ? N
   N10        1.0     0.777744     0.094652     0.124074    Uiso  ? N
   N11        1.0     0.555564     0.205784     0.874818    Uiso  ? N
   N12        1.0     0.446560     0.093142     0.626333    Uiso  ? N
   N13        1.0     0.222922     0.538539     0.375120    Uiso  ? N
   N14        1.0     0.103920     0.419024     0.129346    Uiso  ? N
   N15        1.0     0.888845     0.539035     0.874898    Uiso  ? N
   N16        1.0     0.776882     0.429491     0.626226    Uiso  ? N
   N17        1.0     0.555765     0.539356     0.376533    Uiso  ? N
   N18        1.0     0.459041     0.420480     0.129627    Uiso  ? N
   N19        1.0     0.222448     0.538776     0.862089    Uiso  ? N
   N20        1.0     0.109066     0.428835     0.623692    Uiso  ? N
   N21        1.0     0.887901     0.538908     0.375567    Uiso  ? N
   N22        1.0     0.777744     0.427604     0.124074    Uiso  ? N
   N23        1.0     0.555564     0.538652     0.874818    Uiso  ? N
   N24        1.0     0.446173     0.426913     0.622837    Uiso  ? N
   N25        1.0     0.232179     0.855110     0.381291    Uiso  ? N
   N26        1.0     0.103920     0.777056     0.129346    Uiso  ? N
   N27        1.0     0.888845     0.872119     0.874898    Uiso  ? N
   N28        1.0     0.777563     0.761219     0.625083    Uiso  ? N
   N29        1.0     0.554942     0.872529     0.374497    Uiso  ? N
   N30        1.0     0.444035     0.761429     0.124141    Uiso  ? N
   N31        1.0     0.222515     0.871710     0.870240    Uiso  ? N
   N32        1.0     0.109066     0.762099     0.623692    Uiso  ? N
   N33        1.0     0.887901     0.873191     0.375567    Uiso  ? N
   N34        1.0     0.777948     0.761026     0.125113    Uiso  ? N
   N35        1.0     0.556028     0.871986     0.875296    Uiso  ? N
   N36        1.0     0.446560     0.760298     0.626333    Uiso  ? N
