
#======================================================================
# CRYSTAL DATA
#----------------------------------------------------------------------
data_VESTA_phase_1

_chemical_name_common                  'Hf   Al   Mg   N '
_cell_length_a                         9.455353
_cell_length_b                         9.452165
_cell_length_c                         10.062003
_cell_angle_alpha                      90.000000
_cell_angle_beta                       89.999504
_cell_angle_gamma                      60.011154
_cell_volume                           778.884206
_space_group_name_H-M_alt              'P 1'
_space_group_IT_number                 1

loop_
_space_group_symop_operation_xyz
   'x, y, z'

loop_
   _atom_site_label
   _atom_site_occupancy
   _atom_site_fract_x
   _atom_site_fract_y
   _atom_site_fract_z
   _atom_site_adp_type
   _atom_site_U_iso_or_equiv
   _atom_site_type_symbol
   Hf1        1.0     0.110799     0.094601     0.405197    Uiso  ? Hf
   Al1        1.0     0.224083     0.209991     0.156751    Uiso  ? Al
   Al2        1.0     0.776599     0.093124     0.914088    Uiso  ? Al
   Al3        1.0     0.885113     0.207443     0.668775    Uiso  ? Al
   Al4        1.0     0.449814     0.094739     0.413436    Uiso  ? Al
   Al5        1.0     0.556128     0.206785     0.161946    Uiso  ? Al
   Al6        1.0     0.111677     0.094161     0.917275    Uiso  ? Al
   Al7        1.0     0.224253     0.206915     0.668685    Uiso  ? Al
   Al8        1.0     0.772108     0.094501     0.413527    Uiso  ? Al
   Al9        1.0     0.881676     0.209162     0.156418    Uiso  ? Al
   Al10       1.0     0.446327     0.093611     0.913431    Uiso  ? Al
   Al11       1.0     0.555653     0.205865     0.663949    Uiso  ? Al
   Al12       1.0     0.111555     0.433550     0.415657    Uiso  ? Al
   Al13       1.0     0.776599     0.430276     0.914088    Uiso  ? Al
   Al14       1.0     0.888245     0.539394     0.663688    Uiso  ? Al
   Al15       1.0     0.443379     0.428311     0.414397    Uiso  ? Al
   Al16       1.0     0.556128     0.537087     0.161946    Uiso  ? Al
   Al17       1.0     0.109426     0.428949     0.913738    Uiso  ? Al
   Al18       1.0     0.223095     0.538453     0.662880    Uiso  ? Al
   Al19       1.0     0.772108     0.433391     0.413527    Uiso  ? Al
   Al20       1.0     0.889743     0.537658     0.162048    Uiso  ? Al
   Al21       1.0     0.446011     0.426995     0.914095    Uiso  ? Al
   Al22       1.0     0.555653     0.538482     0.663949    Uiso  ? Al
   Al23       1.0     0.111555     0.754896     0.415657    Uiso  ? Al
   Al24       1.0     0.224083     0.865925     0.156751    Uiso  ? Al
   Al25       1.0     0.778052     0.760974     0.913741    Uiso  ? Al
   Al26       1.0     0.888245     0.872361     0.663688    Uiso  ? Al
   Al27       1.0     0.449814     0.755447     0.413436    Uiso  ? Al
   Al28       1.0     0.556020     0.871990     0.162485    Uiso  ? Al
   Al29       1.0     0.109426     0.761625     0.913738    Uiso  ? Al
   Al30       1.0     0.224253     0.868832     0.668685    Uiso  ? Al
   Al31       1.0     0.778262     0.760869     0.412541    Uiso  ? Al
   Al32       1.0     0.889743     0.872600     0.162048    Uiso  ? Al
   Al33       1.0     0.446327     0.760062     0.913431    Uiso  ? Al
   Al34       1.0     0.556238     0.871881     0.663546    Uiso  ? Al
   Mg1        1.0     0.222505     0.538748     0.161865    Uiso  ? Mg
   N1         1.0     0.231632     0.214669     0.349351    Uiso  ? N
   N2         1.0     0.111407     0.094296     0.113190    Uiso  ? N
   N3         1.0     0.888821     0.205590     0.858514    Uiso  ? N
   N4         1.0     0.778200     0.094887     0.604249    Uiso  ? N
   N5         1.0     0.555273     0.206213     0.354079    Uiso  ? N
   N6         1.0     0.446379     0.093366     0.103475    Uiso  ? N
   N7         1.0     0.223282     0.204098     0.857102    Uiso  ? N
   N8         1.0     0.110789     0.094605     0.612761    Uiso  ? N
   N9         1.0     0.869772     0.215114     0.348477    Uiso  ? N
   N10        1.0     0.776513     0.093143     0.103503    Uiso  ? N
   N11        1.0     0.556044     0.204433     0.852865    Uiso  ? N
   N12        1.0     0.444098     0.094431     0.604165    Uiso  ? N
   N13        1.0     0.223251     0.538374     0.367473    Uiso  ? N
   N14        1.0     0.102546     0.422663     0.098950    Uiso  ? N
   N15        1.0     0.887372     0.540082     0.852799    Uiso  ? N
   N16        1.0     0.778200     0.426913     0.604249    Uiso  ? N
   N17        1.0     0.555273     0.538514     0.354079    Uiso  ? N
   N18        1.0     0.459282     0.420359     0.100174    Uiso  ? N
   N19        1.0     0.222624     0.538688     0.854048    Uiso  ? N
   N20        1.0     0.110463     0.426194     0.606753    Uiso  ? N
   N21        1.0     0.889322     0.537849     0.355118    Uiso  ? N
   N22        1.0     0.776513     0.430344     0.103503    Uiso  ? N
   N23        1.0     0.556044     0.539524     0.852865    Uiso  ? N
   N24        1.0     0.446443     0.426778     0.605807    Uiso  ? N
   N25        1.0     0.231632     0.853699     0.349351    Uiso  ? N
   N26        1.0     0.102546     0.774791     0.098950    Uiso  ? N
   N27        1.0     0.887372     0.872546     0.852799    Uiso  ? N
   N28        1.0     0.777629     0.761186     0.603097    Uiso  ? N
   N29        1.0     0.554840     0.872580     0.354530    Uiso  ? N
   N30        1.0     0.446379     0.760255     0.103475    Uiso  ? N
   N31        1.0     0.223282     0.872619     0.857102    Uiso  ? N
   N32        1.0     0.110463     0.763343     0.606753    Uiso  ? N
   N33        1.0     0.889322     0.872829     0.355118    Uiso  ? N
   N34        1.0     0.777575     0.761212     0.105024    Uiso  ? N
   N35        1.0     0.556074     0.871963     0.853834    Uiso  ? N
   N36        1.0     0.444098     0.761471     0.604165    Uiso  ? N
