
#======================================================================
# CRYSTAL DATA
#----------------------------------------------------------------------
data_VESTA_phase_1

_chemical_name_common                  'Hf   Al   Mg   N                      '
_cell_length_a                         9.455394
_cell_length_b                         9.452240
_cell_length_c                         10.061827
_cell_angle_alpha                      90.000008
_cell_angle_beta                       89.999222
_cell_angle_gamma                      60.011070
_cell_volume                           778.879477
_space_group_name_H-M_alt              'P 1'
_space_group_IT_number                 1

loop_
_space_group_symop_operation_xyz
   'x, y, z'

loop_
   _atom_site_label
   _atom_site_occupancy
   _atom_site_fract_x
   _atom_site_fract_y
   _atom_site_fract_z
   _atom_site_adp_type
   _atom_site_U_iso_or_equiv
   _atom_site_type_symbol
   Hf1        1.0     0.110788     0.094606     0.395627    Uiso  ? Hf
   Al1        1.0     0.224078     0.209999     0.147205    Uiso  ? Al
   Al2        1.0     0.776600     0.093120     0.904555    Uiso  ? Al
   Al3        1.0     0.885126     0.207437     0.659232    Uiso  ? Al
   Al4        1.0     0.449798     0.094744     0.403913    Uiso  ? Al
   Al5        1.0     0.556118     0.206787     0.152427    Uiso  ? Al
   Al6        1.0     0.111679     0.094160     0.907739    Uiso  ? Al
   Al7        1.0     0.224250     0.206914     0.659150    Uiso  ? Al
   Al8        1.0     0.772105     0.094502     0.404002    Uiso  ? Al
   Al9        1.0     0.881665     0.209168     0.146872    Uiso  ? Al
   Al10       1.0     0.446330     0.093608     0.903901    Uiso  ? Al
   Al11       1.0     0.555654     0.205866     0.654428    Uiso  ? Al
   Al12       1.0     0.111551     0.433551     0.406125    Uiso  ? Al
   Al13       1.0     0.776600     0.430280     0.904555    Uiso  ? Al
   Al14       1.0     0.888250     0.539395     0.654162    Uiso  ? Al
   Al15       1.0     0.443373     0.428314     0.404862    Uiso  ? Al
   Al16       1.0     0.556118     0.537095     0.152427    Uiso  ? Al
   Al17       1.0     0.109422     0.428955     0.904199    Uiso  ? Al
   Al18       1.0     0.223101     0.538450     0.653347    Uiso  ? Al
   Al19       1.0     0.772105     0.433393     0.404002    Uiso  ? Al
   Al20       1.0     0.889739     0.537661     0.152525    Uiso  ? Al
   Al21       1.0     0.446011     0.426995     0.904568    Uiso  ? Al
   Al22       1.0     0.555654     0.538480     0.654428    Uiso  ? Al
   Al23       1.0     0.111551     0.754898     0.406125    Uiso  ? Al
   Al24       1.0     0.224078     0.865924     0.147205    Uiso  ? Al
   Al25       1.0     0.778044     0.760978     0.904217    Uiso  ? Al
   Al26       1.0     0.888250     0.872354     0.654162    Uiso  ? Al
   Al27       1.0     0.449798     0.755457     0.403913    Uiso  ? Al
   Al28       1.0     0.556007     0.871996     0.152964    Uiso  ? Al
   Al29       1.0     0.109422     0.761623     0.904199    Uiso  ? Al
   Al30       1.0     0.224250     0.868836     0.659150    Uiso  ? Al
   Al31       1.0     0.778251     0.760875     0.403017    Uiso  ? Al
   Al32       1.0     0.889739     0.872601     0.152525    Uiso  ? Al
   Al33       1.0     0.446330     0.760062     0.903901    Uiso  ? Al
   Al34       1.0     0.556233     0.871883     0.654019    Uiso  ? Al
   Mg1        1.0     0.222491     0.538754     0.152323    Uiso  ? Mg
   N1         1.0     0.231626     0.214679     0.339810    Uiso  ? N
   N2         1.0     0.111398     0.094301     0.103658    Uiso  ? N
   N3         1.0     0.888827     0.205586     0.848976    Uiso  ? N
   N4         1.0     0.778203     0.094884     0.594725    Uiso  ? N
   N5         1.0     0.555272     0.206210     0.344562    Uiso  ? N
   N6         1.0     0.446375     0.093367     0.093946    Uiso  ? N
   N7         1.0     0.223280     0.204098     0.847567    Uiso  ? N
   N8         1.0     0.110796     0.094602     0.603197    Uiso  ? N
   N9         1.0     0.869755     0.215123     0.338937    Uiso  ? N
   N10        1.0     0.776505     0.093141     0.093972    Uiso  ? N
   N11        1.0     0.556046     0.204434     0.843341    Uiso  ? N
   N12        1.0     0.444097     0.094436     0.594644    Uiso  ? N
   N13        1.0     0.223248     0.538376     0.357937    Uiso  ? N
   N14        1.0     0.102533     0.422671     0.089410    Uiso  ? N
   N15        1.0     0.887370     0.540088     0.843270    Uiso  ? N
   N16        1.0     0.778203     0.426913     0.594725    Uiso  ? N
   N17        1.0     0.555272     0.538518     0.344562    Uiso  ? N
   N18        1.0     0.459280     0.420360     0.090656    Uiso  ? N
   N19        1.0     0.222630     0.538685     0.844518    Uiso  ? N
   N20        1.0     0.110464     0.426196     0.597225    Uiso  ? N
   N21        1.0     0.889321     0.537850     0.345597    Uiso  ? N
   N22        1.0     0.776505     0.430354     0.093972    Uiso  ? N
   N23        1.0     0.556046     0.539520     0.843341    Uiso  ? N
   N24        1.0     0.446448     0.426776     0.596280    Uiso  ? N
   N25        1.0     0.231626     0.853695     0.339810    Uiso  ? N
   N26        1.0     0.102533     0.774796     0.089410    Uiso  ? N
   N27        1.0     0.887370     0.872542     0.843270    Uiso  ? N
   N28        1.0     0.777627     0.761186     0.593576    Uiso  ? N
   N29        1.0     0.554823     0.872589     0.345016    Uiso  ? N
   N30        1.0     0.446375     0.760257     0.093946    Uiso  ? N
   N31        1.0     0.223280     0.872622     0.847567    Uiso  ? N
   N32        1.0     0.110464     0.763339     0.597225    Uiso  ? N
   N33        1.0     0.889321     0.872829     0.345597    Uiso  ? N
   N34        1.0     0.777569     0.761216     0.095502    Uiso  ? N
   N35        1.0     0.556074     0.871963     0.844306    Uiso  ? N
   N36        1.0     0.444097     0.761467     0.594644    Uiso  ? N
