
#======================================================================
# CRYSTAL DATA
#----------------------------------------------------------------------
data_VESTA_phase_1

_chemical_name_common                  'Hf   Al   Mg   N                      '
_cell_length_a                         9.932570
_cell_length_b                         9.929574
_cell_length_c                         8.633961
_cell_angle_alpha                      89.999992
_cell_angle_beta                       89.997337
_cell_angle_gamma                      60.010109
_cell_volume                           737.525773
_space_group_name_H-M_alt              'P 1'
_space_group_IT_number                 1

loop_
_space_group_symop_operation_xyz
   'x, y, z'

loop_
   _atom_site_label
   _atom_site_occupancy
   _atom_site_fract_x
   _atom_site_fract_y
   _atom_site_fract_z
   _atom_site_adp_type
   _atom_site_U_iso_or_equiv
   _atom_site_type_symbol
   Hf1        1.0     0.111505     0.094248     0.355160    Uiso  ? Hf
   Al1        1.0     0.224283     0.207009     0.085765    Uiso  ? Al
   Al2        1.0     0.775962     0.092339     0.845573    Uiso  ? Al
   Al3        1.0     0.881218     0.209391     0.607455    Uiso  ? Al
   Al4        1.0     0.448462     0.095014     0.345558    Uiso  ? Al
   Al5        1.0     0.556763     0.205764     0.093738    Uiso  ? Al
   Al6        1.0     0.111048     0.094476     0.847472    Uiso  ? Al
   Al7        1.0     0.225507     0.210125     0.608389    Uiso  ? Al
   Al8        1.0     0.773106     0.094325     0.345570    Uiso  ? Al
   Al9        1.0     0.883003     0.208499     0.088396    Uiso  ? Al
   Al10       1.0     0.448518     0.091805     0.845365    Uiso  ? Al
   Al11       1.0     0.555103     0.206767     0.597077    Uiso  ? Al
   Al12       1.0     0.111368     0.431685     0.341917    Uiso  ? Al
   Al13       1.0     0.775962     0.431698     0.845573    Uiso  ? Al
   Al14       1.0     0.889582     0.538598     0.596263    Uiso  ? Al
   Al15       1.0     0.444735     0.427632     0.342975    Uiso  ? Al
   Al16       1.0     0.556763     0.537473     0.093738    Uiso  ? Al
   Al17       1.0     0.109230     0.431716     0.850378    Uiso  ? Al
   Al18       1.0     0.222429     0.538786     0.602981    Uiso  ? Al
   Al19       1.0     0.773106     0.432570     0.345570    Uiso  ? Al
   Al20       1.0     0.887682     0.538703     0.095080    Uiso  ? Al
   Al21       1.0     0.444019     0.427990     0.849951    Uiso  ? Al
   Al22       1.0     0.555103     0.538131     0.597077    Uiso  ? Al
   Al23       1.0     0.111368     0.756947     0.341917    Uiso  ? Al
   Al24       1.0     0.224283     0.868708     0.085765    Uiso  ? Al
   Al25       1.0     0.777325     0.761337     0.844053    Uiso  ? Al
   Al26       1.0     0.889582     0.871820     0.596263    Uiso  ? Al
   Al27       1.0     0.448462     0.756523     0.345558    Uiso  ? Al
   Al28       1.0     0.556484     0.871758     0.096729    Uiso  ? Al
   Al29       1.0     0.109230     0.759054     0.850378    Uiso  ? Al
   Al30       1.0     0.225507     0.864369     0.608389    Uiso  ? Al
   Al31       1.0     0.778447     0.760776     0.347008    Uiso  ? Al
   Al32       1.0     0.887682     0.873615     0.095080    Uiso  ? Al
   Al33       1.0     0.448518     0.759677     0.845365    Uiso  ? Al
   Al34       1.0     0.555996     0.872002     0.594424    Uiso  ? Al
   Mg1        1.0     0.223504     0.538248     0.099221    Uiso  ? Mg
   N1         1.0     0.231199     0.212985     0.368357    Uiso  ? N
   N2         1.0     0.111410     0.094295     0.102111    Uiso  ? N
   N3         1.0     0.887398     0.206301     0.858404    Uiso  ? N
   N4         1.0     0.776919     0.093672     0.614388    Uiso  ? N
   N5         1.0     0.555605     0.205071     0.364409    Uiso  ? N
   N6         1.0     0.444298     0.094689     0.111529    Uiso  ? N
   N7         1.0     0.224131     0.204357     0.856504    Uiso  ? N
   N8         1.0     0.110037     0.094981     0.613410    Uiso  ? N
   N9         1.0     0.872079     0.213961     0.365307    Uiso  ? N
   N10        1.0     0.777443     0.094503     0.111355    Uiso  ? N
   N11        1.0     0.555810     0.204582     0.861853    Uiso  ? N
   N12        1.0     0.446968     0.092678     0.614493    Uiso  ? N
   N13        1.0     0.222590     0.538705     0.366455    Uiso  ? N
   N14        1.0     0.104281     0.420509     0.109838    Uiso  ? N
   N15        1.0     0.886585     0.541276     0.862296    Uiso  ? N
   N16        1.0     0.776919     0.429408     0.614388    Uiso  ? N
   N17        1.0     0.555605     0.539325     0.364409    Uiso  ? N
   N18        1.0     0.458548     0.420726     0.111801    Uiso  ? N
   N19        1.0     0.222951     0.538525     0.850898    Uiso  ? N
   N20        1.0     0.108763     0.428881     0.615635    Uiso  ? N
   N21        1.0     0.888759     0.538267     0.363606    Uiso  ? N
   N22        1.0     0.777443     0.428054     0.111355    Uiso  ? N
   N23        1.0     0.555810     0.539609     0.861853    Uiso  ? N
   N24        1.0     0.446593     0.426703     0.613330    Uiso  ? N
   N25        1.0     0.231199     0.855816     0.368357    Uiso  ? N
   N26        1.0     0.104281     0.775210     0.109838    Uiso  ? N
   N27        1.0     0.886585     0.872138     0.862296    Uiso  ? N
   N28        1.0     0.777235     0.761382     0.610890    Uiso  ? N
   N29        1.0     0.554545     0.872728     0.361596    Uiso  ? N
   N30        1.0     0.444298     0.761013     0.111529    Uiso  ? N
   N31        1.0     0.224131     0.871512     0.856504    Uiso  ? N
   N32        1.0     0.108763     0.762356     0.615635    Uiso  ? N
   N33        1.0     0.888759     0.872974     0.363606    Uiso  ? N
   N34        1.0     0.777957     0.761021     0.115073    Uiso  ? N
   N35        1.0     0.557016     0.871492     0.864487    Uiso  ? N
   N36        1.0     0.446968     0.760354     0.614493    Uiso  ? N
