
#======================================================================
# CRYSTAL DATA
#----------------------------------------------------------------------
data_VESTA_phase_1

_chemical_name_common                  'Hf   Al   Mg   N                      '
_cell_length_a                         9.452520
_cell_length_b                         9.447986
_cell_length_c                         10.064809
_cell_angle_alpha                      90.000069
_cell_angle_beta                       90.004501
_cell_angle_gamma                      60.015854
_cell_volume                           778.560500
_space_group_name_H-M_alt              'P 1'
_space_group_IT_number                 1

loop_
_space_group_symop_operation_xyz
   'x, y, z'

loop_
   _atom_site_label
   _atom_site_occupancy
   _atom_site_fract_x
   _atom_site_fract_y
   _atom_site_fract_z
   _atom_site_adp_type
   _atom_site_U_iso_or_equiv
   _atom_site_type_symbol
   Hf1        1.0     0.111162     0.094418     0.323014    Uiso  ? Hf
   Al1        1.0     0.222784     0.208700     0.064301    Uiso  ? Al
   Al2        1.0     0.776715     0.093437     0.820128    Uiso  ? Al
   Al3        1.0     0.882607     0.208696     0.575259    Uiso  ? Al
   Al4        1.0     0.449799     0.094561     0.318509    Uiso  ? Al
   Al5        1.0     0.555780     0.207510     0.069705    Uiso  ? Al
   Al6        1.0     0.111157     0.094422     0.817948    Uiso  ? Al
   Al7        1.0     0.225451     0.208056     0.575383    Uiso  ? Al
   Al8        1.0     0.772016     0.094306     0.317892    Uiso  ? Al
   Al9        1.0     0.884535     0.207733     0.064581    Uiso  ? Al
   Al10       1.0     0.446261     0.093819     0.820256    Uiso  ? Al
   Al11       1.0     0.555839     0.205299     0.570103    Uiso  ? Al
   Al12       1.0     0.110487     0.432270     0.318539    Uiso  ? Al
   Al13       1.0     0.776715     0.429848     0.820128    Uiso  ? Al
   Al14       1.0     0.888148     0.539420     0.569907    Uiso  ? Al
   Al15       1.0     0.446055     0.426973     0.319217    Uiso  ? Al
   Al16       1.0     0.555780     0.536711     0.069705    Uiso  ? Al
   Al17       1.0     0.110745     0.430348     0.818160    Uiso  ? Al
   Al18       1.0     0.222333     0.538833     0.571172    Uiso  ? Al
   Al19       1.0     0.772016     0.433678     0.317892    Uiso  ? Al
   Al20       1.0     0.889809     0.537408     0.070088    Uiso  ? Al
   Al21       1.0     0.443078     0.428461     0.818408    Uiso  ? Al
   Al22       1.0     0.555839     0.538862     0.570103    Uiso  ? Al
   Al23       1.0     0.110487     0.757244     0.318539    Uiso  ? Al
   Al24       1.0     0.222784     0.868516     0.064301    Uiso  ? Al
   Al25       1.0     0.778259     0.760870     0.820301    Uiso  ? Al
   Al26       1.0     0.888148     0.872432     0.569907    Uiso  ? Al
   Al27       1.0     0.449799     0.755640     0.318509    Uiso  ? Al
   Al28       1.0     0.556309     0.871846     0.069518    Uiso  ? Al
   Al29       1.0     0.110745     0.758907     0.818160    Uiso  ? Al
   Al30       1.0     0.225451     0.866493     0.575383    Uiso  ? Al
   Al31       1.0     0.778065     0.760967     0.319268    Uiso  ? Al
   Al32       1.0     0.889810     0.872783     0.070088    Uiso  ? Al
   Al33       1.0     0.446261     0.759920     0.820256    Uiso  ? Al
   Al34       1.0     0.556144     0.871928     0.570115    Uiso  ? Al
   Mg1        1.0     0.222556     0.538722     0.070688    Uiso  ? Mg
   N1         1.0     0.232190     0.212725     0.385103    Uiso  ? N
   N2         1.0     0.111753     0.094124     0.116585    Uiso  ? N
   N3         1.0     0.888343     0.205829     0.874840    Uiso  ? N
   N4         1.0     0.776882     0.093625     0.630039    Uiso  ? N
   N5         1.0     0.555767     0.204876     0.380342    Uiso  ? N
   N6         1.0     0.444040     0.094536     0.127944    Uiso  ? N
   N7         1.0     0.222511     0.205768     0.874055    Uiso  ? N
   N8         1.0     0.110686     0.094657     0.622177    Uiso  ? N
   N9         1.0     0.870819     0.214591     0.383645    Uiso  ? N
   N10        1.0     0.777746     0.094648     0.127879    Uiso  ? N
   N11        1.0     0.555564     0.205785     0.878622    Uiso  ? N
   N12        1.0     0.446563     0.093141     0.630146    Uiso  ? N
   N13        1.0     0.222921     0.538539     0.378925    Uiso  ? N
   N14        1.0     0.103921     0.419027     0.133146    Uiso  ? N
   N15        1.0     0.888842     0.539040     0.878704    Uiso  ? N
   N16        1.0     0.776882     0.429492     0.630039    Uiso  ? N
   N17        1.0     0.555767     0.539357     0.380342    Uiso  ? N
   N18        1.0     0.459052     0.420474     0.133434    Uiso  ? N
   N19        1.0     0.222451     0.538774     0.865904    Uiso  ? N
   N20        1.0     0.109066     0.428838     0.627509    Uiso  ? N
   N21        1.0     0.887903     0.538906     0.379374    Uiso  ? N
   N22        1.0     0.777746     0.427606     0.127879    Uiso  ? N
   N23        1.0     0.555564     0.538651     0.878622    Uiso  ? N
   N24        1.0     0.446174     0.426913     0.626643    Uiso  ? N
   N25        1.0     0.232189     0.855086     0.385103    Uiso  ? N
   N26        1.0     0.103921     0.777052     0.133146    Uiso  ? N
   N27        1.0     0.888842     0.872118     0.878704    Uiso  ? N
   N28        1.0     0.777562     0.761219     0.628885    Uiso  ? N
   N29        1.0     0.554938     0.872531     0.378302    Uiso  ? N
   N30        1.0     0.444040     0.761425     0.127944    Uiso  ? N
   N31        1.0     0.222511     0.871721     0.874055    Uiso  ? N
   N32        1.0     0.109066     0.762096     0.627509    Uiso  ? N
   N33        1.0     0.887902     0.873191     0.379374    Uiso  ? N
   N34        1.0     0.777949     0.761025     0.128921    Uiso  ? N
   N35        1.0     0.556030     0.871985     0.879103    Uiso  ? N
   N36        1.0     0.446563     0.760297     0.630146    Uiso  ? N
