
#======================================================================
# CRYSTAL DATA
#----------------------------------------------------------------------
data_VESTA_phase_1

_chemical_name_common                  'Hf   Al   Mg   N                      '
_cell_length_a                         9.459004
_cell_length_b                         9.454698
_cell_length_c                         10.047790
_cell_angle_alpha                      90.000549
_cell_angle_beta                       90.004417
_cell_angle_gamma                      60.015293
_cell_volume                           778.325283
_space_group_name_H-M_alt              'P 1'
_space_group_IT_number                 1

loop_
_space_group_symop_operation_xyz
   'x, y, z'

loop_
   _atom_site_label
   _atom_site_occupancy
   _atom_site_fract_x
   _atom_site_fract_y
   _atom_site_fract_z
   _atom_site_adp_type
   _atom_site_U_iso_or_equiv
   _atom_site_type_symbol
   Hf1        1.0     0.111184     0.094406     0.327932    Uiso  ? Hf
   Al1        1.0     0.222710     0.208592     0.068452    Uiso  ? Al
   Al2        1.0     0.776734     0.093423     0.824223    Uiso  ? Al
   Al3        1.0     0.882333     0.208834     0.579291    Uiso  ? Al
   Al4        1.0     0.449811     0.094585     0.322484    Uiso  ? Al
   Al5        1.0     0.555806     0.207499     0.073682    Uiso  ? Al
   Al6        1.0     0.111142     0.094429     0.821686    Uiso  ? Al
   Al7        1.0     0.225568     0.208212     0.579474    Uiso  ? Al
   Al8        1.0     0.771993     0.094306     0.321875    Uiso  ? Al
   Al9        1.0     0.884697     0.207652     0.068778    Uiso  ? Al
   Al10       1.0     0.446272     0.093785     0.824359    Uiso  ? Al
   Al11       1.0     0.555841     0.205287     0.574159    Uiso  ? Al
   Al12       1.0     0.110490     0.432282     0.322479    Uiso  ? Al
   Al13       1.0     0.776734     0.429844     0.824224    Uiso  ? Al
   Al14       1.0     0.888162     0.539408     0.573962    Uiso  ? Al
   Al15       1.0     0.446096     0.426951     0.323267    Uiso  ? Al
   Al16       1.0     0.555806     0.536694     0.073682    Uiso  ? Al
   Al17       1.0     0.110738     0.430374     0.822353    Uiso  ? Al
   Al18       1.0     0.222306     0.538847     0.575249    Uiso  ? Al
   Al19       1.0     0.771994     0.433700     0.321875    Uiso  ? Al
   Al20       1.0     0.889775     0.537447     0.074085    Uiso  ? Al
   Al21       1.0     0.443063     0.428468     0.822468    Uiso  ? Al
   Al22       1.0     0.555841     0.538872     0.574159    Uiso  ? Al
   Al23       1.0     0.110490     0.757227     0.322479    Uiso  ? Al
   Al24       1.0     0.222710     0.868698     0.068451    Uiso  ? Al
   Al25       1.0     0.778230     0.760885     0.824277    Uiso  ? Al
   Al26       1.0     0.888162     0.872430     0.573962    Uiso  ? Al
   Al27       1.0     0.449811     0.755603     0.322485    Uiso  ? Al
   Al28       1.0     0.556327     0.871836     0.073572    Uiso  ? Al
   Al29       1.0     0.110738     0.758888     0.822353    Uiso  ? Al
   Al30       1.0     0.225568     0.866219     0.579475    Uiso  ? Al
   Al31       1.0     0.778067     0.760967     0.323340    Uiso  ? Al
   Al32       1.0     0.889774     0.872779     0.074085    Uiso  ? Al
   Al33       1.0     0.446272     0.759943     0.824359    Uiso  ? Al
   Al34       1.0     0.556120     0.871940     0.574124    Uiso  ? Al
   Mg1        1.0     0.222644     0.538678     0.074879    Uiso  ? Mg
   N1         1.0     0.232329     0.212895     0.388948    Uiso  ? N
   N2         1.0     0.111764     0.094118     0.121122    Uiso  ? N
   N3         1.0     0.888481     0.205760     0.878675    Uiso  ? N
   N4         1.0     0.776865     0.093613     0.633901    Uiso  ? N
   N5         1.0     0.555785     0.204843     0.384154    Uiso  ? N
   N6         1.0     0.444051     0.094547     0.131685    Uiso  ? N
   N7         1.0     0.222448     0.205676     0.877854    Uiso  ? N
   N8         1.0     0.110670     0.094664     0.625478    Uiso  ? N
   N9         1.0     0.870529     0.214737     0.387457    Uiso  ? N
   N10        1.0     0.777749     0.094628     0.131625    Uiso  ? N
   N11        1.0     0.555560     0.205789     0.882394    Uiso  ? N
   N12        1.0     0.446603     0.093115     0.634013    Uiso  ? N
   N13        1.0     0.222901     0.538550     0.382687    Uiso  ? N
   N14        1.0     0.103901     0.419048     0.136813    Uiso  ? N
   N15        1.0     0.888790     0.539104     0.882491    Uiso  ? N
   N16        1.0     0.776865     0.429522     0.633901    Uiso  ? N
   N17        1.0     0.555785     0.539373     0.384154    Uiso  ? N
   N18        1.0     0.459154     0.420422     0.137214    Uiso  ? N
   N19        1.0     0.222488     0.538757     0.869813    Uiso  ? N
   N20        1.0     0.109043     0.428890     0.631434    Uiso  ? N
   N21        1.0     0.887921     0.538879     0.383180    Uiso  ? N
   N22        1.0     0.777749     0.427623     0.131625    Uiso  ? N
   N23        1.0     0.555560     0.538653     0.882394    Uiso  ? N
   N24        1.0     0.446170     0.426915     0.630445    Uiso  ? N
   N25        1.0     0.232331     0.854775     0.388948    Uiso  ? N
   N26        1.0     0.103901     0.777050     0.136814    Uiso  ? N
   N27        1.0     0.888790     0.872108     0.882491    Uiso  ? N
   N28        1.0     0.777539     0.761230     0.632634    Uiso  ? N
   N29        1.0     0.554891     0.872555     0.382078    Uiso  ? N
   N30        1.0     0.444051     0.761402     0.131685    Uiso  ? N
   N31        1.0     0.222448     0.871877     0.877854    Uiso  ? N
   N32        1.0     0.109043     0.762066     0.631434    Uiso  ? N
   N33        1.0     0.887922     0.873201     0.383180    Uiso  ? N
   N34        1.0     0.777948     0.761026     0.132753    Uiso  ? N
   N35        1.0     0.556059     0.871971     0.882927    Uiso  ? N
   N36        1.0     0.446604     0.760281     0.634014    Uiso  ? N
