
#======================================================================
# CRYSTAL DATA
#----------------------------------------------------------------------
data_VESTA_phase_1

_chemical_name_common                  'Hf   Al   Mg   N                      '
_cell_length_a                         9.854152
_cell_length_b                         9.847350
_cell_length_c                         8.887498
_cell_angle_alpha                      90.000008
_cell_angle_beta                       89.992439
_cell_angle_gamma                      60.021500
_cell_volume                           747.038198
_space_group_name_H-M_alt              'P 1'
_space_group_IT_number                 1

loop_
_space_group_symop_operation_xyz
   'x, y, z'

loop_
   _atom_site_label
   _atom_site_occupancy
   _atom_site_fract_x
   _atom_site_fract_y
   _atom_site_fract_z
   _atom_site_adp_type
   _atom_site_U_iso_or_equiv
   _atom_site_type_symbol
   Hf1        1.0     0.110478     0.094762     0.354606    Uiso  ? Hf
   Al1        1.0     0.225749     0.208499     0.106927    Uiso  ? Al
   Al2        1.0     0.775378     0.091720     0.868874    Uiso  ? Al
   Al3        1.0     0.884540     0.207729     0.628939    Uiso  ? Al
   Al4        1.0     0.448815     0.094029     0.371649    Uiso  ? Al
   Al5        1.0     0.557531     0.204422     0.121024    Uiso  ? Al
   Al6        1.0     0.111686     0.094158     0.868394    Uiso  ? Al
   Al7        1.0     0.223893     0.208484     0.626896    Uiso  ? Al
   Al8        1.0     0.773261     0.095068     0.371983    Uiso  ? Al
   Al9        1.0     0.879819     0.210090     0.105712    Uiso  ? Al
   Al10       1.0     0.448401     0.092737     0.868552    Uiso  ? Al
   Al11       1.0     0.554589     0.207901     0.619557    Uiso  ? Al
   Al12       1.0     0.111764     0.431621     0.365938    Uiso  ? Al
   Al13       1.0     0.775378     0.432902     0.868874    Uiso  ? Al
   Al14       1.0     0.889378     0.539194     0.618061    Uiso  ? Al
   Al15       1.0     0.444215     0.427893     0.364971    Uiso  ? Al
   Al16       1.0     0.557531     0.538046     0.121024    Uiso  ? Al
   Al17       1.0     0.108401     0.431744     0.871883    Uiso  ? Al
   Al18       1.0     0.223656     0.538172     0.611113    Uiso  ? Al
   Al19       1.0     0.773261     0.431672     0.371983    Uiso  ? Al
   Al20       1.0     0.887674     0.538252     0.121471    Uiso  ? Al
   Al21       1.0     0.445198     0.427402     0.873913    Uiso  ? Al
   Al22       1.0     0.554589     0.537510     0.619557    Uiso  ? Al
   Al23       1.0     0.111764     0.756617     0.365937    Uiso  ? Al
   Al24       1.0     0.225748     0.865752     0.106927    Uiso  ? Al
   Al25       1.0     0.778455     0.760773     0.871030    Uiso  ? Al
   Al26       1.0     0.889378     0.871426     0.618061    Uiso  ? Al
   Al27       1.0     0.448815     0.757158     0.371649    Uiso  ? Al
   Al28       1.0     0.555865     0.872067     0.119478    Uiso  ? Al
   Al29       1.0     0.108401     0.759856     0.871883    Uiso  ? Al
   Al30       1.0     0.223893     0.867622     0.626897    Uiso  ? Al
   Al31       1.0     0.777257     0.761372     0.368862    Uiso  ? Al
   Al32       1.0     0.887674     0.874072     0.121471    Uiso  ? Al
   Al33       1.0     0.448401     0.758864     0.868552    Uiso  ? Al
   Al34       1.0     0.556750     0.871624     0.620364    Uiso  ? Al
   Mg1        1.0     0.222768     0.538615     0.113630    Uiso  ? Mg
   N1         1.0     0.232431     0.212298     0.335512    Uiso  ? N
   N2         1.0     0.111232     0.094385     0.094774    Uiso  ? N
   N3         1.0     0.887973     0.206012     0.847666    Uiso  ? N
   N4         1.0     0.778182     0.095377     0.591722    Uiso  ? N
   N5         1.0     0.556216     0.203850     0.341310    Uiso  ? N
   N6         1.0     0.447435     0.092959     0.087369    Uiso  ? N
   N7         1.0     0.223576     0.204921     0.845585    Uiso  ? N
   N8         1.0     0.110239     0.094882     0.599480    Uiso  ? N
   N9         1.0     0.870079     0.214959     0.332922    Uiso  ? N
   N10        1.0     0.776038     0.092687     0.087015    Uiso  ? N
   N11        1.0     0.555238     0.205806     0.837249    Uiso  ? N
   N12        1.0     0.444074     0.094317     0.591664    Uiso  ? N
   N13        1.0     0.222657     0.538670     0.354492    Uiso  ? N
   N14        1.0     0.102106     0.423492     0.089249    Uiso  ? N
   N15        1.0     0.887398     0.541106     0.836630    Uiso  ? N
   N16        1.0     0.778182     0.426442     0.591722    Uiso  ? N
   N17        1.0     0.556216     0.539932     0.341310    Uiso  ? N
   N18        1.0     0.459484     0.420260     0.092131    Uiso  ? N
   N19        1.0     0.223230     0.538384     0.837475    Uiso  ? N
   N20        1.0     0.110410     0.425786     0.590295    Uiso  ? N
   N21        1.0     0.887833     0.538341     0.342168    Uiso  ? N
   N22        1.0     0.776038     0.431277     0.087016    Uiso  ? N
   N23        1.0     0.555238     0.538954     0.837249    Uiso  ? N
   N24        1.0     0.446877     0.426563     0.587272    Uiso  ? N
   N25        1.0     0.232430     0.855270     0.335512    Uiso  ? N
   N26        1.0     0.102106     0.774405     0.089250    Uiso  ? N
   N27        1.0     0.887398     0.871493     0.836630    Uiso  ? N
   N28        1.0     0.777201     0.761400     0.587142    Uiso  ? N
   N29        1.0     0.554381     0.872808     0.339920    Uiso  ? N
   N30        1.0     0.447435     0.759609     0.087370    Uiso  ? N
   N31        1.0     0.223576     0.871501     0.845585    Uiso  ? N
   N32        1.0     0.110410     0.763807     0.590295    Uiso  ? N
   N33        1.0     0.887833     0.873823     0.342168    Uiso  ? N
   N34        1.0     0.777797     0.761102     0.091827    Uiso  ? N
   N35        1.0     0.557350     0.871324     0.839077    Uiso  ? N
   N36        1.0     0.444073     0.761613     0.591663    Uiso  ? N
