
#======================================================================
# CRYSTAL DATA
#----------------------------------------------------------------------
data_VESTA_phase_1

_chemical_name_common                  'Hf   Al   Mg   N                      '
_cell_length_a                         9.716005
_cell_length_b                         9.713416
_cell_length_c                         9.312325
_cell_angle_alpha                      89.999992
_cell_angle_beta                       89.999176
_cell_angle_gamma                      60.009937
_cell_volume                           761.188031
_space_group_name_H-M_alt              'P 1'
_space_group_IT_number                 1

loop_
_space_group_symop_operation_xyz
   'x, y, z'

loop_
   _atom_site_label
   _atom_site_occupancy
   _atom_site_fract_x
   _atom_site_fract_y
   _atom_site_fract_z
   _atom_site_adp_type
   _atom_site_U_iso_or_equiv
   _atom_site_type_symbol
   Hf1        1.0     0.111621     0.094188     0.349753    Uiso  ? Hf
   Al1        1.0     0.222531     0.206560     0.074998    Uiso  ? Al
   Al2        1.0     0.776298     0.092532     0.832742    Uiso  ? Al
   Al3        1.0     0.879032     0.210485     0.591108    Uiso  ? Al
   Al4        1.0     0.448650     0.095454     0.330588    Uiso  ? Al
   Al5        1.0     0.556445     0.206694     0.080757    Uiso  ? Al
   Al6        1.0     0.110763     0.094618     0.828363    Uiso  ? Al
   Al7        1.0     0.226772     0.210487     0.593111    Uiso  ? Al
   Al8        1.0     0.772428     0.094600     0.330261    Uiso  ? Al
   Al9        1.0     0.885785     0.207108     0.076936    Uiso  ? Al
   Al10       1.0     0.448226     0.091978     0.833001    Uiso  ? Al
   Al11       1.0     0.555633     0.205664     0.582884    Uiso  ? Al
   Al12       1.0     0.111189     0.431412     0.328645    Uiso  ? Al
   Al13       1.0     0.776299     0.431169     0.832742    Uiso  ? Al
   Al14       1.0     0.888896     0.538946     0.582282    Uiso  ? Al
   Al15       1.0     0.445886     0.427056     0.330700    Uiso  ? Al
   Al16       1.0     0.556445     0.536861     0.080757    Uiso  ? Al
   Al17       1.0     0.109491     0.431718     0.834799    Uiso  ? Al
   Al18       1.0     0.221964     0.539018     0.588614    Uiso  ? Al
   Al19       1.0     0.772429     0.432971     0.330261    Uiso  ? Al
   Al20       1.0     0.888324     0.538339     0.081926    Uiso  ? Al
   Al21       1.0     0.443590     0.428204     0.833154    Uiso  ? Al
   Al22       1.0     0.555633     0.538703     0.582883    Uiso  ? Al
   Al23       1.0     0.111190     0.757397     0.328645    Uiso  ? Al
   Al24       1.0     0.222531     0.870910     0.074998    Uiso  ? Al
   Al25       1.0     0.777406     0.761297     0.830909    Uiso  ? Al
   Al26       1.0     0.888896     0.872160     0.582283    Uiso  ? Al
   Al27       1.0     0.448651     0.755894     0.330587    Uiso  ? Al
   Al28       1.0     0.556628     0.871687     0.083378    Uiso  ? Al
   Al29       1.0     0.109491     0.758790     0.834799    Uiso  ? Al
   Al30       1.0     0.226772     0.862741     0.593111    Uiso  ? Al
   Al31       1.0     0.778466     0.760767     0.333103    Uiso  ? Al
   Al32       1.0     0.888323     0.873339     0.081926    Uiso  ? Al
   Al33       1.0     0.448226     0.759794     0.833001    Uiso  ? Al
   Al34       1.0     0.555978     0.872011     0.580879    Uiso  ? Al
   Mg1        1.0     0.223666     0.538168     0.087208    Uiso  ? Mg
   N1         1.0     0.232924     0.214361     0.384587    Uiso  ? N
   N2         1.0     0.111680     0.094159     0.120917    Uiso  ? N
   N3         1.0     0.888952     0.205525     0.870646    Uiso  ? N
   N4         1.0     0.776489     0.093127     0.628473    Uiso  ? N
   N5         1.0     0.555781     0.204711     0.378119    Uiso  ? N
   N6         1.0     0.443596     0.095105     0.124668    Uiso  ? N
   N7         1.0     0.222868     0.204187     0.868495    Uiso  ? N
   N8         1.0     0.110182     0.094908     0.615548    Uiso  ? N
   N9         1.0     0.868958     0.215523     0.382078    Uiso  ? N
   N10        1.0     0.777764     0.094806     0.124823    Uiso  ? N
   N11        1.0     0.555740     0.205131     0.875801    Uiso  ? N
   N12        1.0     0.447950     0.092118     0.628660    Uiso  ? N
   N13        1.0     0.222455     0.538773     0.376745    Uiso  ? N
   N14        1.0     0.104028     0.418976     0.125998    Uiso  ? N
   N15        1.0     0.887010     0.540896     0.876401    Uiso  ? N
   N16        1.0     0.776489     0.430383     0.628473    Uiso  ? N
   N17        1.0     0.555782     0.539509     0.378119    Uiso  ? N
   N18        1.0     0.459913     0.420042     0.128468    Uiso  ? N
   N19        1.0     0.223090     0.538456     0.863868    Uiso  ? N
   N20        1.0     0.108046     0.429854     0.628618    Uiso  ? N
   N21        1.0     0.888636     0.538151     0.376960    Uiso  ? N
   N22        1.0     0.777764     0.427429     0.124823    Uiso  ? N
   N23        1.0     0.555740     0.539131     0.875801    Uiso  ? N
   N24        1.0     0.446732     0.426633     0.625820    Uiso  ? N
   N25        1.0     0.232925     0.852715     0.384587    Uiso  ? N
   N26        1.0     0.104027     0.776994     0.125998    Uiso  ? N
   N27        1.0     0.887010     0.872097     0.876401    Uiso  ? N
   N28        1.0     0.777208     0.761395     0.624914    Uiso  ? N
   N29        1.0     0.554245     0.872879     0.374861    Uiso  ? N
   N30        1.0     0.443596     0.761296     0.124668    Uiso  ? N
   N31        1.0     0.222868     0.872947     0.868495    Uiso  ? N
   N32        1.0     0.108046     0.762098     0.628618    Uiso  ? N
   N33        1.0     0.888636     0.873217     0.376960    Uiso  ? N
   N34        1.0     0.778088     0.760955     0.128129    Uiso  ? N
   N35        1.0     0.557001     0.871500     0.878183    Uiso  ? N
   N36        1.0     0.447950     0.759930     0.628661    Uiso  ? N
