
#======================================================================
# CRYSTAL DATA
#----------------------------------------------------------------------
data_VESTA_phase_1

_chemical_name_common                  'Hf   Al   Mg   N                      '
_cell_length_a                         9.934124
_cell_length_b                         9.927682
_cell_length_c                         8.633400
_cell_angle_alpha                      90.000000
_cell_angle_beta                       89.992851
_cell_angle_gamma                      60.020969
_cell_volume                           737.533323
_space_group_name_H-M_alt              'P 1'
_space_group_IT_number                 1

loop_
_space_group_symop_operation_xyz
   'x, y, z'

loop_
   _atom_site_label
   _atom_site_occupancy
   _atom_site_fract_x
   _atom_site_fract_y
   _atom_site_fract_z
   _atom_site_adp_type
   _atom_site_U_iso_or_equiv
   _atom_site_type_symbol
   Hf1        1.0     0.110691     0.094655     0.353920    Uiso  ? Hf
   Al1        1.0     0.225279     0.207943     0.100110    Uiso  ? Al
   Al2        1.0     0.775519     0.092007     0.862639    Uiso  ? Al
   Al3        1.0     0.883324     0.208338     0.623035    Uiso  ? Al
   Al4        1.0     0.448891     0.093915     0.364691    Uiso  ? Al
   Al5        1.0     0.557327     0.204691     0.114049    Uiso  ? Al
   Al6        1.0     0.111526     0.094237     0.860022    Uiso  ? Al
   Al7        1.0     0.224472     0.209216     0.620549    Uiso  ? Al
   Al8        1.0     0.773357     0.094691     0.365136    Uiso  ? Al
   Al9        1.0     0.880733     0.209633     0.100445    Uiso  ? Al
   Al10       1.0     0.448225     0.092764     0.862092    Uiso  ? Al
   Al11       1.0     0.554612     0.207831     0.613492    Uiso  ? Al
   Al12       1.0     0.111546     0.431755     0.357661    Uiso  ? Al
   Al13       1.0     0.775520     0.432474     0.862639    Uiso  ? Al
   Al14       1.0     0.889578     0.538996     0.612020    Uiso  ? Al
   Al15       1.0     0.444236     0.427882     0.358262    Uiso  ? Al
   Al16       1.0     0.557327     0.537982     0.114049    Uiso  ? Al
   Al17       1.0     0.108868     0.431702     0.865260    Uiso  ? Al
   Al18       1.0     0.223435     0.538282     0.606779    Uiso  ? Al
   Al19       1.0     0.773357     0.431953     0.365136    Uiso  ? Al
   Al20       1.0     0.887593     0.538385     0.114347    Uiso  ? Al
   Al21       1.0     0.444699     0.427651     0.867317    Uiso  ? Al
   Al22       1.0     0.554612     0.537557     0.613492    Uiso  ? Al
   Al23       1.0     0.111545     0.756700     0.357661    Uiso  ? Al
   Al24       1.0     0.225279     0.866778     0.100110    Uiso  ? Al
   Al25       1.0     0.778304     0.760848     0.863925    Uiso  ? Al
   Al26       1.0     0.889578     0.871426     0.612020    Uiso  ? Al
   Al27       1.0     0.448891     0.757195     0.364691    Uiso  ? Al
   Al28       1.0     0.555949     0.872025     0.112866    Uiso  ? Al
   Al29       1.0     0.108868     0.759430     0.865260    Uiso  ? Al
   Al30       1.0     0.224472     0.866312     0.620549    Uiso  ? Al
   Al31       1.0     0.777406     0.761297     0.362987    Uiso  ? Al
   Al32       1.0     0.887593     0.874021     0.114347    Uiso  ? Al
   Al33       1.0     0.448225     0.759012     0.862092    Uiso  ? Al
   Al34       1.0     0.556610     0.871695     0.614021    Uiso  ? Al
   Mg1        1.0     0.223039     0.538480     0.108260    Uiso  ? Mg
   N1         1.0     0.231744     0.211801     0.344725    Uiso  ? N
   N2         1.0     0.111207     0.094397     0.095521    Uiso  ? N
   N3         1.0     0.887434     0.206282     0.851783    Uiso  ? N
   N4         1.0     0.777907     0.095052     0.597916    Uiso  ? N
   N5         1.0     0.556102     0.204027     0.347648    Uiso  ? N
   N6         1.0     0.446676     0.093329     0.094123    Uiso  ? N
   N7         1.0     0.223839     0.205100     0.850251    Uiso  ? N
   N8         1.0     0.110141     0.094930     0.607227    Uiso  ? N
   N9         1.0     0.871483     0.214258     0.341264    Uiso  ? N
   N10        1.0     0.776391     0.093191     0.093656    Uiso  ? N
   N11        1.0     0.555327     0.205632     0.843959    Uiso  ? N
   N12        1.0     0.444667     0.094039     0.598108    Uiso  ? N
   N13        1.0     0.222620     0.538690     0.359087    Uiso  ? N
   N14        1.0     0.102934     0.422938     0.096668    Uiso  ? N
   N15        1.0     0.887412     0.540944     0.843718    Uiso  ? N
   N16        1.0     0.777907     0.427042     0.597916    Uiso  ? N
   N17        1.0     0.556102     0.539870     0.347648    Uiso  ? N
   N18        1.0     0.458812     0.420595     0.098556    Uiso  ? N
   N19        1.0     0.223174     0.538413     0.842130    Uiso  ? N
   N20        1.0     0.110157     0.426558     0.597339    Uiso  ? N
   N21        1.0     0.887818     0.538599     0.348314    Uiso  ? N
   N22        1.0     0.776391     0.430419     0.093657    Uiso  ? N
   N23        1.0     0.555327     0.539041     0.843959    Uiso  ? N
   N24        1.0     0.446612     0.426695     0.594118    Uiso  ? N
   N25        1.0     0.231744     0.856454     0.344725    Uiso  ? N
   N26        1.0     0.102934     0.774129     0.096668    Uiso  ? N
   N27        1.0     0.887412     0.871643     0.843718    Uiso  ? N
   N28        1.0     0.777282     0.761359     0.594009    Uiso  ? N
   N29        1.0     0.554601     0.872699     0.346261    Uiso  ? N
   N30        1.0     0.446676     0.759996     0.094124    Uiso  ? N
   N31        1.0     0.223839     0.871060     0.850251    Uiso  ? N
   N32        1.0     0.110157     0.763286     0.597339    Uiso  ? N
   N33        1.0     0.887818     0.873582     0.348314    Uiso  ? N
   N34        1.0     0.777755     0.761123     0.097927    Uiso  ? N
   N35        1.0     0.557177     0.871411     0.845724    Uiso  ? N
   N36        1.0     0.444667     0.761295     0.598108    Uiso  ? N
