
#======================================================================
# CRYSTAL DATA
#----------------------------------------------------------------------
data_VESTA_phase_1

_chemical_name_common                  'Hf   Al   Mg   N                      '
_cell_length_a                         9.461586
_cell_length_b                         9.458230
_cell_length_c                         10.045669
_cell_angle_alpha                      89.999771
_cell_angle_beta                       89.998772
_cell_angle_gamma                      60.013386
_cell_volume                           778.649224
_space_group_name_H-M_alt              'P 1'
_space_group_IT_number                 1

loop_
_space_group_symop_operation_xyz
   'x, y, z'

loop_
   _atom_site_label
   _atom_site_occupancy
   _atom_site_fract_x
   _atom_site_fract_y
   _atom_site_fract_z
   _atom_site_adp_type
   _atom_site_U_iso_or_equiv
   _atom_site_type_symbol
   Hf1        1.0     0.110754     0.094621     0.376598    Uiso  ? Hf
   Al1        1.0     0.224203     0.210086     0.128957    Uiso  ? Al
   Al2        1.0     0.776591     0.093098     0.886218    Uiso  ? Al
   Al3        1.0     0.885257     0.207372     0.640864    Uiso  ? Al
   Al4        1.0     0.449812     0.094729     0.385714    Uiso  ? Al
   Al5        1.0     0.556144     0.206738     0.134212    Uiso  ? Al
   Al6        1.0     0.111678     0.094160     0.889698    Uiso  ? Al
   Al7        1.0     0.224174     0.206853     0.640737    Uiso  ? Al
   Al8        1.0     0.772077     0.094523     0.385804    Uiso  ? Al
   Al9        1.0     0.881403     0.209300     0.128580    Uiso  ? Al
   Al10       1.0     0.446326     0.093600     0.885570    Uiso  ? Al
   Al11       1.0     0.555625     0.205911     0.636152    Uiso  ? Al
   Al12       1.0     0.111575     0.433562     0.387833    Uiso  ? Al
   Al13       1.0     0.776591     0.430310     0.886218    Uiso  ? Al
   Al14       1.0     0.888248     0.539412     0.635853    Uiso  ? Al
   Al15       1.0     0.443342     0.428328     0.386496    Uiso  ? Al
   Al16       1.0     0.556144     0.537118     0.134212    Uiso  ? Al
   Al17       1.0     0.109385     0.428953     0.885870    Uiso  ? Al
   Al18       1.0     0.223125     0.538438     0.635037    Uiso  ? Al
   Al19       1.0     0.772077     0.433399     0.385804    Uiso  ? Al
   Al20       1.0     0.889713     0.537655     0.134299    Uiso  ? Al
   Al21       1.0     0.446026     0.426986     0.886363    Uiso  ? Al
   Al22       1.0     0.555625     0.538465     0.636153    Uiso  ? Al
   Al23       1.0     0.111575     0.754861     0.387833    Uiso  ? Al
   Al24       1.0     0.224203     0.865712     0.128958    Uiso  ? Al
   Al25       1.0     0.778047     0.760976     0.885984    Uiso  ? Al
   Al26       1.0     0.888248     0.872341     0.635852    Uiso  ? Al
   Al27       1.0     0.449813     0.755457     0.385714    Uiso  ? Al
   Al28       1.0     0.556000     0.872001     0.134698    Uiso  ? Al
   Al29       1.0     0.109385     0.761660     0.885870    Uiso  ? Al
   Al30       1.0     0.224174     0.868974     0.640737    Uiso  ? Al
   Al31       1.0     0.778239     0.760880     0.384716    Uiso  ? Al
   Al32       1.0     0.889712     0.872634     0.134299    Uiso  ? Al
   Al33       1.0     0.446326     0.760072     0.885569    Uiso  ? Al
   Al34       1.0     0.556255     0.871873     0.635763    Uiso  ? Al
   Mg1        1.0     0.222456     0.538773     0.133874    Uiso  ? Mg
   N1         1.0     0.231761     0.214766     0.321769    Uiso  ? N
   N2         1.0     0.111385     0.094306     0.086072    Uiso  ? N
   N3         1.0     0.888933     0.205535     0.830944    Uiso  ? N
   N4         1.0     0.778187     0.094895     0.576735    Uiso  ? N
   N5         1.0     0.555285     0.206163     0.326551    Uiso  ? N
   N6         1.0     0.446401     0.093358     0.075852    Uiso  ? N
   N7         1.0     0.223224     0.204036     0.829492    Uiso  ? N
   N8         1.0     0.110773     0.094612     0.584569    Uiso  ? N
   N9         1.0     0.869484     0.215260     0.320866    Uiso  ? N
   N10        1.0     0.776467     0.093124     0.075871    Uiso  ? N
   N11        1.0     0.556022     0.204465     0.825292    Uiso  ? N
   N12        1.0     0.444107     0.094424     0.576652    Uiso  ? N
   N13        1.0     0.223224     0.538390     0.339795    Uiso  ? N
   N14        1.0     0.102479     0.422672     0.071346    Uiso  ? N
   N15        1.0     0.887346     0.540131     0.825192    Uiso  ? N
   N16        1.0     0.778187     0.426916     0.576736    Uiso  ? N
   N17        1.0     0.555285     0.538555     0.326551    Uiso  ? N
   N18        1.0     0.459330     0.420333     0.072718    Uiso  ? N
   N19        1.0     0.222652     0.538676     0.826496    Uiso  ? N
   N20        1.0     0.110463     0.426203     0.579176    Uiso  ? N
   N21        1.0     0.889316     0.537828     0.327573    Uiso  ? N
   N22        1.0     0.776467     0.430407     0.075871    Uiso  ? N
   N23        1.0     0.556022     0.539516     0.825292    Uiso  ? N
   N24        1.0     0.446436     0.426780     0.578166    Uiso  ? N
   N25        1.0     0.231762     0.853475     0.321768    Uiso  ? N
   N26        1.0     0.102478     0.774847     0.071346    Uiso  ? N
   N27        1.0     0.887346     0.872527     0.825192    Uiso  ? N
   N28        1.0     0.777612     0.761193     0.575490    Uiso  ? N
   N29        1.0     0.554803     0.872600     0.326968    Uiso  ? N
   N30        1.0     0.446401     0.760237     0.075851    Uiso  ? N
   N31        1.0     0.223224     0.872743     0.829492    Uiso  ? N
   N32        1.0     0.110463     0.763330     0.579176    Uiso  ? N
   N33        1.0     0.889317     0.872860     0.327573    Uiso  ? N
   N34        1.0     0.777574     0.761212     0.077505    Uiso  ? N
   N35        1.0     0.556108     0.871947     0.826269    Uiso  ? N
   N36        1.0     0.444107     0.761466     0.576652    Uiso  ? N
