
#======================================================================
# CRYSTAL DATA
#----------------------------------------------------------------------
data_VESTA_phase_1

_chemical_name_common                  'Hf   Al   Mg   N                      '
_cell_length_a                         9.566115
_cell_length_b                         9.560911
_cell_length_c                         9.761714
_cell_angle_alpha                      90.000008
_cell_angle_beta                       89.996216
_cell_angle_gamma                      60.019836
_cell_volume                           773.354081
_space_group_name_H-M_alt              'P 1'
_space_group_IT_number                 1

loop_
_space_group_symop_operation_xyz
   'x, y, z'

loop_
   _atom_site_label
   _atom_site_occupancy
   _atom_site_fract_x
   _atom_site_fract_y
   _atom_site_fract_z
   _atom_site_adp_type
   _atom_site_U_iso_or_equiv
   _atom_site_type_symbol
   Hf1        1.0     0.110456     0.094770     0.364991    Uiso  ? Hf
   Al1        1.0     0.225633     0.210638     0.124624    Uiso  ? Al
   Al2        1.0     0.776326     0.092578     0.881697    Uiso  ? Al
   Al3        1.0     0.886471     0.206765     0.637021    Uiso  ? Al
   Al4        1.0     0.449688     0.094548     0.382720    Uiso  ? Al
   Al5        1.0     0.556680     0.205949     0.131327    Uiso  ? Al
   Al6        1.0     0.111810     0.094094     0.887657    Uiso  ? Al
   Al7        1.0     0.223450     0.206465     0.636251    Uiso  ? Al
   Al8        1.0     0.772167     0.094860     0.382853    Uiso  ? Al
   Al9        1.0     0.878891     0.210556     0.123487    Uiso  ? Al
   Al10       1.0     0.446769     0.093335     0.881166    Uiso  ? Al
   Al11       1.0     0.555311     0.206503     0.632086    Uiso  ? Al
   Al12       1.0     0.111893     0.433229     0.383225    Uiso  ? Al
   Al13       1.0     0.776326     0.431094     0.881697    Uiso  ? Al
   Al14       1.0     0.888422     0.539468     0.631358    Uiso  ? Al
   Al15       1.0     0.443284     0.428357     0.381241    Uiso  ? Al
   Al16       1.0     0.556680     0.537372     0.131327    Uiso  ? Al
   Al17       1.0     0.108895     0.429445     0.881933    Uiso  ? Al
   Al18       1.0     0.223438     0.538282     0.629645    Uiso  ? Al
   Al19       1.0     0.772168     0.432972     0.382853    Uiso  ? Al
   Al20       1.0     0.889207     0.537744     0.131430    Uiso  ? Al
   Al21       1.0     0.446147     0.426926     0.883504    Uiso  ? Al
   Al22       1.0     0.555311     0.538187     0.632086    Uiso  ? Al
   Al23       1.0     0.111894     0.754875     0.383225    Uiso  ? Al
   Al24       1.0     0.225633     0.863731     0.124624    Uiso  ? Al
   Al25       1.0     0.778188     0.760905     0.882626    Uiso  ? Al
   Al26       1.0     0.888422     0.872112     0.631358    Uiso  ? Al
   Al27       1.0     0.449688     0.755763     0.382720    Uiso  ? Al
   Al28       1.0     0.556012     0.871995     0.131078    Uiso  ? Al
   Al29       1.0     0.108895     0.761658     0.881933    Uiso  ? Al
   Al30       1.0     0.223450     0.870087     0.636251    Uiso  ? Al
   Al31       1.0     0.777957     0.761021     0.380626    Uiso  ? Al
   Al32       1.0     0.889207     0.873051     0.131430    Uiso  ? Al
   Al33       1.0     0.446769     0.759895     0.881166    Uiso  ? Al
   Al34       1.0     0.556472     0.871765     0.632053    Uiso  ? Al
   Mg1        1.0     0.222341     0.538831     0.127984    Uiso  ? Mg
   N1         1.0     0.232952     0.215033     0.322433    Uiso  ? N
   N2         1.0     0.111388     0.094305     0.090703    Uiso  ? N
   N3         1.0     0.889689     0.205157     0.832806    Uiso  ? N
   N4         1.0     0.778215     0.095134     0.578306    Uiso  ? N
   N5         1.0     0.555595     0.205376     0.327945    Uiso  ? N
   N6         1.0     0.446990     0.093136     0.076133    Uiso  ? N
   N7         1.0     0.222882     0.203659     0.830793    Uiso  ? N
   N8         1.0     0.110545     0.094727     0.580781    Uiso  ? N
   N9         1.0     0.867500     0.216252     0.321030    Uiso  ? N
   N10        1.0     0.776113     0.092750     0.076032    Uiso  ? N
   N11        1.0     0.555768     0.204852     0.825906    Uiso  ? N
   N12        1.0     0.444060     0.094387     0.578171    Uiso  ? N
   N13        1.0     0.222989     0.538507     0.340030    Uiso  ? N
   N14        1.0     0.101866     0.422932     0.072666    Uiso  ? N
   N15        1.0     0.887197     0.540634     0.825481    Uiso  ? N
   N16        1.0     0.778214     0.426649     0.578306    Uiso  ? N
   N17        1.0     0.555595     0.539032     0.327945    Uiso  ? N
   N18        1.0     0.460031     0.419983     0.075226    Uiso  ? N
   N19        1.0     0.222932     0.538535     0.827211    Uiso  ? N
   N20        1.0     0.110532     0.425986     0.579612    Uiso  ? N
   N21        1.0     0.889046     0.537717     0.328862    Uiso  ? N
   N22        1.0     0.776113     0.431135     0.076032    Uiso  ? N
   N23        1.0     0.555768     0.539382     0.825906    Uiso  ? N
   N24        1.0     0.446560     0.426719     0.577837    Uiso  ? N
   N25        1.0     0.232953     0.852016     0.322432    Uiso  ? N
   N26        1.0     0.101866     0.775200     0.072666    Uiso  ? N
   N27        1.0     0.887196     0.872172     0.825481    Uiso  ? N
   N28        1.0     0.777444     0.761277     0.575789    Uiso  ? N
   N29        1.0     0.554552     0.872725     0.327796    Uiso  ? N
   N30        1.0     0.446991     0.759871     0.076133    Uiso  ? N
   N31        1.0     0.222882     0.873462     0.830793    Uiso  ? N
   N32        1.0     0.110532     0.763479     0.579612    Uiso  ? N
   N33        1.0     0.889046     0.873240     0.328862    Uiso  ? N
   N34        1.0     0.777692     0.761153     0.078941    Uiso  ? N
   N35        1.0     0.556621     0.871691     0.827120    Uiso  ? N
   N36        1.0     0.444060     0.761550     0.578171    Uiso  ? N
