
#======================================================================
# CRYSTAL DATA
#----------------------------------------------------------------------
data_VESTA_phase_1

_chemical_name_common                  'Hf   Al   Mg   N                      '
_cell_length_a                         9.895260
_cell_length_b                         9.888578
_cell_length_c                         8.756458
_cell_angle_alpha                      90.000000
_cell_angle_beta                       89.992508
_cell_angle_gamma                      60.021275
_cell_volume                           742.186820
_space_group_name_H-M_alt              'P 1'
_space_group_IT_number                 1

loop_
_space_group_symop_operation_xyz
   'x, y, z'

loop_
   _atom_site_label
   _atom_site_occupancy
   _atom_site_fract_x
   _atom_site_fract_y
   _atom_site_fract_z
   _atom_site_adp_type
   _atom_site_U_iso_or_equiv
   _atom_site_type_symbol
   Hf1        1.0     0.110576     0.094713     0.354108    Uiso  ? Hf
   Al1        1.0     0.225519     0.208160     0.103439    Uiso  ? Al
   Al2        1.0     0.775411     0.091829     0.865917    Uiso  ? Al
   Al3        1.0     0.883927     0.208036     0.626276    Uiso  ? Al
   Al4        1.0     0.448833     0.093953     0.368475    Uiso  ? Al
   Al5        1.0     0.557470     0.204481     0.117874    Uiso  ? Al
   Al6        1.0     0.111600     0.094201     0.863980    Uiso  ? Al
   Al7        1.0     0.224167     0.208882     0.623994    Uiso  ? Al
   Al8        1.0     0.773333     0.094907     0.368863    Uiso  ? Al
   Al9        1.0     0.880302     0.209848     0.102914    Uiso  ? Al
   Al10       1.0     0.448373     0.092742     0.865511    Uiso  ? Al
   Al11       1.0     0.554569     0.207928     0.616684    Uiso  ? Al
   Al12       1.0     0.111668     0.431642     0.361869    Uiso  ? Al
   Al13       1.0     0.775411     0.432761     0.865917    Uiso  ? Al
   Al14       1.0     0.889500     0.539106     0.615168    Uiso  ? Al
   Al15       1.0     0.444239     0.427881     0.361646    Uiso  ? Al
   Al16       1.0     0.557470     0.538048     0.117874    Uiso  ? Al
   Al17       1.0     0.108587     0.431790     0.868868    Uiso  ? Al
   Al18       1.0     0.223572     0.538214     0.608661    Uiso  ? Al
   Al19       1.0     0.773333     0.431761     0.368863    Uiso  ? Al
   Al20       1.0     0.887585     0.538322     0.118272    Uiso  ? Al
   Al21       1.0     0.444965     0.427518     0.870922    Uiso  ? Al
   Al22       1.0     0.554569     0.537503     0.616684    Uiso  ? Al
   Al23       1.0     0.111668     0.756691     0.361868    Uiso  ? Al
   Al24       1.0     0.225519     0.866320     0.103438    Uiso  ? Al
   Al25       1.0     0.778404     0.760798     0.867775    Uiso  ? Al
   Al26       1.0     0.889500     0.871393     0.615168    Uiso  ? Al
   Al27       1.0     0.448833     0.757215     0.368475    Uiso  ? Al
   Al28       1.0     0.555884     0.872058     0.116407    Uiso  ? Al
   Al29       1.0     0.108587     0.759624     0.868868    Uiso  ? Al
   Al30       1.0     0.224167     0.866951     0.623994    Uiso  ? Al
   Al31       1.0     0.777295     0.761353     0.366108    Uiso  ? Al
   Al32       1.0     0.887585     0.874091     0.118272    Uiso  ? Al
   Al33       1.0     0.448373     0.758887     0.865512    Uiso  ? Al
   Al34       1.0     0.556709     0.871645     0.617434    Uiso  ? Al
   Mg1        1.0     0.222899     0.538550     0.110905    Uiso  ? Mg
   N1         1.0     0.232112     0.211975     0.339732    Uiso  ? N
   N2         1.0     0.111203     0.094400     0.095119    Uiso  ? N
   N3         1.0     0.887673     0.206163     0.849859    Uiso  ? N
   N4         1.0     0.778066     0.095245     0.594682    Uiso  ? N
   N5         1.0     0.556188     0.203878     0.344319    Uiso  ? N
   N6         1.0     0.447125     0.093111     0.090462    Uiso  ? N
   N7         1.0     0.223708     0.205057     0.848061    Uiso  ? N
   N8         1.0     0.110199     0.094902     0.603607    Uiso  ? N
   N9         1.0     0.870783     0.214607     0.336750    Uiso  ? N
   N10        1.0     0.776191     0.092909     0.090059    Uiso  ? N
   N11        1.0     0.555256     0.205776     0.840327    Uiso  ? N
   N12        1.0     0.444322     0.094197     0.594737    Uiso  ? N
   N13        1.0     0.222635     0.538681     0.356908    Uiso  ? N
   N14        1.0     0.102481     0.423276     0.092910    Uiso  ? N
   N15        1.0     0.887420     0.541042     0.839861    Uiso  ? N
   N16        1.0     0.778066     0.426691     0.594682    Uiso  ? N
   N17        1.0     0.556188     0.539932     0.344319    Uiso  ? N
   N18        1.0     0.459165     0.420419     0.095361    Uiso  ? N
   N19        1.0     0.223220     0.538389     0.839819    Uiso  ? N
   N20        1.0     0.110314     0.426119     0.593511    Uiso  ? N
   N21        1.0     0.887780     0.538475     0.345106    Uiso  ? N
   N22        1.0     0.776191     0.430901     0.090059    Uiso  ? N
   N23        1.0     0.555256     0.538967     0.840327    Uiso  ? N
   N24        1.0     0.446746     0.426628     0.590351    Uiso  ? N
   N25        1.0     0.232112     0.855911     0.339732    Uiso  ? N
   N26        1.0     0.102481     0.774245     0.092910    Uiso  ? N
   N27        1.0     0.887420     0.871536     0.839861    Uiso  ? N
   N28        1.0     0.777228     0.761387     0.590291    Uiso  ? N
   N29        1.0     0.554472     0.872763     0.342887    Uiso  ? N
   N30        1.0     0.447125     0.759766     0.090463    Uiso  ? N
   N31        1.0     0.223708     0.871233     0.848061    Uiso  ? N
   N32        1.0     0.110314     0.763569     0.593511    Uiso  ? N
   N33        1.0     0.887779     0.873743     0.345106    Uiso  ? N
   N34        1.0     0.777782     0.761110     0.094716    Uiso  ? N
   N35        1.0     0.557297     0.871350     0.842158    Uiso  ? N
   N36        1.0     0.444321     0.761484     0.594736    Uiso  ? N
