
#======================================================================
# CRYSTAL DATA
#----------------------------------------------------------------------
data_VESTA_phase_1

_chemical_name_common                  'Hf   Al   Mg   N                      '
_cell_length_a                         9.618894
_cell_length_b                         9.613132
_cell_length_c                         9.610398
_cell_angle_alpha                      90.000008
_cell_angle_beta                       89.995148
_cell_angle_gamma                      60.020718
_cell_volume                           769.755309
_space_group_name_H-M_alt              'P 1'
_space_group_IT_number                 1

loop_
_space_group_symop_operation_xyz
   'x, y, z'

loop_
   _atom_site_label
   _atom_site_occupancy
   _atom_site_fract_x
   _atom_site_fract_y
   _atom_site_fract_z
   _atom_site_adp_type
   _atom_site_U_iso_or_equiv
   _atom_site_type_symbol
   Hf1        1.0     0.110376     0.094811     0.361911    Uiso  ? Hf
   Al1        1.0     0.225965     0.210503     0.122437    Uiso  ? Al
   Al2        1.0     0.776111     0.092305     0.880018    Uiso  ? Al
   Al3        1.0     0.886564     0.206718     0.636158    Uiso  ? Al
   Al4        1.0     0.449487     0.094473     0.381552    Uiso  ? Al
   Al5        1.0     0.556920     0.205580     0.130311    Uiso  ? Al
   Al6        1.0     0.111860     0.094070     0.886055    Uiso  ? Al
   Al7        1.0     0.223315     0.206584     0.635126    Uiso  ? Al
   Al8        1.0     0.772365     0.095008     0.381710    Uiso  ? Al
   Al9        1.0     0.878466     0.210767     0.120956    Uiso  ? Al
   Al10       1.0     0.447124     0.093183     0.879552    Uiso  ? Al
   Al11       1.0     0.555166     0.206787     0.630469    Uiso  ? Al
   Al12       1.0     0.111956     0.432880     0.381166    Uiso  ? Al
   Al13       1.0     0.776111     0.431582     0.880018    Uiso  ? Al
   Al14       1.0     0.888561     0.539443     0.629566    Uiso  ? Al
   Al15       1.0     0.443431     0.428284     0.379064    Uiso  ? Al
   Al16       1.0     0.556920     0.537501     0.130311    Uiso  ? Al
   Al17       1.0     0.108683     0.429904     0.880748    Uiso  ? Al
   Al18       1.0     0.223536     0.538232     0.626923    Uiso  ? Al
   Al19       1.0     0.772365     0.432625     0.381710    Uiso  ? Al
   Al20       1.0     0.888903     0.537839     0.130487    Uiso  ? Al
   Al21       1.0     0.446067     0.426966     0.882545    Uiso  ? Al
   Al22       1.0     0.555166     0.538048     0.630469    Uiso  ? Al
   Al23       1.0     0.111956     0.755164     0.381166    Uiso  ? Al
   Al24       1.0     0.225965     0.863533     0.122437    Uiso  ? Al
   Al25       1.0     0.778263     0.760868     0.881350    Uiso  ? Al
   Al26       1.0     0.888561     0.871997     0.629566    Uiso  ? Al
   Al27       1.0     0.449487     0.756040     0.381551    Uiso  ? Al
   Al28       1.0     0.556006     0.871997     0.129742    Uiso  ? Al
   Al29       1.0     0.108683     0.761412     0.880748    Uiso  ? Al
   Al30       1.0     0.223315     0.870102     0.635126    Uiso  ? Al
   Al31       1.0     0.777780     0.761109     0.379106    Uiso  ? Al
   Al32       1.0     0.888903     0.873258     0.130487    Uiso  ? Al
   Al33       1.0     0.447124     0.759692     0.879552    Uiso  ? Al
   Al34       1.0     0.556536     0.871733     0.630619    Uiso  ? Al
   Mg1        1.0     0.222370     0.538815     0.125880    Uiso  ? Mg
   N1         1.0     0.233104     0.214707     0.323741    Uiso  ? N
   N2         1.0     0.111395     0.094302     0.092217    Uiso  ? N
   N3         1.0     0.889615     0.205193     0.835082    Uiso  ? N
   N4         1.0     0.778263     0.095264     0.580117    Uiso  ? N
   N5         1.0     0.555753     0.205002     0.329724    Uiso  ? N
   N6         1.0     0.447255     0.093022     0.077420    Uiso  ? N
   N7         1.0     0.222912     0.203760     0.832868    Uiso  ? N
   N8         1.0     0.110458     0.094771     0.582119    Uiso  ? N
   N9         1.0     0.867473     0.216264     0.322115    Uiso  ? N
   N10        1.0     0.775995     0.092597     0.077263    Uiso  ? N
   N11        1.0     0.555642     0.205056     0.827243    Uiso  ? N
   N12        1.0     0.443961     0.094419     0.579958    Uiso  ? N
   N13        1.0     0.222904     0.538549     0.341817    Uiso  ? N
   N14        1.0     0.101680     0.423143     0.074733    Uiso  ? N
   N15        1.0     0.887192     0.540817     0.826707    Uiso  ? N
   N16        1.0     0.778263     0.426471     0.580117    Uiso  ? N
   N17        1.0     0.555753     0.539246     0.329724    Uiso  ? N
   N18        1.0     0.460170     0.419915     0.077601    Uiso  ? N
   N19        1.0     0.223016     0.538493     0.828433    Uiso  ? N
   N20        1.0     0.110545     0.425790     0.580794    Uiso  ? N
   N21        1.0     0.888824     0.537765     0.330628    Uiso  ? N
   N22        1.0     0.775995     0.431406     0.077263    Uiso  ? N
   N23        1.0     0.555641     0.539303     0.827243    Uiso  ? N
   N24        1.0     0.446700     0.426650     0.578733    Uiso  ? N
   N25        1.0     0.233104     0.852190     0.323741    Uiso  ? N
   N26        1.0     0.101680     0.775177     0.074733    Uiso  ? N
   N27        1.0     0.887192     0.871992     0.826707    Uiso  ? N
   N28        1.0     0.777369     0.761315     0.577064    Uiso  ? N
   N29        1.0     0.554453     0.872774     0.329304    Uiso  ? N
   N30        1.0     0.447255     0.759722     0.077420    Uiso  ? N
   N31        1.0     0.222912     0.873328     0.832869    Uiso  ? N
   N32        1.0     0.110545     0.763664     0.580794    Uiso  ? N
   N33        1.0     0.888824     0.873411     0.330628    Uiso  ? N
   N34        1.0     0.777725     0.761137     0.080682    Uiso  ? N
   N35        1.0     0.556832     0.871584     0.828585    Uiso  ? N
   N36        1.0     0.443961     0.761620     0.579958    Uiso  ? N
