
#======================================================================
# CRYSTAL DATA
#----------------------------------------------------------------------
data_VESTA_phase_1

_chemical_name_common                  'Hf   Al   Mg   N                      '
_cell_length_a                         9.455368
_cell_length_b                         9.452228
_cell_length_c                         10.061868
_cell_angle_alpha                      89.999992
_cell_angle_beta                       89.999344
_cell_angle_gamma                      60.010994
_cell_volume                           778.878910
_space_group_name_H-M_alt              'P 1'
_space_group_IT_number                 1

loop_
_space_group_symop_operation_xyz
   'x, y, z'

loop_
   _atom_site_label
   _atom_site_occupancy
   _atom_site_fract_x
   _atom_site_fract_y
   _atom_site_fract_z
   _atom_site_adp_type
   _atom_site_U_iso_or_equiv
   _atom_site_type_symbol
   Hf1        1.0     0.110790     0.094605     0.398881    Uiso  ? Hf
   Al1        1.0     0.224079     0.209997     0.150460    Uiso  ? Al
   Al2        1.0     0.776601     0.093120     0.907815    Uiso  ? Al
   Al3        1.0     0.885127     0.207437     0.662486    Uiso  ? Al
   Al4        1.0     0.449800     0.094744     0.407173    Uiso  ? Al
   Al5        1.0     0.556119     0.206786     0.155686    Uiso  ? Al
   Al6        1.0     0.111680     0.094160     0.910990    Uiso  ? Al
   Al7        1.0     0.224251     0.206914     0.662402    Uiso  ? Al
   Al8        1.0     0.772106     0.094501     0.407261    Uiso  ? Al
   Al9        1.0     0.881666     0.209167     0.150129    Uiso  ? Al
   Al10       1.0     0.446330     0.093608     0.907161    Uiso  ? Al
   Al11       1.0     0.555655     0.205865     0.657688    Uiso  ? Al
   Al12       1.0     0.111552     0.433551     0.409378    Uiso  ? Al
   Al13       1.0     0.776601     0.430279     0.907815    Uiso  ? Al
   Al14       1.0     0.888252     0.539395     0.657422    Uiso  ? Al
   Al15       1.0     0.443374     0.428313     0.408120    Uiso  ? Al
   Al16       1.0     0.556119     0.537094     0.155686    Uiso  ? Al
   Al17       1.0     0.109423     0.428954     0.907457    Uiso  ? Al
   Al18       1.0     0.223102     0.538449     0.656606    Uiso  ? Al
   Al19       1.0     0.772106     0.433393     0.407261    Uiso  ? Al
   Al20       1.0     0.889740     0.537660     0.155784    Uiso  ? Al
   Al21       1.0     0.446012     0.426994     0.907829    Uiso  ? Al
   Al22       1.0     0.555655     0.538480     0.657688    Uiso  ? Al
   Al23       1.0     0.111552     0.754897     0.409378    Uiso  ? Al
   Al24       1.0     0.224079     0.865924     0.150460    Uiso  ? Al
   Al25       1.0     0.778046     0.760977     0.907477    Uiso  ? Al
   Al26       1.0     0.888252     0.872353     0.657422    Uiso  ? Al
   Al27       1.0     0.449800     0.755456     0.407173    Uiso  ? Al
   Al28       1.0     0.556008     0.871996     0.156225    Uiso  ? Al
   Al29       1.0     0.109423     0.761623     0.907457    Uiso  ? Al
   Al30       1.0     0.224251     0.868835     0.662402    Uiso  ? Al
   Al31       1.0     0.778252     0.760874     0.406277    Uiso  ? Al
   Al32       1.0     0.889740     0.872600     0.155784    Uiso  ? Al
   Al33       1.0     0.446330     0.760062     0.907161    Uiso  ? Al
   Al34       1.0     0.556235     0.871883     0.657280    Uiso  ? Al
   Mg1        1.0     0.222493     0.538754     0.155578    Uiso  ? Mg
   N1         1.0     0.231628     0.214678     0.343064    Uiso  ? N
   N2         1.0     0.111399     0.094301     0.106910    Uiso  ? N
   N3         1.0     0.888828     0.205586     0.852230    Uiso  ? N
   N4         1.0     0.778203     0.094883     0.597983    Uiso  ? N
   N5         1.0     0.555273     0.206210     0.347820    Uiso  ? N
   N6         1.0     0.446377     0.093366     0.097203    Uiso  ? N
   N7         1.0     0.223281     0.204099     0.850820    Uiso  ? N
   N8         1.0     0.110797     0.094601     0.606449    Uiso  ? N
   N9         1.0     0.869755     0.215122     0.342194    Uiso  ? N
   N10        1.0     0.776506     0.093141     0.097229    Uiso  ? N
   N11        1.0     0.556046     0.204434     0.846599    Uiso  ? N
   N12        1.0     0.444099     0.094435     0.597902    Uiso  ? N
   N13        1.0     0.223250     0.538375     0.361190    Uiso  ? N
   N14        1.0     0.102534     0.422671     0.092667    Uiso  ? N
   N15        1.0     0.887371     0.540088     0.846529    Uiso  ? N
   N16        1.0     0.778203     0.426914     0.597983    Uiso  ? N
   N17        1.0     0.555273     0.538517     0.347820    Uiso  ? N
   N18        1.0     0.459282     0.420359     0.093914    Uiso  ? N
   N19        1.0     0.222631     0.538684     0.847776    Uiso  ? N
   N20        1.0     0.110465     0.426197     0.600478    Uiso  ? N
   N21        1.0     0.889321     0.537850     0.348854    Uiso  ? N
   N22        1.0     0.776506     0.430354     0.097229    Uiso  ? N
   N23        1.0     0.556046     0.539520     0.846599    Uiso  ? N
   N24        1.0     0.446449     0.426776     0.599537    Uiso  ? N
   N25        1.0     0.231628     0.853694     0.343064    Uiso  ? N
   N26        1.0     0.102534     0.774796     0.092667    Uiso  ? N
   N27        1.0     0.887371     0.872542     0.846529    Uiso  ? N
   N28        1.0     0.777628     0.761186     0.596835    Uiso  ? N
   N29        1.0     0.554824     0.872588     0.348274    Uiso  ? N
   N30        1.0     0.446377     0.760257     0.097203    Uiso  ? N
   N31        1.0     0.223281     0.872621     0.850820    Uiso  ? N
   N32        1.0     0.110465     0.763338     0.600478    Uiso  ? N
   N33        1.0     0.889321     0.872829     0.348854    Uiso  ? N
   N34        1.0     0.777570     0.761215     0.098761    Uiso  ? N
   N35        1.0     0.556075     0.871963     0.847565    Uiso  ? N
   N36        1.0     0.444099     0.761466     0.597902    Uiso  ? N
