
#======================================================================
# CRYSTAL DATA
#----------------------------------------------------------------------
data_VESTA_phase_1

_chemical_name_common                  'Hf   Al   Mg   N                      '
_cell_length_a                         9.669854
_cell_length_b                         9.663679
_cell_length_c                         9.460007
_cell_angle_alpha                      90.000008
_cell_angle_beta                       89.994232
_cell_angle_gamma                      60.021156
_cell_volume                           765.732437
_space_group_name_H-M_alt              'P 1'
_space_group_IT_number                 1

loop_
_space_group_symop_operation_xyz
   'x, y, z'

loop_
   _atom_site_label
   _atom_site_occupancy
   _atom_site_fract_x
   _atom_site_fract_y
   _atom_site_fract_z
   _atom_site_adp_type
   _atom_site_U_iso_or_equiv
   _atom_site_type_symbol
   Hf1        1.0     0.110330     0.094836     0.359609    Uiso  ? Hf
   Al1        1.0     0.226125     0.210212     0.119875    Uiso  ? Al
   Al2        1.0     0.775893     0.092065     0.878186    Uiso  ? Al
   Al3        1.0     0.886430     0.206785     0.635237    Uiso  ? Al
   Al4        1.0     0.449279     0.094395     0.380146    Uiso  ? Al
   Al5        1.0     0.557131     0.205235     0.129064    Uiso  ? Al
   Al6        1.0     0.111884     0.094058     0.883734    Uiso  ? Al
   Al7        1.0     0.223285     0.206836     0.633980    Uiso  ? Al
   Al8        1.0     0.772582     0.095122     0.380333    Uiso  ? Al
   Al9        1.0     0.878387     0.210806     0.118127    Uiso  ? Al
   Al10       1.0     0.447487     0.093042     0.877783    Uiso  ? Al
   Al11       1.0     0.555024     0.207067     0.628673    Uiso  ? Al
   Al12       1.0     0.111970     0.432512     0.378809    Uiso  ? Al
   Al13       1.0     0.775893     0.432041     0.878187    Uiso  ? Al
   Al14       1.0     0.888718     0.539408     0.627611    Uiso  ? Al
   Al15       1.0     0.443626     0.428187     0.376675    Uiso  ? Al
   Al16       1.0     0.557131     0.537635     0.129064    Uiso  ? Al
   Al17       1.0     0.108510     0.430390     0.879468    Uiso  ? Al
   Al18       1.0     0.223613     0.538194     0.623868    Uiso  ? Al
   Al19       1.0     0.772582     0.432295     0.380333    Uiso  ? Al
   Al20       1.0     0.888603     0.537931     0.129322    Uiso  ? Al
   Al21       1.0     0.445935     0.427033     0.881398    Uiso  ? Al
   Al22       1.0     0.555024     0.537910     0.628673    Uiso  ? Al
   Al23       1.0     0.111970     0.755518     0.378809    Uiso  ? Al
   Al24       1.0     0.226125     0.863663     0.119875    Uiso  ? Al
   Al25       1.0     0.778334     0.760832     0.879860    Uiso  ? Al
   Al26       1.0     0.888718     0.871874     0.627611    Uiso  ? Al
   Al27       1.0     0.449279     0.756326     0.380146    Uiso  ? Al
   Al28       1.0     0.555984     0.872009     0.128206    Uiso  ? Al
   Al29       1.0     0.108510     0.761101     0.879468    Uiso  ? Al
   Al30       1.0     0.223285     0.869880     0.633980    Uiso  ? Al
   Al31       1.0     0.777614     0.761193     0.377425    Uiso  ? Al
   Al32       1.0     0.888603     0.873465     0.129322    Uiso  ? Al
   Al33       1.0     0.447487     0.759472     0.877784    Uiso  ? Al
   Al34       1.0     0.556599     0.871701     0.629001    Uiso  ? Al
   Mg1        1.0     0.222417     0.538792     0.123716    Uiso  ? Mg
   N1         1.0     0.233117     0.214256     0.325243    Uiso  ? N
   N2         1.0     0.111389     0.094306     0.093150    Uiso  ? N
   N3         1.0     0.889391     0.205304     0.837530    Uiso  ? N
   N4         1.0     0.778300     0.095370     0.582074    Uiso  ? N
   N5         1.0     0.555898     0.204658     0.331660    Uiso  ? N
   N6         1.0     0.447464     0.092929     0.078894    Uiso  ? N
   N7         1.0     0.223005     0.203953     0.835171    Uiso  ? N
   N8         1.0     0.110391     0.094805     0.584415    Uiso  ? N
   N9         1.0     0.867746     0.216126     0.323432    Uiso  ? N
   N10        1.0     0.775916     0.092492     0.078689    Uiso  ? N
   N11        1.0     0.555521     0.205262     0.828746    Uiso  ? N
   N12        1.0     0.443877     0.094447     0.581896    Uiso  ? N
   N13        1.0     0.222833     0.538584     0.344007    Uiso  ? N
   N14        1.0     0.101580     0.423338     0.077082    Uiso  ? N
   N15        1.0     0.887214     0.540959     0.828120    Uiso  ? N
   N16        1.0     0.778300     0.426330     0.582073    Uiso  ? N
   N17        1.0     0.555898     0.539444     0.331660    Uiso  ? N
   N18        1.0     0.460193     0.419904     0.080165    Uiso  ? N
   N19        1.0     0.223083     0.538458     0.829790    Uiso  ? N
   N20        1.0     0.110543     0.425619     0.582125    Uiso  ? N
   N21        1.0     0.888590     0.537846     0.332565    Uiso  ? N
   N22        1.0     0.775916     0.431592     0.078689    Uiso  ? N
   N23        1.0     0.555521     0.539217     0.828746    Uiso  ? N
   N24        1.0     0.446836     0.426582     0.579820    Uiso  ? N
   N25        1.0     0.233116     0.852627     0.325243    Uiso  ? N
   N26        1.0     0.101581     0.775082     0.077083    Uiso  ? N
   N27        1.0     0.887214     0.871826     0.828121    Uiso  ? N
   N28        1.0     0.777306     0.761347     0.578536    Uiso  ? N
   N29        1.0     0.554378     0.872811     0.330989    Uiso  ? N
   N30        1.0     0.447464     0.759607     0.078894    Uiso  ? N
   N31        1.0     0.223005     0.873041     0.835171    Uiso  ? N
   N32        1.0     0.110543     0.763839     0.582125    Uiso  ? N
   N33        1.0     0.888590     0.873563     0.332565    Uiso  ? N
   N34        1.0     0.777751     0.761124     0.082561    Uiso  ? N
   N35        1.0     0.557015     0.871492     0.830211    Uiso  ? N
   N36        1.0     0.443877     0.761676     0.581896    Uiso  ? N
