
#======================================================================
# CRYSTAL DATA
#----------------------------------------------------------------------
data_VESTA_phase_1

_chemical_name_common                  'Hf   Al   Mg   N                      '
_cell_length_a                         10.005973
_cell_length_b                         10.001423
_cell_length_c                         8.425487
_cell_angle_alpha                      90.000000
_cell_angle_beta                       89.997383
_cell_angle_gamma                      60.015068
_cell_volume                           730.319092
_space_group_name_H-M_alt              'P 1'
_space_group_IT_number                 1

loop_
_space_group_symop_operation_xyz
   'x, y, z'

loop_
   _atom_site_label
   _atom_site_occupancy
   _atom_site_fract_x
   _atom_site_fract_y
   _atom_site_fract_z
   _atom_site_adp_type
   _atom_site_U_iso_or_equiv
   _atom_site_type_symbol
   Hf1        1.0     0.111138     0.094431     0.354606    Uiso  ? Hf
   Al1        1.0     0.224844     0.207914     0.094197    Uiso  ? Al
   Al2        1.0     0.775947     0.092463     0.854312    Uiso  ? Al
   Al3        1.0     0.881820     0.209090     0.613946    Uiso  ? Al
   Al4        1.0     0.448998     0.094159     0.354883    Uiso  ? Al
   Al5        1.0     0.556843     0.205580     0.103527    Uiso  ? Al
   Al6        1.0     0.111338     0.094331     0.853856    Uiso  ? Al
   Al7        1.0     0.225303     0.209782     0.612968    Uiso  ? Al
   Al8        1.0     0.773212     0.094154     0.355145    Uiso  ? Al
   Al9        1.0     0.881448     0.209276     0.095871    Uiso  ? Al
   Al10       1.0     0.447843     0.092587     0.853836    Uiso  ? Al
   Al11       1.0     0.554940     0.207164     0.605540    Uiso  ? Al
   Al12       1.0     0.111216     0.432118     0.350462    Uiso  ? Al
   Al13       1.0     0.775947     0.431590     0.854312    Uiso  ? Al
   Al14       1.0     0.889446     0.538836     0.604681    Uiso  ? Al
   Al15       1.0     0.444327     0.427837     0.351154    Uiso  ? Al
   Al16       1.0     0.556843     0.537578     0.103527    Uiso  ? Al
   Al17       1.0     0.109477     0.431315     0.857277    Uiso  ? Al
   Al18       1.0     0.222968     0.538516     0.604999    Uiso  ? Al
   Al19       1.0     0.773212     0.432634     0.355145    Uiso  ? Al
   Al20       1.0     0.887958     0.538392     0.104202    Uiso  ? Al
   Al21       1.0     0.444098     0.427951     0.858005    Uiso  ? Al
   Al22       1.0     0.554940     0.537896     0.605540    Uiso  ? Al
   Al23       1.0     0.111216     0.756666     0.350463    Uiso  ? Al
   Al24       1.0     0.224844     0.867243     0.094197    Uiso  ? Al
   Al25       1.0     0.777840     0.761080     0.854114    Uiso  ? Al
   Al26       1.0     0.889446     0.871718     0.604681    Uiso  ? Al
   Al27       1.0     0.448998     0.756843     0.354883    Uiso  ? Al
   Al28       1.0     0.556217     0.871892     0.104266    Uiso  ? Al
   Al29       1.0     0.109477     0.759207     0.857277    Uiso  ? Al
   Al30       1.0     0.225303     0.864916     0.612968    Uiso  ? Al
   Al31       1.0     0.777920     0.761040     0.354920    Uiso  ? Al
   Al32       1.0     0.887958     0.873649     0.104202    Uiso  ? Al
   Al33       1.0     0.447843     0.759570     0.853836    Uiso  ? Al
   Al34       1.0     0.556287     0.871856     0.604742    Uiso  ? Al
   Mg1        1.0     0.223289     0.538356     0.103688    Uiso  ? Mg
   N1         1.0     0.231006     0.211958     0.356592    Uiso  ? N
   N2         1.0     0.111287     0.094357     0.096618    Uiso  ? N
   N3         1.0     0.886976     0.206512     0.854873    Uiso  ? N
   N4         1.0     0.777346     0.094373     0.605631    Uiso  ? N
   N5         1.0     0.555742     0.204735     0.355722    Uiso  ? N
   N6         1.0     0.445437     0.093973     0.103385    Uiso  ? N
   N7         1.0     0.224238     0.204891     0.853442    Uiso  ? N
   N8         1.0     0.110023     0.094989     0.612442    Uiso  ? N
   N9         1.0     0.872770     0.213615     0.353503    Uiso  ? N
   N10        1.0     0.776963     0.093934     0.103042    Uiso  ? N
   N11        1.0     0.555673     0.204823     0.853238    Uiso  ? N
   N12        1.0     0.445808     0.093497     0.605796    Uiso  ? N
   N13        1.0     0.222722     0.538639     0.362956    Uiso  ? N
   N14        1.0     0.103916     0.421874     0.103672    Uiso  ? N
   N15        1.0     0.887173     0.540772     0.853288    Uiso  ? N
   N16        1.0     0.777346     0.428281     0.605631    Uiso  ? N
   N17        1.0     0.555741     0.539523     0.355722    Uiso  ? N
   N18        1.0     0.458149     0.420926     0.104643    Uiso  ? N
   N19        1.0     0.222798     0.538601     0.846253    Uiso  ? N
   N20        1.0     0.109451     0.427717     0.606064    Uiso  ? N
   N21        1.0     0.888127     0.538830     0.355722    Uiso  ? N
   N22        1.0     0.776963     0.429103     0.103042    Uiso  ? N
   N23        1.0     0.555673     0.539504     0.853238    Uiso  ? N
   N24        1.0     0.446664     0.426668     0.604254    Uiso  ? N
   N25        1.0     0.231006     0.857036     0.356592    Uiso  ? N
   N26        1.0     0.103916     0.774210     0.103672    Uiso  ? N
   N27        1.0     0.887173     0.872055     0.853288    Uiso  ? N
   N28        1.0     0.777390     0.761305     0.603287    Uiso  ? N
   N29        1.0     0.554928     0.872536     0.354322    Uiso  ? N
   N30        1.0     0.445437     0.760590     0.103385    Uiso  ? N
   N31        1.0     0.224238     0.870870     0.853442    Uiso  ? N
   N32        1.0     0.109451     0.762832     0.606064    Uiso  ? N
   N33        1.0     0.888128     0.873043     0.355722    Uiso  ? N
   N34        1.0     0.777767     0.761116     0.105665    Uiso  ? N
   N35        1.0     0.556747     0.871626     0.854699    Uiso  ? N
   N36        1.0     0.445808     0.760695     0.605796    Uiso  ? N
