
#======================================================================
# CRYSTAL DATA
#----------------------------------------------------------------------
data_VESTA_phase_1

_chemical_name_common                  'Hf   Al   Mg   N                      '
_cell_length_a                         9.970620
_cell_length_b                         9.964726
_cell_length_c                         8.521365
_cell_angle_alpha                      90.000000
_cell_angle_beta                       89.993690
_cell_angle_gamma                      60.020592
_cell_volume                           733.360364
_space_group_name_H-M_alt              'P 1'
_space_group_IT_number                 1

loop_
_space_group_symop_operation_xyz
   'x, y, z'

loop_
   _atom_site_label
   _atom_site_occupancy
   _atom_site_fract_x
   _atom_site_fract_y
   _atom_site_fract_z
   _atom_site_adp_type
   _atom_site_U_iso_or_equiv
   _atom_site_type_symbol
   Hf1        1.0     0.110839     0.094579     0.354058    Uiso  ? Hf
   Al1        1.0     0.225048     0.207876     0.097055    Uiso  ? Al
   Al2        1.0     0.775702     0.092237     0.858926    Uiso  ? Al
   Al3        1.0     0.882699     0.208651     0.619093    Uiso  ? Al
   Al4        1.0     0.448962     0.093951     0.360160    Uiso  ? Al
   Al5        1.0     0.557100     0.205065     0.109350    Uiso  ? Al
   Al6        1.0     0.111463     0.094268     0.856741    Uiso  ? Al
   Al7        1.0     0.224828     0.209491     0.616701    Uiso  ? Al
   Al8        1.0     0.773321     0.094424     0.360624    Uiso  ? Al
   Al9        1.0     0.881092     0.209455     0.098285    Uiso  ? Al
   Al10       1.0     0.447986     0.092762     0.858221    Uiso  ? Al
   Al11       1.0     0.554740     0.207576     0.609862    Uiso  ? Al
   Al12       1.0     0.111382     0.431939     0.353660    Uiso  ? Al
   Al13       1.0     0.775702     0.432061     0.858926    Uiso  ? Al
   Al14       1.0     0.889589     0.538871     0.608548    Uiso  ? Al
   Al15       1.0     0.444243     0.427878     0.354842    Uiso  ? Al
   Al16       1.0     0.557100     0.537835     0.109350    Uiso  ? Al
   Al17       1.0     0.109213     0.431504     0.861198    Uiso  ? Al
   Al18       1.0     0.223238     0.538381     0.605543    Uiso  ? Al
   Al19       1.0     0.773322     0.432254     0.360624    Uiso  ? Al
   Al20       1.0     0.887723     0.538431     0.109568    Uiso  ? Al
   Al21       1.0     0.444396     0.427801     0.863016    Uiso  ? Al
   Al22       1.0     0.554740     0.537685     0.609862    Uiso  ? Al
   Al23       1.0     0.111382     0.756678     0.353660    Uiso  ? Al
   Al24       1.0     0.225048     0.867078     0.097056    Uiso  ? Al
   Al25       1.0     0.778133     0.760933     0.859327    Uiso  ? Al
   Al26       1.0     0.889589     0.871542     0.608548    Uiso  ? Al
   Al27       1.0     0.448963     0.757085     0.360160    Uiso  ? Al
   Al28       1.0     0.556072     0.871964     0.108773    Uiso  ? Al
   Al29       1.0     0.109213     0.759282     0.861198    Uiso  ? Al
   Al30       1.0     0.224828     0.865682     0.616701    Uiso  ? Al
   Al31       1.0     0.777608     0.761196     0.359333    Uiso  ? Al
   Al32       1.0     0.887722     0.873848     0.109568    Uiso  ? Al
   Al33       1.0     0.447986     0.759251     0.858221    Uiso  ? Al
   Al34       1.0     0.556450     0.871775     0.609909    Uiso  ? Al
   Mg1        1.0     0.223179     0.538412     0.105806    Uiso  ? Mg
   N1         1.0     0.231346     0.211810     0.350413    Uiso  ? N
   N2         1.0     0.111254     0.094372     0.096006    Uiso  ? N
   N3         1.0     0.887234     0.206384     0.853459    Uiso  ? N
   N4         1.0     0.777694     0.094783     0.601516    Uiso  ? N
   N5         1.0     0.555951     0.204311     0.351405    Uiso  ? N
   N6         1.0     0.446100     0.093606     0.098469    Uiso  ? N
   N7         1.0     0.223996     0.205039     0.852060    Uiso  ? N
   N8         1.0     0.110065     0.094966     0.610134    Uiso  ? N
   N9         1.0     0.872150     0.213926     0.346606    Uiso  ? N
   N10        1.0     0.776635     0.093518     0.097951    Uiso  ? N
   N11        1.0     0.555458     0.205335     0.848274    Uiso  ? N
   N12        1.0     0.445131     0.093831     0.601812    Uiso  ? N
   N13        1.0     0.222623     0.538689     0.361066    Uiso  ? N
   N14        1.0     0.103434     0.422477     0.100327    Uiso  ? N
   N15        1.0     0.887357     0.540828     0.848273    Uiso  ? N
   N16        1.0     0.777694     0.427522     0.601516    Uiso  ? N
   N17        1.0     0.555951     0.539739     0.351405    Uiso  ? N
   N18        1.0     0.458446     0.420776     0.101657    Uiso  ? N
   N19        1.0     0.223061     0.538470     0.844283    Uiso  ? N
   N20        1.0     0.109898     0.427083     0.601680    Uiso  ? N
   N21        1.0     0.887955     0.538715     0.351865    Uiso  ? N
   N22        1.0     0.776635     0.429846     0.097951    Uiso  ? N
   N23        1.0     0.555458     0.539208     0.848274    Uiso  ? N
   N24        1.0     0.446547     0.426725     0.598721    Uiso  ? N
   N25        1.0     0.231346     0.856846     0.350413    Uiso  ? N
   N26        1.0     0.103434     0.774087     0.100327    Uiso  ? N
   N27        1.0     0.887357     0.871818     0.848273    Uiso  ? N
   N28        1.0     0.777360     0.761319     0.598418    Uiso  ? N
   N29        1.0     0.554769     0.872616     0.350139    Uiso  ? N
   N30        1.0     0.446100     0.760292     0.098469    Uiso  ? N
   N31        1.0     0.223996     0.870966     0.852059    Uiso  ? N
   N32        1.0     0.109898     0.763017     0.601680    Uiso  ? N
   N33        1.0     0.887955     0.873332     0.351865    Uiso  ? N
   N34        1.0     0.777730     0.761134     0.101565    Uiso  ? N
   N35        1.0     0.556980     0.871511     0.849889    Uiso  ? N
   N36        1.0     0.445131     0.761036     0.601813    Uiso  ? N
