
#======================================================================
# CRYSTAL DATA
#----------------------------------------------------------------------
data_VESTA_phase_1

_chemical_name_common                  'Hf   Al   Mg   N                      '
_cell_length_a                         9.509514
_cell_length_b                         9.505951
_cell_length_c                         9.912894
_cell_angle_alpha                      90.000000
_cell_angle_beta                       90.003426
_cell_angle_gamma                      60.011467
_cell_volume                           776.131228
_space_group_name_H-M_alt              'P 1'
_space_group_IT_number                 1

loop_
_space_group_symop_operation_xyz
   'x, y, z'

loop_
   _atom_site_label
   _atom_site_occupancy
   _atom_site_fract_x
   _atom_site_fract_y
   _atom_site_fract_z
   _atom_site_adp_type
   _atom_site_U_iso_or_equiv
   _atom_site_type_symbol
   Hf1        1.0     0.111315     0.094343     0.335774    Uiso  ? Hf
   Al1        1.0     0.222300     0.207898     0.071244    Uiso  ? Al
   Al2        1.0     0.776778     0.093284     0.826888    Uiso  ? Al
   Al3        1.0     0.880678     0.209661     0.581871    Uiso  ? Al
   Al4        1.0     0.449750     0.094776     0.324548    Uiso  ? Al
   Al5        1.0     0.555962     0.207403     0.075689    Uiso  ? Al
   Al6        1.0     0.111032     0.094484     0.822397    Uiso  ? Al
   Al7        1.0     0.226283     0.209155     0.582473    Uiso  ? Al
   Al8        1.0     0.771909     0.094353     0.324003    Uiso  ? Al
   Al9        1.0     0.885578     0.207210     0.071923    Uiso  ? Al
   Al10       1.0     0.446496     0.093469     0.827071    Uiso  ? Al
   Al11       1.0     0.555830     0.205259     0.576648    Uiso  ? Al
   Al12       1.0     0.110551     0.432232     0.324259    Uiso  ? Al
   Al13       1.0     0.776778     0.429939     0.826888    Uiso  ? Al
   Al14       1.0     0.888267     0.539340     0.576415    Uiso  ? Al
   Al15       1.0     0.446277     0.426862     0.325637    Uiso  ? Al
   Al16       1.0     0.555962     0.536635     0.075689    Uiso  ? Al
   Al17       1.0     0.110610     0.430621     0.825748    Uiso  ? Al
   Al18       1.0     0.222154     0.538923     0.578105    Uiso  ? Al
   Al19       1.0     0.771909     0.433739     0.324003    Uiso  ? Al
   Al20       1.0     0.889494     0.537663     0.076249    Uiso  ? Al
   Al21       1.0     0.442990     0.428505     0.825141    Uiso  ? Al
   Al22       1.0     0.555830     0.538910     0.576648    Uiso  ? Al
   Al23       1.0     0.110551     0.757218     0.324259    Uiso  ? Al
   Al24       1.0     0.222300     0.869801     0.071244    Uiso  ? Al
   Al25       1.0     0.778038     0.760982     0.826281    Uiso  ? Al
   Al26       1.0     0.888267     0.872393     0.576415    Uiso  ? Al
   Al27       1.0     0.449750     0.755475     0.324548    Uiso  ? Al
   Al28       1.0     0.556420     0.871789     0.076143    Uiso  ? Al
   Al29       1.0     0.110610     0.758770     0.825748    Uiso  ? Al
   Al30       1.0     0.226283     0.864561     0.582473    Uiso  ? Al
   Al31       1.0     0.778108     0.760947     0.325960    Uiso  ? Al
   Al32       1.0     0.889494     0.872843     0.076249    Uiso  ? Al
   Al33       1.0     0.446496     0.760036     0.827071    Uiso  ? Al
   Al34       1.0     0.556044     0.871978     0.576239    Uiso  ? Al
   Mg1        1.0     0.223070     0.538464     0.078402    Uiso  ? Mg
   N1         1.0     0.233068     0.213803     0.389635    Uiso  ? N
   N2         1.0     0.111787     0.094107     0.125521    Uiso  ? N
   N3         1.0     0.889176     0.205411     0.878979    Uiso  ? N
   N4         1.0     0.776736     0.093505     0.634555    Uiso  ? N
   N5         1.0     0.555854     0.204678     0.384539    Uiso  ? N
   N6         1.0     0.444029     0.094658     0.131650    Uiso  ? N
   N7         1.0     0.222186     0.205113     0.877883    Uiso  ? N
   N8         1.0     0.110554     0.094723     0.622869    Uiso  ? N
   N9         1.0     0.869001     0.215499     0.387911    Uiso  ? N
   N10        1.0     0.777740     0.094586     0.131640    Uiso  ? N
   N11        1.0     0.555556     0.205748     0.882536    Uiso  ? N
   N12        1.0     0.446943     0.092889     0.634706    Uiso  ? N
   N13        1.0     0.222750     0.538624     0.382813    Uiso  ? N
   N14        1.0     0.103791     0.419073     0.136197    Uiso  ? N
   N15        1.0     0.888417     0.539520     0.882749    Uiso  ? N
   N16        1.0     0.776736     0.429760     0.634555    Uiso  ? N
   N17        1.0     0.555855     0.539466     0.384539    Uiso  ? N
   N18        1.0     0.459688     0.420157     0.137249    Uiso  ? N
   N19        1.0     0.222685     0.538657     0.870788    Uiso  ? N
   N20        1.0     0.108847     0.429240     0.632579    Uiso  ? N
   N21        1.0     0.888052     0.538692     0.383529    Uiso  ? N
   N22        1.0     0.777741     0.427675     0.131640    Uiso  ? N
   N23        1.0     0.555556     0.538694     0.882536    Uiso  ? N
   N24        1.0     0.446179     0.426911     0.630899    Uiso  ? N
   N25        1.0     0.233068     0.853128     0.389635    Uiso  ? N
   N26        1.0     0.103791     0.777138     0.136197    Uiso  ? N
   N27        1.0     0.888417     0.872062     0.882749    Uiso  ? N
   N28        1.0     0.777426     0.761288     0.632627    Uiso  ? N
   N29        1.0     0.554635     0.872682     0.382213    Uiso  ? N
   N30        1.0     0.444030     0.761314     0.131650    Uiso  ? N
   N31        1.0     0.222186     0.872700     0.877883    Uiso  ? N
   N32        1.0     0.108847     0.761915     0.632579    Uiso  ? N
   N33        1.0     0.888052     0.873255     0.383529    Uiso  ? N
   N34        1.0     0.777963     0.761019     0.133313    Uiso  ? N
   N35        1.0     0.556281     0.871859     0.883454    Uiso  ? N
   N36        1.0     0.446943     0.760169     0.634706    Uiso  ? N
