
#======================================================================
# CRYSTAL DATA
#----------------------------------------------------------------------
data_VESTA_phase_1

_chemical_name_common                  'Hf   Al   Mg   N                      '
_cell_length_a                         9.511350
_cell_length_b                         9.506941
_cell_length_c                         9.913265
_cell_angle_alpha                      89.999977
_cell_angle_beta                       89.997330
_cell_angle_gamma                      60.018097
_cell_volume                           776.442795
_space_group_name_H-M_alt              'P 1'
_space_group_IT_number                 1

loop_
_space_group_symop_operation_xyz
   'x, y, z'

loop_
   _atom_site_label
   _atom_site_occupancy
   _atom_site_fract_x
   _atom_site_fract_y
   _atom_site_fract_z
   _atom_site_adp_type
   _atom_site_U_iso_or_equiv
   _atom_site_type_symbol
   Hf1        1.0     0.110580     0.094706     0.369267    Uiso  ? Hf
   Al1        1.0     0.225053     0.210524     0.126300    Uiso  ? Al
   Al2        1.0     0.776504     0.092862     0.883216    Uiso  ? Al
   Al3        1.0     0.886061     0.206971     0.637962    Uiso  ? Al
   Al4        1.0     0.449828     0.094628     0.383586    Uiso  ? Al
   Al5        1.0     0.556411     0.206341     0.132077    Uiso  ? Al
   Al6        1.0     0.111741     0.094128     0.888372    Uiso  ? Al
   Al7        1.0     0.223729     0.206534     0.637501    Uiso  ? Al
   Al8        1.0     0.772041     0.094687     0.383695    Uiso  ? Al
   Al9        1.0     0.879836     0.210084     0.125553    Uiso  ? Al
   Al10       1.0     0.446469     0.093486     0.882620    Uiso  ? Al
   Al11       1.0     0.555462     0.206213     0.633467    Uiso  ? Al
   Al12       1.0     0.111766     0.433492     0.384936    Uiso  ? Al
   Al13       1.0     0.776504     0.430633     0.883216    Uiso  ? Al
   Al14       1.0     0.888312     0.539468     0.632937    Uiso  ? Al
   Al15       1.0     0.443238     0.428380     0.383188    Uiso  ? Al
   Al16       1.0     0.556411     0.537248     0.132078    Uiso  ? Al
   Al17       1.0     0.109140     0.429087     0.883066    Uiso  ? Al
   Al18       1.0     0.223307     0.538347     0.631873    Uiso  ? Al
   Al19       1.0     0.772041     0.433271     0.383695    Uiso  ? Al
   Al20       1.0     0.889497     0.537664     0.132136    Uiso  ? Al
   Al21       1.0     0.446140     0.426929     0.884246    Uiso  ? Al
   Al22       1.0     0.555462     0.538326     0.633467    Uiso  ? Al
   Al23       1.0     0.111767     0.754739     0.384936    Uiso  ? Al
   Al24       1.0     0.225054     0.864425     0.126300    Uiso  ? Al
   Al25       1.0     0.778115     0.760942     0.883642    Uiso  ? Al
   Al26       1.0     0.888312     0.872223     0.632937    Uiso  ? Al
   Al27       1.0     0.449829     0.755541     0.383586    Uiso  ? Al
   Al28       1.0     0.556003     0.871999     0.132185    Uiso  ? Al
   Al29       1.0     0.109140     0.761771     0.883065    Uiso  ? Al
   Al30       1.0     0.223729     0.869739     0.637501    Uiso  ? Al
   Al31       1.0     0.778127     0.760936     0.381957    Uiso  ? Al
   Al32       1.0     0.889496     0.872843     0.132136    Uiso  ? Al
   Al33       1.0     0.446469     0.760042     0.882620    Uiso  ? Al
   Al34       1.0     0.556392     0.871805     0.633247    Uiso  ? Al
   Mg1        1.0     0.222349     0.538827     0.130096    Uiso  ? Mg
   N1         1.0     0.232551     0.215111     0.321179    Uiso  ? N
   N2         1.0     0.111377     0.094309     0.088151    Uiso  ? N
   N3         1.0     0.889506     0.205249     0.830747    Uiso  ? N
   N4         1.0     0.778174     0.094997     0.576570    Uiso  ? N
   N5         1.0     0.555433     0.205772     0.326270    Uiso  ? N
   N6         1.0     0.446687     0.093255     0.074989    Uiso  ? N
   N7         1.0     0.222963     0.203720     0.828990    Uiso  ? N
   N8         1.0     0.110652     0.094672     0.580804    Uiso  ? N
   N9         1.0     0.868066     0.215970     0.320033    Uiso  ? N
   N10        1.0     0.776271     0.092939     0.074950    Uiso  ? N
   N11        1.0     0.555896     0.204656     0.824659    Uiso  ? N
   N12        1.0     0.444135     0.094375     0.576462    Uiso  ? N
   N13        1.0     0.223094     0.538455     0.338720    Uiso  ? N
   N14        1.0     0.102143     0.422748     0.070878    Uiso  ? N
   N15        1.0     0.887244     0.540402     0.824374    Uiso  ? N
   N16        1.0     0.778174     0.426825     0.576570    Uiso  ? N
   N17        1.0     0.555434     0.538799     0.326270    Uiso  ? N
   N18        1.0     0.459743     0.420125     0.072979    Uiso  ? N
   N19        1.0     0.222817     0.538594     0.825985    Uiso  ? N
   N20        1.0     0.110503     0.426152     0.578483    Uiso  ? N
   N21        1.0     0.889229     0.537724     0.327222    Uiso  ? N
   N22        1.0     0.776271     0.430786     0.074950    Uiso  ? N
   N23        1.0     0.555896     0.539452     0.824659    Uiso  ? N
   N24        1.0     0.446456     0.426770     0.577055    Uiso  ? N
   N25        1.0     0.232553     0.852340     0.321178    Uiso  ? N
   N26        1.0     0.102142     0.775105     0.070878    Uiso  ? N
   N27        1.0     0.887243     0.872359     0.824374    Uiso  ? N
   N28        1.0     0.777531     0.761233     0.574656    Uiso  ? N
   N29        1.0     0.554674     0.872665     0.326409    Uiso  ? N
   N30        1.0     0.446688     0.760052     0.074988    Uiso  ? N
   N31        1.0     0.222963     0.873322     0.828989    Uiso  ? N
   N32        1.0     0.110503     0.763340     0.578483    Uiso  ? N
   N33        1.0     0.889230     0.873054     0.327222    Uiso  ? N
   N34        1.0     0.777646     0.761175     0.077275    Uiso  ? N
   N35        1.0     0.556380     0.871812     0.825745    Uiso  ? N
   N36        1.0     0.444136     0.761485     0.576462    Uiso  ? N
