
#======================================================================
# CRYSTAL DATA
#----------------------------------------------------------------------
data_VESTA_phase_1

_chemical_name_common                  'Hf   Al   Mg   N                      '
_cell_length_a                         9.455384
_cell_length_b                         9.452216
_cell_length_c                         10.061858
_cell_angle_alpha                      90.000000
_cell_angle_beta                       89.999199
_cell_angle_gamma                      60.011147
_cell_volume                           778.879762
_space_group_name_H-M_alt              'P 1'
_space_group_IT_number                 1

loop_
_space_group_symop_operation_xyz
   'x, y, z'

loop_
   _atom_site_label
   _atom_site_occupancy
   _atom_site_fract_x
   _atom_site_fract_y
   _atom_site_fract_z
   _atom_site_adp_type
   _atom_site_U_iso_or_equiv
   _atom_site_type_symbol
   Hf1        1.0     0.110786     0.094607     0.388786    Uiso  ? Hf
   Al1        1.0     0.224076     0.210000     0.140367    Uiso  ? Al
   Al2        1.0     0.776598     0.093121     0.897718    Uiso  ? Al
   Al3        1.0     0.885124     0.207438     0.652391    Uiso  ? Al
   Al4        1.0     0.449797     0.094745     0.397076    Uiso  ? Al
   Al5        1.0     0.556115     0.206788     0.145588    Uiso  ? Al
   Al6        1.0     0.111677     0.094162     0.900899    Uiso  ? Al
   Al7        1.0     0.224248     0.206914     0.652308    Uiso  ? Al
   Al8        1.0     0.772102     0.094503     0.397164    Uiso  ? Al
   Al9        1.0     0.881662     0.209169     0.140035    Uiso  ? Al
   Al10       1.0     0.446327     0.093610     0.897063    Uiso  ? Al
   Al11       1.0     0.555652     0.205867     0.647591    Uiso  ? Al
   Al12       1.0     0.111548     0.433553     0.399286    Uiso  ? Al
   Al13       1.0     0.776598     0.430281     0.897718    Uiso  ? Al
   Al14       1.0     0.888248     0.539397     0.647325    Uiso  ? Al
   Al15       1.0     0.443370     0.428315     0.398025    Uiso  ? Al
   Al16       1.0     0.556115     0.537096     0.145588    Uiso  ? Al
   Al17       1.0     0.109420     0.428956     0.897360    Uiso  ? Al
   Al18       1.0     0.223099     0.538451     0.646510    Uiso  ? Al
   Al19       1.0     0.772102     0.433395     0.397164    Uiso  ? Al
   Al20       1.0     0.889737     0.537661     0.145687    Uiso  ? Al
   Al21       1.0     0.446008     0.426996     0.897731    Uiso  ? Al
   Al22       1.0     0.555652     0.538482     0.647591    Uiso  ? Al
   Al23       1.0     0.111548     0.754899     0.399286    Uiso  ? Al
   Al24       1.0     0.224076     0.865924     0.140367    Uiso  ? Al
   Al25       1.0     0.778042     0.760979     0.897380    Uiso  ? Al
   Al26       1.0     0.888248     0.872355     0.647325    Uiso  ? Al
   Al27       1.0     0.449797     0.755458     0.397076    Uiso  ? Al
   Al28       1.0     0.556005     0.871998     0.146126    Uiso  ? Al
   Al29       1.0     0.109420     0.761625     0.897360    Uiso  ? Al
   Al30       1.0     0.224248     0.868838     0.652308    Uiso  ? Al
   Al31       1.0     0.778249     0.760876     0.396178    Uiso  ? Al
   Al32       1.0     0.889737     0.872602     0.145687    Uiso  ? Al
   Al33       1.0     0.446327     0.760064     0.897063    Uiso  ? Al
   Al34       1.0     0.556231     0.871884     0.647182    Uiso  ? Al
   Mg1        1.0     0.222489     0.538756     0.145484    Uiso  ? Mg
   N1         1.0     0.231624     0.214680     0.332971    Uiso  ? N
   N2         1.0     0.111395     0.094302     0.096820    Uiso  ? N
   N3         1.0     0.888825     0.205587     0.842136    Uiso  ? N
   N4         1.0     0.778200     0.094885     0.587887    Uiso  ? N
   N5         1.0     0.555270     0.206211     0.337724    Uiso  ? N
   N6         1.0     0.446373     0.093368     0.087107    Uiso  ? N
   N7         1.0     0.223277     0.204099     0.840726    Uiso  ? N
   N8         1.0     0.110793     0.094603     0.596354    Uiso  ? N
   N9         1.0     0.869751     0.215125     0.332099    Uiso  ? N
   N10        1.0     0.776502     0.093143     0.087133    Uiso  ? N
   N11        1.0     0.556043     0.204436     0.836503    Uiso  ? N
   N12        1.0     0.444096     0.094437     0.587806    Uiso  ? N
   N13        1.0     0.223246     0.538377     0.351098    Uiso  ? N
   N14        1.0     0.102531     0.422672     0.082570    Uiso  ? N
   N15        1.0     0.887367     0.540089     0.836432    Uiso  ? N
   N16        1.0     0.778200     0.426915     0.587887    Uiso  ? N
   N17        1.0     0.555270     0.538519     0.337724    Uiso  ? N
   N18        1.0     0.459277     0.420361     0.083817    Uiso  ? N
   N19        1.0     0.222628     0.538686     0.837679    Uiso  ? N
   N20        1.0     0.110462     0.426198     0.590386    Uiso  ? N
   N21        1.0     0.889319     0.537850     0.338758    Uiso  ? N
   N22        1.0     0.776502     0.430355     0.087133    Uiso  ? N
   N23        1.0     0.556043     0.539521     0.836503    Uiso  ? N
   N24        1.0     0.446445     0.426777     0.589442    Uiso  ? N
   N25        1.0     0.231624     0.853695     0.332971    Uiso  ? N
   N26        1.0     0.102531     0.774797     0.082570    Uiso  ? N
   N27        1.0     0.887367     0.872543     0.836432    Uiso  ? N
   N28        1.0     0.777625     0.761188     0.586737    Uiso  ? N
   N29        1.0     0.554821     0.872590     0.338177    Uiso  ? N
   N30        1.0     0.446373     0.760259     0.087107    Uiso  ? N
   N31        1.0     0.223277     0.872623     0.840726    Uiso  ? N
   N32        1.0     0.110462     0.763340     0.590386    Uiso  ? N
   N33        1.0     0.889319     0.872831     0.338758    Uiso  ? N
   N34        1.0     0.777566     0.761217     0.088664    Uiso  ? N
   N35        1.0     0.556072     0.871964     0.837468    Uiso  ? N
   N36        1.0     0.444096     0.761468     0.587806    Uiso  ? N
