
#======================================================================
# CRYSTAL DATA
#----------------------------------------------------------------------
data_VESTA_phase_1

_chemical_name_common                  'Hf   Al   Mg   N                      '
_cell_length_a                         9.808173
_cell_length_b                         9.805574
_cell_length_c                         9.026069
_cell_angle_alpha                      89.999992
_cell_angle_beta                       89.998009
_cell_angle_gamma                      60.009766
_cell_volume                           751.853385
_space_group_name_H-M_alt              'P 1'
_space_group_IT_number                 1

loop_
_space_group_symop_operation_xyz
   'x, y, z'

loop_
   _atom_site_label
   _atom_site_occupancy
   _atom_site_fract_x
   _atom_site_fract_y
   _atom_site_fract_z
   _atom_site_adp_type
   _atom_site_U_iso_or_equiv
   _atom_site_type_symbol
   Hf1        1.0     0.111646     0.094176     0.353048    Uiso  ? Hf
   Al1        1.0     0.223237     0.206491     0.077928    Uiso  ? Al
   Al2        1.0     0.776053     0.092300     0.836757    Uiso  ? Al
   Al3        1.0     0.879763     0.210119     0.597438    Uiso  ? Al
   Al4        1.0     0.448314     0.095515     0.335377    Uiso  ? Al
   Al5        1.0     0.556619     0.206278     0.084732    Uiso  ? Al
   Al6        1.0     0.110793     0.094603     0.835416    Uiso  ? Al
   Al7        1.0     0.226282     0.210446     0.599625    Uiso  ? Al
   Al8        1.0     0.772759     0.094583     0.335145    Uiso  ? Al
   Al9        1.0     0.884826     0.207588     0.080293    Uiso  ? Al
   Al10       1.0     0.448760     0.091568     0.836952    Uiso  ? Al
   Al11       1.0     0.555446     0.206061     0.587443    Uiso  ? Al
   Al12       1.0     0.111388     0.431299     0.332587    Uiso  ? Al
   Al13       1.0     0.776053     0.431647     0.836757    Uiso  ? Al
   Al14       1.0     0.889278     0.538688     0.586677    Uiso  ? Al
   Al15       1.0     0.445448     0.427275     0.334446    Uiso  ? Al
   Al16       1.0     0.556619     0.537103     0.084732    Uiso  ? Al
   Al17       1.0     0.109118     0.431949     0.840497    Uiso  ? Al
   Al18       1.0     0.222033     0.538984     0.595239    Uiso  ? Al
   Al19       1.0     0.772759     0.432657     0.335144    Uiso  ? Al
   Al20       1.0     0.887850     0.538651     0.086123    Uiso  ? Al
   Al21       1.0     0.443936     0.428031     0.838912    Uiso  ? Al
   Al22       1.0     0.555446     0.538494     0.587443    Uiso  ? Al
   Al23       1.0     0.111388     0.757312     0.332587    Uiso  ? Al
   Al24       1.0     0.223237     0.870273     0.077929    Uiso  ? Al
   Al25       1.0     0.777225     0.761387     0.834705    Uiso  ? Al
   Al26       1.0     0.889278     0.872035     0.586678    Uiso  ? Al
   Al27       1.0     0.448314     0.756170     0.335377    Uiso  ? Al
   Al28       1.0     0.556676     0.871663     0.088111    Uiso  ? Al
   Al29       1.0     0.109118     0.758932     0.840496    Uiso  ? Al
   Al30       1.0     0.226282     0.863272     0.599625    Uiso  ? Al
   Al31       1.0     0.778580     0.760710     0.337948    Uiso  ? Al
   Al32       1.0     0.887850     0.873500     0.086123    Uiso  ? Al
   Al33       1.0     0.448760     0.759671     0.836953    Uiso  ? Al
   Al34       1.0     0.555905     0.872048     0.584788    Uiso  ? Al
   Mg1        1.0     0.223715     0.538143     0.091977    Uiso  ? Mg
   N1         1.0     0.232214     0.213969     0.379891    Uiso  ? N
   N2         1.0     0.111576     0.094211     0.113775    Uiso  ? N
   N3         1.0     0.888243     0.205879     0.865610    Uiso  ? N
   N4         1.0     0.776550     0.093162     0.623945    Uiso  ? N
   N5         1.0     0.555690     0.204886     0.373672    Uiso  ? N
   N6         1.0     0.443634     0.095127     0.120287    Uiso  ? N
   N7         1.0     0.223494     0.204125     0.863235    Uiso  ? N
   N8         1.0     0.110081     0.094959     0.614449    Uiso  ? N
   N9         1.0     0.870159     0.214922     0.377190    Uiso  ? N
   N10        1.0     0.777711     0.094811     0.120425    Uiso  ? N
   N11        1.0     0.555819     0.204805     0.871271    Uiso  ? N
   N12        1.0     0.447907     0.092081     0.624082    Uiso  ? N
   N13        1.0     0.222457     0.538772     0.372824    Uiso  ? N
   N14        1.0     0.104210     0.419349     0.119826    Uiso  ? N
   N15        1.0     0.886553     0.541312     0.871946    Uiso  ? N
   N16        1.0     0.776550     0.430286     0.623945    Uiso  ? N
   N17        1.0     0.555691     0.539425     0.373672    Uiso  ? N
   N18        1.0     0.459480     0.420259     0.122537    Uiso  ? N
   N19        1.0     0.223134     0.538434     0.858592    Uiso  ? N
   N20        1.0     0.108036     0.429708     0.624914    Uiso  ? N
   N21        1.0     0.888845     0.538037     0.372489    Uiso  ? N
   N22        1.0     0.777711     0.427477     0.120425    Uiso  ? N
   N23        1.0     0.555819     0.539377     0.871271    Uiso  ? N
   N24        1.0     0.446853     0.426572     0.622085    Uiso  ? N
   N25        1.0     0.232214     0.853818     0.379891    Uiso  ? N
   N26        1.0     0.104209     0.776440     0.119826    Uiso  ? N
   N27        1.0     0.886553     0.872137     0.871945    Uiso  ? N
   N28        1.0     0.777158     0.761420     0.619950    Uiso  ? N
   N29        1.0     0.554253     0.872874     0.370140    Uiso  ? N
   N30        1.0     0.443634     0.761237     0.120287    Uiso  ? N
   N31        1.0     0.223494     0.872382     0.863235    Uiso  ? N
   N32        1.0     0.108036     0.762253     0.624914    Uiso  ? N
   N33        1.0     0.888845     0.873121     0.372490    Uiso  ? N
   N34        1.0     0.778099     0.760950     0.124262    Uiso  ? N
   N35        1.0     0.557155     0.871423     0.874145    Uiso  ? N
   N36        1.0     0.447907     0.760010     0.624082    Uiso  ? N
