
#======================================================================
# CRYSTAL DATA
#----------------------------------------------------------------------
data_VESTA_phase_1

_chemical_name_common                  'Hf   Al   Mg   N '
_cell_length_a                         9.451477
_cell_length_b                         9.447022
_cell_length_c                         10.065595
_cell_angle_alpha                      89.999992
_cell_angle_beta                       90.004074
_cell_angle_gamma                      60.015594
_cell_volume                           778.453943
_space_group_name_H-M_alt              'P 1'
_space_group_IT_number                 1

loop_
_space_group_symop_operation_xyz
   'x, y, z'

loop_
   _atom_site_label
   _atom_site_occupancy
   _atom_site_fract_x
   _atom_site_fract_y
   _atom_site_fract_z
   _atom_site_adp_type
   _atom_site_U_iso_or_equiv
   _atom_site_type_symbol
   Hf1        1.0     0.111162     0.094418     0.298897    Uiso  ? Hf
   Al1        1.0     0.222781     0.208719     0.040263    Uiso  ? Al
   Al2        1.0     0.776707     0.093440     0.796110    Uiso  ? Al
   Al3        1.0     0.882630     0.208685     0.551237    Uiso  ? Al
   Al4        1.0     0.449793     0.094563     0.294499    Uiso  ? Al
   Al5        1.0     0.555760     0.207521     0.045699    Uiso  ? Al
   Al6        1.0     0.111152     0.094425     0.793953    Uiso  ? Al
   Al7        1.0     0.225438     0.208042     0.551359    Uiso  ? Al
   Al8        1.0     0.772011     0.094310     0.293880    Uiso  ? Al
   Al9        1.0     0.884505     0.207748     0.040540    Uiso  ? Al
   Al10       1.0     0.446257     0.093823     0.796237    Uiso  ? Al
   Al11       1.0     0.555840     0.205298     0.546090    Uiso  ? Al
   Al12       1.0     0.110477     0.432273     0.294532    Uiso  ? Al
   Al13       1.0     0.776707     0.429854     0.796110    Uiso  ? Al
   Al14       1.0     0.888136     0.539430     0.545895    Uiso  ? Al
   Al15       1.0     0.446046     0.426976     0.295206    Uiso  ? Al
   Al16       1.0     0.555760     0.536719     0.045699    Uiso  ? Al
   Al17       1.0     0.110735     0.430355     0.794135    Uiso  ? Al
   Al18       1.0     0.222337     0.538831     0.547156    Uiso  ? Al
   Al19       1.0     0.772011     0.433679     0.293880    Uiso  ? Al
   Al20       1.0     0.889794     0.537416     0.046080    Uiso  ? Al
   Al21       1.0     0.443074     0.428463     0.794399    Uiso  ? Al
   Al22       1.0     0.555839     0.538862     0.546090    Uiso  ? Al
   Al23       1.0     0.110478     0.757248     0.294532    Uiso  ? Al
   Al24       1.0     0.222781     0.868501     0.040263    Uiso  ? Al
   Al25       1.0     0.778249     0.760876     0.796299    Uiso  ? Al
   Al26       1.0     0.888137     0.872434     0.545895    Uiso  ? Al
   Al27       1.0     0.449793     0.755642     0.294499    Uiso  ? Al
   Al28       1.0     0.556294     0.871853     0.045508    Uiso  ? Al
   Al29       1.0     0.110736     0.758911     0.794135    Uiso  ? Al
   Al30       1.0     0.225438     0.866519     0.551359    Uiso  ? Al
   Al31       1.0     0.778052     0.760974     0.295258    Uiso  ? Al
   Al32       1.0     0.889795     0.872790     0.046080    Uiso  ? Al
   Al33       1.0     0.446257     0.759920     0.796237    Uiso  ? Al
   Al34       1.0     0.556142     0.871929     0.546104    Uiso  ? Al
   Mg1        1.0     0.222529     0.538736     0.046671    Uiso  ? Mg
   N1         1.0     0.232169     0.212715     0.361097    Uiso  ? N
   N2         1.0     0.111741     0.094130     0.092496    Uiso  ? N
   N3         1.0     0.888319     0.205841     0.850835    Uiso  ? N
   N4         1.0     0.776885     0.093627     0.606037    Uiso  ? N
   N5         1.0     0.555762     0.204881     0.356347    Uiso  ? N
   N6         1.0     0.444027     0.094541     0.103954    Uiso  ? N
   N7         1.0     0.222510     0.205784     0.850051    Uiso  ? N
   N8         1.0     0.110685     0.094658     0.598215    Uiso  ? N
   N9         1.0     0.870842     0.214579     0.359637    Uiso  ? N
   N10        1.0     0.777731     0.094659     0.103887    Uiso  ? N
   N11        1.0     0.555557     0.205790     0.854636    Uiso  ? N
   N12        1.0     0.446557     0.093144     0.606144    Uiso  ? N
   N13        1.0     0.222916     0.538541     0.354934    Uiso  ? N
   N14        1.0     0.103906     0.419034     0.109164    Uiso  ? N
   N15        1.0     0.888834     0.539043     0.854716    Uiso  ? N
   N16        1.0     0.776884     0.429488     0.606037    Uiso  ? N
   N17        1.0     0.555762     0.539355     0.356347    Uiso  ? N
   N18        1.0     0.459022     0.420489     0.109445    Uiso  ? N
   N19        1.0     0.222444     0.538778     0.841910    Uiso  ? N
   N20        1.0     0.109063     0.428837     0.603500    Uiso  ? N
   N21        1.0     0.887890     0.538916     0.355380    Uiso  ? N
   N22        1.0     0.777731     0.427611     0.103888    Uiso  ? N
   N23        1.0     0.555557     0.538653     0.854636    Uiso  ? N
   N24        1.0     0.446175     0.426912     0.602654    Uiso  ? N
   N25        1.0     0.232169     0.855115     0.361097    Uiso  ? N
   N26        1.0     0.103907     0.777061     0.109164    Uiso  ? N
   N27        1.0     0.888835     0.872124     0.854716    Uiso  ? N
   N28        1.0     0.777556     0.761222     0.604900    Uiso  ? N
   N29        1.0     0.554931     0.872534     0.354309    Uiso  ? N
   N30        1.0     0.444027     0.761431     0.103955    Uiso  ? N
   N31        1.0     0.222510     0.871708     0.850051    Uiso  ? N
   N32        1.0     0.109064     0.762100     0.603500    Uiso  ? N
   N33        1.0     0.887891     0.873194     0.355380    Uiso  ? N
   N34        1.0     0.777933     0.761033     0.104934    Uiso  ? N
   N35        1.0     0.556016     0.871992     0.855116    Uiso  ? N
   N36        1.0     0.446557     0.760299     0.606144    Uiso  ? N
