# generated using pymatgen
data_Sc2Al7N9
_symmetry_space_group_name_H-M   'P 1'
_cell_length_a   9.72959802
_cell_length_b   9.75247536
_cell_length_c   10.10114823
_cell_angle_alpha   90.00166356
_cell_angle_beta   89.95490804
_cell_angle_gamma   60.00716247
_symmetry_Int_Tables_number   1
_chemical_formula_structural   Sc2Al7N9
_chemical_formula_sum   'Sc8 Al28 N36'
_cell_volume   830.12269956
_cell_formula_units_Z   4
loop_
 _symmetry_equiv_pos_site_id
 _symmetry_equiv_pos_as_xyz
  1  'x, y, z'
loop_
 _atom_site_type_symbol
 _atom_site_label
 _atom_site_symmetry_multiplicity
 _atom_site_fract_x
 _atom_site_fract_y
 _atom_site_fract_z
 _atom_site_occupancy
  Al  Al0  1  0.10886182  0.09656450  0.29712750  1
  Al  Al1  1  0.22908867  0.19669961  0.05200716  1
  Al  Al2  1  0.77820200  0.09774239  0.80236904  1
  Al  Al3  1  0.88667832  0.20716821  0.55134148  1
  Al  Al4  1  0.44066568  0.09450467  0.30041807  1
  Al  Al5  1  0.55522584  0.20396665  0.04786436  1
  Al  Al6  1  0.10604085  0.09712323  0.80311439  1
  Al  Al7  1  0.21903592  0.20593085  0.54769654  1
  Al  Al8  1  0.78231567  0.09482877  0.29879646  1
  Al  Al9  1  0.88594277  0.20308077  0.04914420  1
  Al  Al10  1  0.44376385  0.09606275  0.80031771  1
  Al  Al11  1  0.56240278  0.19674473  0.55272113  1
  Al  Al12  1  0.11699766  0.42088491  0.29449656  1
  Al  Al13  1  0.22839336  0.54042081  0.04649360  1
  Al  Al14  1  0.77854195  0.41866243  0.79740015  1
  Al  Al15  1  0.89029548  0.52752568  0.53934501  1
  Al  Al16  1  0.55851109  0.52672274  0.04861395  1
  Al  Al17  1  0.77893482  0.41884977  0.30211601  1
  Al  Al18  1  0.45451497  0.42056366  0.79888299  1
  Al  Al19  1  0.56581402  0.53803673  0.55076374  1
  Al  Al20  1  0.11041877  0.76508276  0.29149543  1
  Al  Al21  1  0.21552232  0.87763098  0.05283672  1
  Al  Al22  1  0.88819467  0.88337107  0.54583365  1
  Al  Al23  1  0.44326824  0.76283154  0.29099106  1
  Al  Al24  1  0.55460210  0.88248112  0.05328593  1
  Al  Al25  1  0.10509266  0.77274048  0.80824298  1
  Al  Al26  1  0.88585726  0.88034266  0.05175215  1
  Al  Al27  1  0.54791837  0.87611796  0.54459747  1
  Sc  Sc28  1  0.44808066  0.42414383  0.30756090  1
  Sc  Sc29  1  0.11198622  0.42124045  0.81319271  1
  Sc  Sc30  1  0.21683992  0.54185293  0.56040985  1
  Sc  Sc31  1  0.88153901  0.53969158  0.06761337  1
  Sc  Sc32  1  0.77879137  0.76577875  0.79155683  1
  Sc  Sc33  1  0.22269765  0.87561889  0.55079765  1
  Sc  Sc34  1  0.77552310  0.76878093  0.32176294  1
  Sc  Sc35  1  0.44682525  0.75764520  0.82037771  1
  N  N36  1  0.22195467  0.20507541  0.35578281  1
  N  N37  1  0.10705937  0.09838278  0.10799047  1
  N  N38  1  0.88832536  0.20532857  0.85844208  1
  N  N39  1  0.77783354  0.09551932  0.61166217  1
  N  N40  1  0.56835742  0.18082469  0.36336077  1
  N  N41  1  0.44389229  0.09742732  0.11128274  1
  N  N42  1  0.23286765  0.18273773  0.86435493  1
  N  N43  1  0.10120324  0.11196684  0.61242477  1
  N  N44  1  0.88957365  0.20348765  0.36069641  1
  N  N45  1  0.77548192  0.09728934  0.10810976  1
  N  N46  1  0.55475119  0.20397542  0.85597811  1
  N  N47  1  0.44166949  0.09529173  0.60853149  1
  N  N48  1  0.20242128  0.55020362  0.34989446  1
  N  N49  1  0.13202688  0.41699401  0.09973017  1
  N  N50  1  0.87222473  0.53435017  0.85917711  1
  N  N51  1  0.78033895  0.42471224  0.60554192  1
  N  N52  1  0.56472474  0.55074371  0.36069976  1
  N  N53  1  0.44437970  0.42470662  0.09840332  1
  N  N54  1  0.23352933  0.55005761  0.85230309  1
  N  N55  1  0.10022208  0.41868484  0.60316009  1
  N  N56  1  0.90015424  0.51562885  0.34509352  1
  N  N57  1  0.76641443  0.41211001  0.11601986  1
  N  N58  1  0.56996963  0.51265722  0.86140759  1
  N  N59  1  0.46576483  0.41685993  0.60362409  1
  N  N60  1  0.22361233  0.87135339  0.33834449  1
  N  N61  1  0.10970370  0.76120157  0.10233346  1
  N  N62  1  0.89191627  0.88539905  0.86471638  1
  N  N63  1  0.77805847  0.76168667  0.57076516  1
  N  N64  1  0.52746872  0.88504227  0.35767548  1
  N  N65  1  0.44731598  0.75786281  0.09483421  1
  N  N66  1  0.20295989  0.88617393  0.86271558  1
  N  N67  1  0.08981134  0.77657863  0.62136501  1
  N  N68  1  0.90455279  0.88663024  0.35969679  1
  N  N69  1  0.76850715  0.78361834  0.10887959  1
  N  N70  1  0.55278689  0.89146262  0.86663704  1
  N  N71  1  0.46365149  0.75139676  0.61030931  1
