# generated using pymatgen
data_Sc2Al7N9
_symmetry_space_group_name_H-M   'P 1'
_cell_length_a   9.72895173
_cell_length_b   9.75178176
_cell_length_c   10.10294392
_cell_angle_alpha   90.00158513
_cell_angle_beta   89.95520456
_cell_angle_gamma   60.00824894
_symmetry_Int_Tables_number   1
_chemical_formula_structural   Sc2Al7N9
_chemical_formula_sum   'Sc8 Al28 N36'
_cell_volume   830.16516494
_cell_formula_units_Z   4
loop_
 _symmetry_equiv_pos_site_id
 _symmetry_equiv_pos_as_xyz
  1  'x, y, z'
loop_
 _atom_site_type_symbol
 _atom_site_label
 _atom_site_symmetry_multiplicity
 _atom_site_fract_x
 _atom_site_fract_y
 _atom_site_fract_z
 _atom_site_occupancy
  Al  Al0  1  0.10887235  0.09656679  0.29313802  1
  Al  Al1  1  0.22909063  0.19672149  0.04804593  1
  Al  Al2  1  0.77823048  0.09772491  0.79840631  1
  Al  Al3  1  0.88669430  0.20716744  0.54738532  1
  Al  Al4  1  0.44068824  0.09448709  0.29644444  1
  Al  Al5  1  0.55526520  0.20392253  0.04388202  1
  Al  Al6  1  0.10604490  0.09712351  0.79918527  1
  Al  Al7  1  0.21907662  0.20589089  0.54371898  1
  Al  Al8  1  0.78234486  0.09480037  0.29485629  1
  Al  Al9  1  0.88594556  0.20308846  0.04519057  1
  Al  Al10  1  0.44377995  0.09603373  0.79637301  1
  Al  Al11  1  0.56241854  0.19674507  0.54878350  1
  Al  Al12  1  0.11700986  0.42086438  0.29055877  1
  Al  Al13  1  0.22839096  0.54040109  0.04254848  1
  Al  Al14  1  0.77856484  0.41866497  0.79342280  1
  Al  Al15  1  0.89031124  0.52752606  0.53538770  1
  Al  Al16  1  0.55852923  0.52676968  0.04462722  1
  Al  Al17  1  0.77896812  0.41885581  0.29814947  1
  Al  Al18  1  0.45453319  0.42056437  0.79498290  1
  Al  Al19  1  0.56581751  0.53800516  0.54679293  1
  Al  Al20  1  0.11042703  0.76506972  0.28749501  1
  Al  Al21  1  0.21552974  0.87762197  0.04889231  1
  Al  Al22  1  0.88820896  0.88333267  0.54187944  1
  Al  Al23  1  0.44327248  0.76281309  0.28704836  1
  Al  Al24  1  0.55458805  0.88244071  0.04933032  1
  Al  Al25  1  0.10510284  0.77271034  0.80429470  1
  Al  Al26  1  0.88585146  0.88032686  0.04778311  1
  Al  Al27  1  0.54791469  0.87611243  0.54060782  1
  Sc  Sc28  1  0.44815459  0.42409018  0.30346157  1
  Sc  Sc29  1  0.11205423  0.42123015  0.80908836  1
  Sc  Sc30  1  0.21692859  0.54183204  0.55632993  1
  Sc  Sc31  1  0.88159877  0.53967286  0.06354517  1
  Sc  Sc32  1  0.77876374  0.76579367  0.78755240  1
  Sc  Sc33  1  0.22263191  0.87564603  0.54677188  1
  Sc  Sc34  1  0.77554020  0.76874314  0.31777886  1
  Sc  Sc35  1  0.44676286  0.75766928  0.81631700  1
  N  N36  1  0.22198554  0.20503796  0.35184050  1
  N  N37  1  0.10706353  0.09839275  0.10403749  1
  N  N38  1  0.88831943  0.20534019  0.85451216  1
  N  N39  1  0.77786694  0.09549054  0.60772050  1
  N  N40  1  0.56837193  0.18081951  0.35943923  1
  N  N41  1  0.44391105  0.09740801  0.10733352  1
  N  N42  1  0.23287318  0.18276557  0.86041878  1
  N  N43  1  0.10121800  0.11196431  0.60851330  1
  N  N44  1  0.88959440  0.20348183  0.35675572  1
  N  N45  1  0.77550151  0.09727124  0.10418736  1
  N  N46  1  0.55478834  0.20393924  0.85203667  1
  N  N47  1  0.44169617  0.09526473  0.60460357  1
  N  N48  1  0.20251382  0.55016762  0.34587096  1
  N  N49  1  0.13204412  0.41698034  0.09585701  1
  N  N50  1  0.87231682  0.53433273  0.85514119  1
  N  N51  1  0.78034775  0.42471324  0.60159877  1
  N  N52  1  0.56474185  0.55070490  0.35675746  1
  N  N53  1  0.44442571  0.42468551  0.09436765  1
  N  N54  1  0.23354684  0.55004579  0.84841747  1
  N  N55  1  0.10029581  0.41868123  0.59911229  1
  N  N56  1  0.90018350  0.51561545  0.34120474  1
  N  N57  1  0.76643881  0.41214186  0.11207189  1
  N  N58  1  0.56998852  0.51270428  0.85745567  1
  N  N59  1  0.46579529  0.41683595  0.59976714  1
  N  N60  1  0.22360121  0.87135664  0.33436206  1
  N  N61  1  0.10968899  0.76119504  0.09838103  1
  N  N62  1  0.89191003  0.88537712  0.86077189  1
  N  N63  1  0.77804760  0.76167883  0.56680901  1
  N  N64  1  0.52748545  0.88502693  0.35372411  1
  N  N65  1  0.44730456  0.75785630  0.09093811  1
  N  N66  1  0.20293694  0.88617389  0.85880930  1
  N  N67  1  0.08983640  0.77651825  0.61743553  1
  N  N68  1  0.90458319  0.88658907  0.35577133  1
  N  N69  1  0.76851003  0.78358415  0.10493016  1
  N  N70  1  0.55276964  0.89142030  0.86270346  1
  N  N71  1  0.46359038  0.75140975  0.60628680  1
