# generated using pymatgen
data_Sc2Al7N9
_symmetry_space_group_name_H-M   'P 1'
_cell_length_a   9.73326326
_cell_length_b   9.75791151
_cell_length_c   10.09832728
_cell_angle_alpha   90.04623037
_cell_angle_beta   90.07844644
_cell_angle_gamma   60.03190233
_symmetry_Int_Tables_number   1
_chemical_formula_structural   Sc2Al7N9
_chemical_formula_sum   'Sc8 Al28 N36'
_cell_volume   830.87277782
_cell_formula_units_Z   4
loop_
 _symmetry_equiv_pos_site_id
 _symmetry_equiv_pos_as_xyz
  1  'x, y, z'
loop_
 _atom_site_type_symbol
 _atom_site_label
 _atom_site_symmetry_multiplicity
 _atom_site_fract_x
 _atom_site_fract_y
 _atom_site_fract_z
 _atom_site_occupancy
  Al  Al0  1  0.10605146  0.10193950  0.39572025  1
  Al  Al1  1  0.22677485  0.20261329  0.15357581  1
  Al  Al2  1  0.77903217  0.09839229  0.89912781  1
  Al  Al3  1  0.88633845  0.20833001  0.65006565  1
  Al  Al4  1  0.44137258  0.09472638  0.40099677  1
  Al  Al5  1  0.55970529  0.19583361  0.14717676  1
  Al  Al6  1  0.10696605  0.09486296  0.90442686  1
  Al  Al7  1  0.22147799  0.20146395  0.64814573  1
  Al  Al8  1  0.78040342  0.09483632  0.40140256  1
  Al  Al9  1  0.88467303  0.20286437  0.15097816  1
  Al  Al10  1  0.44137412  0.09617601  0.90007245  1
  Al  Al11  1  0.55849863  0.20293411  0.65251716  1
  Al  Al12  1  0.10995639  0.42204220  0.40538472  1
  Al  Al13  1  0.21973120  0.54124938  0.15253932  1
  Al  Al14  1  0.77615839  0.41462994  0.89853391  1
  Al  Al15  1  0.88330185  0.53452410  0.65175534  1
  Al  Al16  1  0.55757511  0.53892922  0.15148874  1
  Al  Al17  1  0.78162169  0.42294470  0.40458746  1
  Al  Al18  1  0.44970579  0.42379759  0.90696495  1
  Al  Al19  1  0.56628580  0.52794064  0.64986596  1
  Al  Al20  1  0.10478137  0.76973747  0.39453763  1
  Al  Al21  1  0.22170773  0.87427468  0.15605498  1
  Al  Al22  1  0.88571464  0.88065307  0.65264991  1
  Al  Al23  1  0.44773683  0.76101718  0.39986528  1
  Al  Al24  1  0.54662496  0.88009053  0.15595081  1
  Al  Al25  1  0.11072594  0.76926183  0.90726459  1
  Al  Al26  1  0.88781617  0.88166171  0.15126920  1
  Al  Al27  1  0.55504610  0.87633986  0.64848378  1
  Sc  Sc28  1  0.45139769  0.42224849  0.38259550  1
  Sc  Sc29  1  0.11887630  0.42145764  0.88981540  1
  Sc  Sc30  1  0.22548618  0.54236119  0.64097448  1
  Sc  Sc31  1  0.88890522  0.53200303  0.14650171  1
  Sc  Sc32  1  0.77567654  0.76917098  0.89247602  1
  Sc  Sc33  1  0.21716712  0.88113702  0.63963337  1
  Sc  Sc34  1  0.77859626  0.76475910  0.39651909  1
  Sc  Sc35  1  0.44362464  0.75704216  0.89509252  1
  N  N36  1  0.22331855  0.20632890  0.34399949  1
  N  N37  1  0.10909647  0.09670903  0.09844008  1
  N  N38  1  0.89108035  0.20211049  0.84089051  1
  N  N39  1  0.77586659  0.09654157  0.59352056  1
  N  N40  1  0.56831736  0.17925971  0.33576788  1
  N  N41  1  0.44207694  0.09402774  0.09084069  1
  N  N42  1  0.22965050  0.18343655  0.83705216  1
  N  N43  1  0.09682062  0.11725238  0.58289292  1
  N  N44  1  0.88478046  0.20745830  0.34144838  1
  N  N45  1  0.77754725  0.09515633  0.08854782  1
  N  N46  1  0.55323713  0.20546054  0.84653570  1
  N  N47  1  0.44310195  0.09708153  0.59120577  1
  N  N48  1  0.20140272  0.54921042  0.34685343  1
  N  N49  1  0.13090852  0.41662042  0.09790539  1
  N  N50  1  0.87690317  0.52787554  0.84405560  1
  N  N51  1  0.77908542  0.42387732  0.59346400  1
  N  N52  1  0.57015302  0.54810092  0.33893053  1
  N  N53  1  0.44528604  0.42626960  0.10628066  1
  N  N54  1  0.23401386  0.55343978  0.85199499  1
  N  N55  1  0.10368521  0.41971548  0.60071011  1
  N  N56  1  0.89764101  0.52019421  0.35449790  1
  N  N57  1  0.76753257  0.41391057  0.08657099  1
  N  N58  1  0.56567215  0.51510538  0.83915001  1
  N  N59  1  0.46683096  0.41418037  0.59081146  1
  N  N60  1  0.22313857  0.87426788  0.35017862  1
  N  N61  1  0.11046927  0.76336909  0.09882657  1
  N  N62  1  0.89937616  0.88494870  0.84090020  1
  N  N63  1  0.77926868  0.76216507  0.61294184  1
  N  N64  1  0.53520028  0.88413855  0.34400472  1
  N  N65  1  0.44333505  0.76146009  0.10543619  1
  N  N66  1  0.20438738  0.88424247  0.84942161  1
  N  N67  1  0.08879647  0.77522740  0.58016938  1
  N  N68  1  0.89584879  0.88760448  0.33701315  1
  N  N69  1  0.76752091  0.77976073  0.10981443  1
  N  N70  1  0.54309038  0.89168402  0.83413522  1
  N  N71  1  0.46535700  0.74768664  0.59350835  1
