# generated using pymatgen
data_Sc2Al7N9
_symmetry_space_group_name_H-M   'P 1'
_cell_length_a   10.16128382
_cell_length_b   10.20556272
_cell_length_c   8.81124187
_cell_angle_alpha   90.03121284
_cell_angle_beta   90.03420546
_cell_angle_gamma   60.13000725
_symmetry_Int_Tables_number   1
_chemical_formula_structural   Sc2Al7N9
_chemical_formula_sum   'Sc8 Al28 N36'
_cell_volume   792.35654761
_cell_formula_units_Z   4
loop_
 _symmetry_equiv_pos_site_id
 _symmetry_equiv_pos_as_xyz
  1  'x, y, z'
loop_
 _atom_site_type_symbol
 _atom_site_label
 _atom_site_symmetry_multiplicity
 _atom_site_fract_x
 _atom_site_fract_y
 _atom_site_fract_z
 _atom_site_occupancy
  Al  Al0  1  0.10626993  0.09881065  0.33783172  1
  Al  Al1  1  0.22835137  0.19825939  0.09747433  1
  Al  Al2  1  0.77836734  0.09843239  0.84162879  1
  Al  Al3  1  0.88641637  0.20553095  0.58765733  1
  Al  Al4  1  0.44274235  0.09423158  0.34175407  1
  Al  Al5  1  0.55576897  0.20095074  0.08564764  1
  Al  Al6  1  0.10617976  0.09870932  0.84440726  1
  Al  Al7  1  0.21994507  0.20507176  0.58264806  1
  Al  Al8  1  0.77920553  0.09609267  0.33492136  1
  Al  Al9  1  0.88666007  0.20277908  0.08882917  1
  Al  Al10  1  0.44067675  0.09757816  0.83588863  1
  Al  Al11  1  0.56152155  0.19852786  0.59455519  1
  Al  Al12  1  0.11293580  0.42363263  0.34661665  1
  Al  Al13  1  0.22518075  0.54110968  0.09787456  1
  Al  Al14  1  0.77842394  0.41581744  0.83449226  1
  Al  Al15  1  0.88821157  0.53055190  0.59581590  1
  Al  Al16  1  0.56003959  0.52934339  0.09504635  1
  Al  Al17  1  0.78037686  0.41917356  0.34588988  1
  Al  Al18  1  0.45263577  0.42155379  0.84899353  1
  Al  Al19  1  0.56448330  0.53464313  0.58893547  1
  Al  Al20  1  0.10806768  0.76749457  0.33241607  1
  Al  Al21  1  0.21841778  0.87787344  0.09987857  1
  Al  Al22  1  0.88468584  0.88427631  0.58848384  1
  Al  Al23  1  0.44532868  0.76123524  0.34062823  1
  Al  Al24  1  0.54971545  0.88246578  0.09464914  1
  Al  Al25  1  0.10692696  0.77184429  0.85244542  1
  Al  Al26  1  0.88718420  0.88208197  0.09209604  1
  Al  Al27  1  0.55079992  0.87612644  0.59027913  1
  Sc  Sc28  1  0.44974909  0.42121914  0.34877713  1
  Sc  Sc29  1  0.11747009  0.41893910  0.85331919  1
  Sc  Sc30  1  0.21947191  0.54529731  0.60245470  1
  Sc  Sc31  1  0.88538959  0.53254517  0.10386970  1
  Sc  Sc32  1  0.77810339  0.76743613  0.84825916  1
  Sc  Sc33  1  0.21951598  0.87936746  0.59711920  1
  Sc  Sc34  1  0.77602307  0.76651245  0.35257177  1
  Sc  Sc35  1  0.44759387  0.75501770  0.85577864  1
  N  N36  1  0.22263480  0.20415333  0.35805384  1
  N  N37  1  0.10651697  0.09835505  0.11561769  1
  N  N38  1  0.88931561  0.20436115  0.86509825  1
  N  N39  1  0.77718863  0.09716410  0.61904396  1
  N  N40  1  0.56745388  0.18319391  0.36833069  1
  N  N41  1  0.44462993  0.09651023  0.11843015  1
  N  N42  1  0.23089677  0.18579496  0.87073371  1
  N  N43  1  0.09962978  0.11459851  0.61249896  1
  N  N44  1  0.88797425  0.20239584  0.36536394  1
  N  N45  1  0.77410804  0.09847411  0.11176124  1
  N  N46  1  0.55433266  0.20266758  0.86056899  1
  N  N47  1  0.43974383  0.09691744  0.61145937  1
  N  N48  1  0.20575174  0.55088219  0.34907534  1
  N  N49  1  0.12867696  0.41751904  0.11100520  1
  N  N50  1  0.87884937  0.52811420  0.85164864  1
  N  N51  1  0.77863769  0.42178272  0.60762288  1
  N  N52  1  0.56424622  0.54598361  0.35960279  1
  N  N53  1  0.44656986  0.42212253  0.10182059  1
  N  N54  1  0.23172132  0.55052517  0.86262334  1
  N  N55  1  0.10669427  0.41882338  0.60113017  1
  N  N56  1  0.89556402  0.52172087  0.36138765  1
  N  N57  1  0.77120969  0.41184141  0.12149589  1
  N  N58  1  0.56931454  0.51622261  0.86667979  1
  N  N59  1  0.46370301  0.41707721  0.61035305  1
  N  N60  1  0.22187068  0.87407082  0.34620380  1
  N  N61  1  0.10962192  0.76397587  0.10763616  1
  N  N62  1  0.89412428  0.88740019  0.86937565  1
  N  N63  1  0.77657640  0.76565350  0.60152526  1
  N  N64  1  0.53553653  0.88305566  0.36225920  1
  N  N65  1  0.44713018  0.75809796  0.11185662  1
  N  N66  1  0.20747927  0.88533562  0.86561800  1
  N  N67  1  0.09121626  0.77597300  0.61937243  1
  N  N68  1  0.89729531  0.88598935  0.36050783  1
  N  N69  1  0.77029578  0.77768181  0.10625014  1
  N  N70  1  0.54527175  0.89133973  0.86466373  1
  N  N71  1  0.46155890  0.74964171  0.60554621  1
