# generated using pymatgen
data_Sc2Al7N9
_symmetry_space_group_name_H-M   'P 1'
_cell_length_a   9.78832289
_cell_length_b   9.81372047
_cell_length_c   9.94064100
_cell_angle_alpha   90.04698015
_cell_angle_beta   90.07775167
_cell_angle_gamma   60.05807846
_symmetry_Int_Tables_number   1
_chemical_formula_structural   Sc2Al7N9
_chemical_formula_sum   'Sc8 Al28 N36'
_cell_volume   827.44751210
_cell_formula_units_Z   4
loop_
 _symmetry_equiv_pos_site_id
 _symmetry_equiv_pos_as_xyz
  1  'x, y, z'
loop_
 _atom_site_type_symbol
 _atom_site_label
 _atom_site_symmetry_multiplicity
 _atom_site_fract_x
 _atom_site_fract_y
 _atom_site_fract_z
 _atom_site_occupancy
  Al  Al0  1  0.10547036  0.10299795  0.37471326  1
  Al  Al1  1  0.22695052  0.20326637  0.13302019  1
  Al  Al2  1  0.77905750  0.09855856  0.87882486  1
  Al  Al3  1  0.88639655  0.20853373  0.63020641  1
  Al  Al4  1  0.44136207  0.09475550  0.38120366  1
  Al  Al5  1  0.56048003  0.19445158  0.12700890  1
  Al  Al6  1  0.10695276  0.09468796  0.88518334  1
  Al  Al7  1  0.22154148  0.20071582  0.62866558  1
  Al  Al8  1  0.78007921  0.09447829  0.38256421  1
  Al  Al9  1  0.88439740  0.20239591  0.13187673  1
  Al  Al10  1  0.44100877  0.09651929  0.88060457  1
  Al  Al11  1  0.55809322  0.20344795  0.63286036  1
  Al  Al12  1  0.10923862  0.42173810  0.38611956  1
  Al  Al13  1  0.21944644  0.54115177  0.13282927  1
  Al  Al14  1  0.77606009  0.41353787  0.87959293  1
  Al  Al15  1  0.88230465  0.53495239  0.63312727  1
  Al  Al16  1  0.55779784  0.54006698  0.13094275  1
  Al  Al17  1  0.78199607  0.42308474  0.38377749  1
  Al  Al18  1  0.44927651  0.42417927  0.88787435  1
  Al  Al19  1  0.56693434  0.52630327  0.63003629  1
  Al  Al20  1  0.10404363  0.77002468  0.37424811  1
  Al  Al21  1  0.22280755  0.87375416  0.13621895  1
  Al  Al22  1  0.88532351  0.88068463  0.63290048  1
  Al  Al23  1  0.44845053  0.76025459  0.38177746  1
  Al  Al24  1  0.54580872  0.87987534  0.13558548  1
  Al  Al25  1  0.11148587  0.76923191  0.88644770  1
  Al  Al26  1  0.88804730  0.88198260  0.13070188  1
  Al  Al27  1  0.55521974  0.87689866  0.62801556  1
  Sc  Sc28  1  0.45279895  0.42122020  0.35889793  1
  Sc  Sc29  1  0.12021386  0.42189430  0.86489582  1
  Sc  Sc30  1  0.22667087  0.54264268  0.61641642  1
  Sc  Sc31  1  0.89049044  0.53070370  0.12114654  1
  Sc  Sc32  1  0.77515648  0.77000185  0.87169114  1
  Sc  Sc33  1  0.21577707  0.88228063  0.61632132  1
  Sc  Sc34  1  0.77889814  0.76356388  0.37229088  1
  Sc  Sc35  1  0.44313647  0.75718753  0.87014716  1
  N  N36  1  0.22338895  0.20687249  0.32601752  1
  N  N37  1  0.10916750  0.09645757  0.08177593  1
  N  N38  1  0.89139923  0.20194372  0.82315459  1
  N  N39  1  0.77555460  0.09663659  0.57670163  1
  N  N40  1  0.56903444  0.17792228  0.31791076  1
  N  N41  1  0.44219816  0.09370718  0.07334986  1
  N  N42  1  0.22971027  0.18285891  0.81997962  1
  N  N43  1  0.09599514  0.11864429  0.56432676  1
  N  N44  1  0.88407342  0.20716003  0.32417770  1
  N  N45  1  0.77764468  0.09508673  0.07033199  1
  N  N46  1  0.55256887  0.20612468  0.82928318  1
  N  N47  1  0.44266104  0.09760269  0.57352610  1
  N  N48  1  0.20156542  0.54871604  0.33126367  1
  N  N49  1  0.13288282  0.41614585  0.07710278  1
  N  N50  1  0.87641456  0.52803189  0.82988533  1
  N  N51  1  0.77940426  0.42403867  0.57555320  1
  N  N52  1  0.57030630  0.54898946  0.32121364  1
  N  N53  1  0.44537434  0.42632707  0.09040823  1
  N  N54  1  0.23540969  0.55427827  0.83156640  1
  N  N55  1  0.10318566  0.41998196  0.58595624  1
  N  N56  1  0.89873786  0.51873242  0.33353244  1
  N  N57  1  0.76757963  0.41275666  0.06984621  1
  N  N58  1  0.56641750  0.51370995  0.82201557  1
  N  N59  1  0.46833353  0.41315155  0.57063885  1
  N  N60  1  0.22376107  0.87390587  0.33383228  1
  N  N61  1  0.11120398  0.76303277  0.08127856  1
  N  N62  1  0.89938448  0.88498623  0.82389390  1
  N  N63  1  0.77922422  0.76179053  0.59424158  1
  N  N64  1  0.53434493  0.88404308  0.32694728  1
  N  N65  1  0.44324009  0.76154861  0.08476197  1
  N  N66  1  0.20338589  0.88538506  0.82970016  1
  N  N67  1  0.08769657  0.77596400  0.56248314  1
  N  N68  1  0.89567848  0.88789673  0.31911829  1
  N  N69  1  0.76738675  0.77983507  0.09343819  1
  N  N70  1  0.54330493  0.89261796  0.81650857  1
  N  N71  1  0.46534081  0.74707463  0.57884157  1
