# generated using pymatgen
data_Sc2Al7N9
_symmetry_space_group_name_H-M   'P 1'
_cell_length_a   9.73156740
_cell_length_b   9.75674099
_cell_length_c   10.10296181
_cell_angle_alpha   90.04566338
_cell_angle_beta   90.07779179
_cell_angle_gamma   60.02654628
_symmetry_Int_Tables_number   1
_chemical_formula_structural   Sc2Al7N9
_chemical_formula_sum   'Sc8 Al28 N36'
_cell_volume   830.96478581
_cell_formula_units_Z   4
loop_
 _symmetry_equiv_pos_site_id
 _symmetry_equiv_pos_as_xyz
  1  'x, y, z'
loop_
 _atom_site_type_symbol
 _atom_site_label
 _atom_site_symmetry_multiplicity
 _atom_site_fract_x
 _atom_site_fract_y
 _atom_site_fract_z
 _atom_site_occupancy
  Al  Al0  1  0.10606713  0.10189743  0.40011669  1
  Al  Al1  1  0.22674384  0.20259248  0.15797146  1
  Al  Al2  1  0.77900894  0.09841082  0.90350119  1
  Al  Al3  1  0.88633095  0.20830864  0.65441168  1
  Al  Al4  1  0.44138161  0.09474171  0.40533479  1
  Al  Al5  1  0.55963366  0.19594594  0.15153105  1
  Al  Al6  1  0.10696992  0.09484586  0.90875086  1
  Al  Al7  1  0.22147463  0.20146928  0.65247336  1
  Al  Al8  1  0.78038214  0.09488563  0.40569869  1
  Al  Al9  1  0.88466988  0.20289974  0.15530053  1
  Al  Al10  1  0.44138728  0.09616897  0.90441391  1
  Al  Al11  1  0.55847941  0.20294545  0.65687638  1
  Al  Al12  1  0.10995721  0.42205413  0.40967775  1
  Al  Al13  1  0.21970003  0.54127624  0.15689140  1
  Al  Al14  1  0.77614229  0.41465854  0.90285101  1
  Al  Al15  1  0.88335467  0.53444261  0.65606363  1
  Al  Al16  1  0.55753473  0.53889322  0.15586217  1
  Al  Al17  1  0.78158132  0.42295217  0.40897033  1
  Al  Al18  1  0.44966632  0.42382019  0.91127288  1
  Al  Al19  1  0.56622798  0.52802733  0.65422376  1
  Al  Al20  1  0.10478719  0.76975379  0.39887868  1
  Al  Al21  1  0.22166591  0.87430601  0.16040732  1
  Al  Al22  1  0.88573854  0.88069623  0.65701422  1
  Al  Al23  1  0.44773671  0.76105965  0.40411607  1
  Al  Al24  1  0.54669168  0.88012025  0.16029770  1
  Al  Al25  1  0.11069908  0.76926589  0.91166919  1
  Al  Al26  1  0.88776617  0.88168011  0.15560969  1
  Al  Al27  1  0.55502778  0.87633823  0.65286062  1
  Sc  Sc28  1  0.45129707  0.42233530  0.38713109  1
  Sc  Sc29  1  0.11882079  0.42138819  0.89440587  1
  Sc  Sc30  1  0.22534449  0.54236650  0.64550663  1
  Sc  Sc31  1  0.88875532  0.53212600  0.15103607  1
  Sc  Sc32  1  0.77574326  0.76910772  0.89672112  1
  Sc  Sc33  1  0.21725034  0.88105526  0.64409316  1
  Sc  Sc34  1  0.77861801  0.76481301  0.40111194  1
  Sc  Sc35  1  0.44366927  0.75705309  0.89965631  1
  N  N36  1  0.22330753  0.20629564  0.34831061  1
  N  N37  1  0.10908881  0.09671996  0.10269468  1
  N  N38  1  0.89105812  0.20211039  0.84517912  1
  N  N39  1  0.77584717  0.09656397  0.59777077  1
  N  N40  1  0.56824008  0.17938676  0.34006348  1
  N  N41  1  0.44205242  0.09407633  0.09513190  1
  N  N42  1  0.22964494  0.18343749  0.84131811  1
  N  N43  1  0.09686156  0.11716379  0.58722483  1
  N  N44  1  0.88479674  0.20748257  0.34572639  1
  N  N45  1  0.77751345  0.09520566  0.09286141  1
  N  N46  1  0.55323233  0.20546117  0.85081825  1
  N  N47  1  0.44312811  0.09706788  0.59548987  1
  N  N48  1  0.20135880  0.54924924  0.35107509  1
  N  N49  1  0.13077535  0.41665993  0.10237727  1
  N  N50  1  0.87694388  0.52780050  0.84822422  1
  N  N51  1  0.77905138  0.42385716  0.59776347  1
  N  N52  1  0.57011437  0.54806690  0.34322293  1
  N  N53  1  0.44523436  0.42631104  0.11047802  1
  N  N54  1  0.23387471  0.55340551  0.85641142  1
  N  N55  1  0.10369782  0.41966564  0.60485736  1
  N  N56  1  0.89754093  0.52029635  0.35891967  1
  N  N57  1  0.76751012  0.41396720  0.09083031  1
  N  N58  1  0.56560090  0.51519089  0.84343249  1
  N  N59  1  0.46669888  0.41427284  0.59524869  1
  N  N60  1  0.22311788  0.87428834  0.35442271  1
  N  N61  1  0.11043556  0.76340518  0.10313157  1
  N  N62  1  0.89938323  0.88498994  0.84517613  1
  N  N63  1  0.77930753  0.76216405  0.61737246  1
  N  N64  1  0.53529251  0.88414239  0.34826973  1
  N  N65  1  0.44335363  0.76147815  0.10986969  1
  N  N66  1  0.20445436  0.88416591  0.85379353  1
  N  N67  1  0.08883256  0.77521327  0.58444502  1
  N  N68  1  0.89581142  0.88762362  0.34129251  1
  N  N69  1  0.76752814  0.77979141  0.11393769  1
  N  N70  1  0.54307374  0.89166453  0.83842792  1
  N  N71  1  0.46539040  0.74772008  0.59766707  1
