# generated using pymatgen
data_Sc2Al7N9
_symmetry_space_group_name_H-M   'P 1'
_cell_length_a   10.18833856
_cell_length_b   10.23347910
_cell_length_c   8.73109328
_cell_angle_alpha   90.03487692
_cell_angle_beta   90.03659895
_cell_angle_gamma   60.13553961
_symmetry_Int_Tables_number   1
_chemical_formula_structural   Sc2Al7N9
_chemical_formula_sum   'Sc8 Al28 N36'
_cell_volume   789.43678133
_cell_formula_units_Z   4
loop_
 _symmetry_equiv_pos_site_id
 _symmetry_equiv_pos_as_xyz
  1  'x, y, z'
loop_
 _atom_site_type_symbol
 _atom_site_label
 _atom_site_symmetry_multiplicity
 _atom_site_fract_x
 _atom_site_fract_y
 _atom_site_fract_z
 _atom_site_occupancy
  Al  Al0  1  0.10629536  0.09913220  0.34039215  1
  Al  Al1  1  0.22810486  0.19863697  0.09973904  1
  Al  Al2  1  0.77829420  0.09852254  0.84395799  1
  Al  Al3  1  0.88635488  0.20567760  0.58986345  1
  Al  Al4  1  0.44261097  0.09427923  0.34407389  1
  Al  Al5  1  0.55605331  0.20061317  0.08827329  1
  Al  Al6  1  0.10621906  0.09837260  0.84786250  1
  Al  Al7  1  0.22026846  0.20474721  0.58535626  1
  Al  Al8  1  0.77909055  0.09603245  0.33745211  1
  Al  Al9  1  0.88672311  0.20264482  0.09191378  1
  Al  Al10  1  0.44088636  0.09754030  0.83885874  1
  Al  Al11  1  0.56112861  0.19889395  0.59672137  1
  Al  Al12  1  0.11284541  0.42348873  0.34847567  1
  Al  Al13  1  0.22465127  0.54142814  0.09954026  1
  Al  Al14  1  0.77855668  0.41568460  0.83789379  1
  Al  Al15  1  0.88816764  0.53022052  0.59762597  1
  Al  Al16  1  0.55979464  0.53027216  0.09750798  1
  Al  Al17  1  0.78030789  0.41949243  0.34787978  1
  Al  Al18  1  0.45240204  0.42162835  0.85121056  1
  Al  Al19  1  0.56457920  0.53393057  0.59221261  1
  Al  Al20  1  0.10774959  0.76772576  0.33540399  1
  Al  Al21  1  0.21868231  0.87761468  0.10200164  1
  Al  Al22  1  0.88454427  0.88420633  0.59158197  1
  Al  Al23  1  0.44579965  0.76090192  0.34375084  1
  Al  Al24  1  0.54950000  0.88200692  0.09762169  1
  Al  Al25  1  0.10724898  0.77153810  0.85480927  1
  Al  Al26  1  0.88730222  0.88198807  0.09435786  1
  Al  Al27  1  0.55101465  0.87638885  0.59320852  1
  Sc  Sc28  1  0.44993362  0.42123240  0.34904056  1
  Sc  Sc29  1  0.11773234  0.41896500  0.85347468  1
  Sc  Sc30  1  0.21976096  0.54533231  0.60263587  1
  Sc  Sc31  1  0.88573385  0.53248652  0.10425286  1
  Sc  Sc32  1  0.77803325  0.76740876  0.84905562  1
  Sc  Sc33  1  0.21920214  0.87969397  0.59771430  1
  Sc  Sc34  1  0.77614254  0.76639447  0.35324127  1
  Sc  Sc35  1  0.44736038  0.75518247  0.85600566  1
  N  N36  1  0.22286323  0.20408317  0.35625849  1
  N  N37  1  0.10674723  0.09835603  0.11355304  1
  N  N38  1  0.88957852  0.20403980  0.86293389  1
  N  N39  1  0.77692237  0.09737692  0.61654449  1
  N  N40  1  0.56700241  0.18378746  0.36506634  1
  N  N41  1  0.44441860  0.09628170  0.11543076  1
  N  N42  1  0.23052213  0.18618463  0.86745955  1
  N  N43  1  0.09960832  0.11430881  0.60888124  1
  N  N44  1  0.88764174  0.20274759  0.36246141  1
  N  N45  1  0.77428632  0.09827997  0.10936269  1
  N  N46  1  0.55446480  0.20263546  0.85888000  1
  N  N47  1  0.44001477  0.09704225  0.60925958  1
  N  N48  1  0.20615946  0.55070065  0.34720815  1
  N  N49  1  0.12842944  0.41750101  0.11069807  1
  N  N50  1  0.87929470  0.52802266  0.84939225  1
  N  N51  1  0.77862828  0.42155032  0.60583754  1
  N  N52  1  0.56445509  0.54533890  0.35701621  1
  N  N53  1  0.44672829  0.42226337  0.09967907  1
  N  N54  1  0.23126352  0.55071609  0.86229533  1
  N  N55  1  0.10711735  0.41881289  0.59921623  1
  N  N56  1  0.89535044  0.52195497  0.36128613  1
  N  N57  1  0.77138752  0.41231421  0.11793507  1
  N  N58  1  0.56880861  0.51700071  0.86352474  1
  N  N59  1  0.46327274  0.41704260  0.60973118  1
  N  N60  1  0.22180661  0.87429440  0.34480789  1
  N  N61  1  0.10941465  0.76424657  0.10637537  1
  N  N62  1  0.89436105  0.88703466  0.86642200  1
  N  N63  1  0.77660119  0.76580726  0.60163847  1
  N  N64  1  0.53604217  0.88306869  0.35991709  1
  N  N65  1  0.44710442  0.75814897  0.11170281  1
  N  N66  1  0.20765074  0.88504065  0.86462219  1
  N  N67  1  0.09169057  0.77570720  0.61512457  1
  N  N68  1  0.89669256  0.88598903  0.35799828  1
  N  N69  1  0.77020363  0.77750255  0.10546278  1
  N  N70  1  0.54522286  0.89083850  0.86108711  1
  N  N71  1  0.46134500  0.74962374  0.60229518  1
