# generated using pymatgen
data_Sc2Al7N9
_symmetry_space_group_name_H-M   'P 1'
_cell_length_a   9.89660694
_cell_length_b   9.92790365
_cell_length_c   9.62043457
_cell_angle_alpha   90.05624810
_cell_angle_beta   90.08263990
_cell_angle_gamma   60.08502155
_symmetry_Int_Tables_number   1
_chemical_formula_structural   Sc2Al7N9
_chemical_formula_sum   'Sc8 Al28 N36'
_cell_volume   819.29473364
_cell_formula_units_Z   4
loop_
 _symmetry_equiv_pos_site_id
 _symmetry_equiv_pos_as_xyz
  1  'x, y, z'
loop_
 _atom_site_type_symbol
 _atom_site_label
 _atom_site_symmetry_multiplicity
 _atom_site_fract_x
 _atom_site_fract_y
 _atom_site_fract_z
 _atom_site_occupancy
  Al  Al0  1  0.10489770  0.10395353  0.36964158  1
  Al  Al1  1  0.22724848  0.20380849  0.13056137  1
  Al  Al2  1  0.77949178  0.09862840  0.87546350  1
  Al  Al3  1  0.88704774  0.20833538  0.62751358  1
  Al  Al4  1  0.44162627  0.09538787  0.37912586  1
  Al  Al5  1  0.56092886  0.19367352  0.12300822  1
  Al  Al6  1  0.10698701  0.09447712  0.88457422  1
  Al  Al7  1  0.22145921  0.19993530  0.62585838  1
  Al  Al8  1  0.77907031  0.09472185  0.38161835  1
  Al  Al9  1  0.88356145  0.20222523  0.13059251  1
  Al  Al10  1  0.44051405  0.09651001  0.87830566  1
  Al  Al11  1  0.55730191  0.20407967  0.63183647  1
  Al  Al12  1  0.10907963  0.42176129  0.38253739  1
  Al  Al13  1  0.21958874  0.54095275  0.12910829  1
  Al  Al14  1  0.77645340  0.41244779  0.87794921  1
  Al  Al15  1  0.88248794  0.53424967  0.62945542  1
  Al  Al16  1  0.55806831  0.54032571  0.12711698  1
  Al  Al17  1  0.78171591  0.42311353  0.38049372  1
  Al  Al18  1  0.44852387  0.42461407  0.88568237  1
  Al  Al19  1  0.56710542  0.52535645  0.62833113  1
  Al  Al20  1  0.10347880  0.77025309  0.36982143  1
  Al  Al21  1  0.22400373  0.87336024  0.13329541  1
  Al  Al22  1  0.88572841  0.88105074  0.63069720  1
  Al  Al23  1  0.44918407  0.75915113  0.37953135  1
  Al  Al24  1  0.54544702  0.88002187  0.13284094  1
  Al  Al25  1  0.11206513  0.76920622  0.88451714  1
  Al  Al26  1  0.88725400  0.88302847  0.12699587  1
  Al  Al27  1  0.55484884  0.87754731  0.62383187  1
  Sc  Sc28  1  0.45386820  0.42017649  0.35390112  1
  Sc  Sc29  1  0.12089141  0.42131158  0.85835534  1
  Sc  Sc30  1  0.22633509  0.54357387  0.60971242  1
  Sc  Sc31  1  0.89059791  0.53046395  0.11319626  1
  Sc  Sc32  1  0.77517302  0.76980447  0.86504948  1
  Sc  Sc33  1  0.21485813  0.88320908  0.60967364  1
  Sc  Sc34  1  0.77914406  0.76334033  0.36542260  1
  Sc  Sc35  1  0.44303329  0.75764219  0.86279093  1
  N  N36  1  0.22388969  0.20721538  0.32908549  1
  N  N37  1  0.10899352  0.09653589  0.08738813  1
  N  N38  1  0.89222892  0.20159981  0.82597498  1
  N  N39  1  0.77479295  0.09710813  0.58132657  1
  N  N40  1  0.56921814  0.17785671  0.32022768  1
  N  N41  1  0.44200749  0.09353655  0.07649555  1
  N  N42  1  0.22942454  0.18234269  0.82367582  1
  N  N43  1  0.09560807  0.11913916  0.56564067  1
  N  N44  1  0.88291991  0.20699829  0.32788906  1
  N  N45  1  0.77753085  0.09558470  0.07223980  1
  N  N46  1  0.55196197  0.20653148  0.83354940  1
  N  N47  1  0.44236539  0.09853511  0.57680221  1
  N  N48  1  0.20264315  0.54815041  0.33584997  1
  N  N49  1  0.13316364  0.41603456  0.07938599  1
  N  N50  1  0.87685487  0.52738459  0.83624124  1
  N  N51  1  0.77926400  0.42372545  0.57855960  1
  N  N52  1  0.56988575  0.54882001  0.32405617  1
  N  N53  1  0.44534847  0.42631959  0.09338746  1
  N  N54  1  0.23508588  0.55460806  0.83427671  1
  N  N55  1  0.10363956  0.41974061  0.59079931  1
  N  N56  1  0.89866828  0.51863129  0.33545632  1
  N  N57  1  0.76823858  0.41170368  0.07428275  1
  N  N58  1  0.56674480  0.51343277  0.82686579  1
  N  N59  1  0.46822767  0.41296003  0.57362108  1
  N  N60  1  0.22452199  0.87358985  0.33752312  1
  N  N61  1  0.11156138  0.76314084  0.08590678  1
  N  N62  1  0.89968615  0.88480249  0.82840157  1
  N  N63  1  0.77960774  0.76157677  0.59699240  1
  N  N64  1  0.53415553  0.88412919  0.33185584  1
  N  N65  1  0.44372766  0.76154569  0.08610031  1
  N  N66  1  0.20304586  0.88604746  0.83249000  1
  N  N67  1  0.08756381  0.77659845  0.56534301  1
  N  N68  1  0.89478405  0.88877708  0.32209879  1
  N  N69  1  0.76717826  0.77999188  0.09695166  1
  N  N70  1  0.54349442  0.89314089  0.81945620  1
  N  N71  1  0.46504733  0.74643576  0.58463759  1
