# generated using pymatgen
data_Sc2Al7N9
_symmetry_space_group_name_H-M   'P 1'
_cell_length_a   10.22152319
_cell_length_b   10.26673136
_cell_length_c   8.63980279
_cell_angle_alpha   90.05578663
_cell_angle_beta   90.05762547
_cell_angle_gamma   60.14088775
_symmetry_Int_Tables_number   1
_chemical_formula_structural   Sc2Al7N9
_chemical_formula_sum   'Sc8 Al28 N36'
_cell_volume   786.31543959
_cell_formula_units_Z   4
loop_
 _symmetry_equiv_pos_site_id
 _symmetry_equiv_pos_as_xyz
  1  'x, y, z'
loop_
 _atom_site_type_symbol
 _atom_site_label
 _atom_site_symmetry_multiplicity
 _atom_site_fract_x
 _atom_site_fract_y
 _atom_site_fract_z
 _atom_site_occupancy
  Al  Al0  1  0.10623812  0.10073797  0.35155261  1
  Al  Al1  1  0.22780910  0.20060211  0.11280737  1
  Al  Al2  1  0.77866967  0.09877378  0.85836190  1
  Al  Al3  1  0.88748586  0.20672681  0.60763852  1
  Al  Al4  1  0.44215138  0.09496930  0.35944865  1
  Al  Al5  1  0.55817170  0.19873281  0.10264174  1
  Al  Al6  1  0.10597933  0.09719241  0.86863310  1
  Al  Al7  1  0.22081598  0.20301976  0.60106288  1
  Al  Al8  1  0.77852110  0.09563702  0.36102221  1
  Al  Al9  1  0.88495724  0.20212543  0.11294926  1
  Al  Al10  1  0.44120960  0.09678381  0.85709967  1
  Al  Al11  1  0.55875866  0.20056458  0.61243282  1
  Al  Al12  1  0.11342964  0.42272225  0.35310574  1
  Al  Al13  1  0.22390582  0.54186860  0.10299470  1
  Al  Al14  1  0.77898464  0.41481620  0.85672556  1
  Al  Al15  1  0.88788356  0.52968370  0.60136842  1
  Al  Al16  1  0.55893163  0.53272310  0.10507448  1
  Al  Al17  1  0.77995110  0.42069679  0.35973999  1
  Al  Al18  1  0.45148798  0.42206386  0.85696301  1
  Al  Al19  1  0.56549676  0.53175829  0.60591365  1
  Al  Al20  1  0.10637352  0.76868607  0.34701617  1
  Al  Al21  1  0.21990020  0.87600495  0.10844872  1
  Al  Al22  1  0.88506846  0.88274530  0.60952574  1
  Al  Al23  1  0.44691946  0.75984553  0.35002346  1
  Al  Al24  1  0.54867156  0.88093188  0.11028972  1
  Al  Al25  1  0.10846659  0.77054828  0.86585171  1
  Al  Al26  1  0.88678174  0.88290630  0.10676754  1
  Al  Al27  1  0.55178421  0.87690078  0.60356132  1
  Sc  Sc28  1  0.45092070  0.42127111  0.34963593  1
  Sc  Sc29  1  0.11775062  0.41926926  0.85326226  1
  Sc  Sc30  1  0.22027001  0.54548259  0.60217536  1
  Sc  Sc31  1  0.88675743  0.53250736  0.10570610  1
  Sc  Sc32  1  0.77735688  0.76671225  0.85153402  1
  Sc  Sc33  1  0.21819124  0.88133380  0.59858096  1
  Sc  Sc34  1  0.77702768  0.76653618  0.35570434  1
  Sc  Sc35  1  0.44639699  0.75629842  0.85616063  1
  N  N36  1  0.22453968  0.20451823  0.34773051  1
  N  N37  1  0.10712316  0.09915589  0.10546900  1
  N  N38  1  0.89162241  0.20229290  0.84548427  1
  N  N39  1  0.77525760  0.09790231  0.60039451  1
  N  N40  1  0.56600768  0.18446132  0.34431660  1
  N  N41  1  0.44287990  0.09520429  0.09731538  1
  N  N42  1  0.22857130  0.18607521  0.84760462  1
  N  N43  1  0.09903329  0.11386004  0.58649775  1
  N  N44  1  0.88499853  0.20478889  0.34687643  1
  N  N45  1  0.77581048  0.09730934  0.09240467  1
  N  N46  1  0.55459029  0.20296080  0.85041632  1
  N  N47  1  0.44181214  0.09763002  0.59705755  1
  N  N48  1  0.20723226  0.54958865  0.34290195  1
  N  N49  1  0.12841177  0.41726838  0.10748965  1
  N  N50  1  0.87992881  0.52758456  0.84540614  1
  N  N51  1  0.77865836  0.42165878  0.59672833  1
  N  N52  1  0.56599294  0.54418303  0.34589723  1
  N  N53  1  0.44702592  0.42316775  0.09464847  1
  N  N54  1  0.23002682  0.55202391  0.85989836  1
  N  N55  1  0.10763978  0.41888812  0.59543289  1
  N  N56  1  0.89553637  0.52199594  0.35905978  1
  N  N57  1  0.77169202  0.41274878  0.09904695  1
  N  N58  1  0.56724929  0.51867555  0.85162073  1
  N  N59  1  0.46258022  0.41652569  0.60570966  1
  N  N60  1  0.22256948  0.87443636  0.34084583  1
  N  N61  1  0.10874587  0.76476964  0.10204152  1
  N  N62  1  0.89597482  0.88534542  0.85041151  1
  N  N63  1  0.77772232  0.76478281  0.60159089  1
  N  N64  1  0.53674326  0.88354337  0.35101646  1
  N  N65  1  0.44684986  0.75876490  0.10912065  1
  N  N66  1  0.20692960  0.88482659  0.86092354  1
  N  N67  1  0.09256249  0.77555656  0.59438092  1
  N  N68  1  0.89459606  0.88680130  0.34399761  1
  N  N69  1  0.76915597  0.77788411  0.10337991  1
  N  N70  1  0.54516872  0.88970137  0.84527186  1
  N  N71  1  0.46144935  0.74889872  0.59508420  1
