# generated using pymatgen
data_Sc2Al7N9
_symmetry_space_group_name_H-M   'P 1'
_cell_length_a   9.73023556
_cell_length_b   9.75307033
_cell_length_c   10.09947887
_cell_angle_alpha   90.00173679
_cell_angle_beta   89.95491722
_cell_angle_gamma   60.00713459
_symmetry_Int_Tables_number   1
_chemical_formula_structural   Sc2Al7N9
_chemical_formula_sum   'Sc8 Al28 N36'
_cell_volume   830.09029828
_cell_formula_units_Z   4
loop_
 _symmetry_equiv_pos_site_id
 _symmetry_equiv_pos_as_xyz
  1  'x, y, z'
loop_
 _atom_site_type_symbol
 _atom_site_label
 _atom_site_symmetry_multiplicity
 _atom_site_fract_x
 _atom_site_fract_y
 _atom_site_fract_z
 _atom_site_occupancy
  Al  Al0  1  0.10881276  0.09659890  0.30860579  1
  Al  Al1  1  0.22904790  0.19671645  0.06347213  1
  Al  Al2  1  0.77815444  0.09777206  0.81383664  1
  Al  Al3  1  0.88663536  0.20719389  0.56280266  1
  Al  Al4  1  0.44060987  0.09454722  0.31188756  1
  Al  Al5  1  0.55516874  0.20401563  0.05933807  1
  Al  Al6  1  0.10600057  0.09715147  0.81456140  1
  Al  Al7  1  0.21897132  0.20598597  0.55917203  1
  Al  Al8  1  0.78226490  0.09486922  0.31023923  1
  Al  Al9  1  0.88590336  0.20310824  0.06059563  1
  Al  Al10  1  0.44371192  0.09610628  0.81176904  1
  Al  Al11  1  0.56236654  0.19676342  0.56417283  1
  Al  Al12  1  0.11695924  0.42092943  0.30594433  1
  Al  Al13  1  0.22837006  0.54045851  0.05794937  1
  Al  Al14  1  0.77850130  0.41868654  0.80887223  1
  Al  Al15  1  0.89025862  0.52755201  0.55081155  1
  Al  Al16  1  0.55847512  0.52671702  0.06008762  1
  Al  Al17  1  0.77888531  0.41887542  0.31358583  1
  Al  Al18  1  0.45448481  0.42058255  0.81030729  1
  Al  Al19  1  0.56578387  0.53808500  0.56223098  1
  Al  Al20  1  0.11037428  0.76511255  0.30297497  1
  Al  Al21  1  0.21546962  0.87766981  0.06430049  1
  Al  Al22  1  0.88815277  0.88341922  0.55729461  1
  Al  Al23  1  0.44322342  0.76287113  0.30243619  1
  Al  Al24  1  0.55456306  0.88253593  0.06475152  1
  Al  Al25  1  0.10504846  0.77278586  0.81969556  1
  Al  Al26  1  0.88581782  0.88037563  0.06322107  1
  Al  Al27  1  0.54786995  0.87615303  0.55608410  1
  Sc  Sc28  1  0.44801600  0.42419622  0.31911012  1
  Sc  Sc29  1  0.11191405  0.42127903  0.82475715  1
  Sc  Sc30  1  0.21676567  0.54188622  0.57195055  1
  Sc  Sc31  1  0.88146864  0.53973630  0.07914950  1
  Sc  Sc32  1  0.77875459  0.76579691  0.80305093  1
  Sc  Sc33  1  0.22269850  0.87563168  0.56229123  1
  Sc  Sc34  1  0.77546040  0.76883899  0.33325411  1
  Sc  Sc35  1  0.44680871  0.75765935  0.83191571  1
  N  N36  1  0.22189610  0.20513235  0.36722789  1
  N  N37  1  0.10701385  0.09841243  0.11944200  1
  N  N38  1  0.88829211  0.20534825  0.86987544  1
  N  N39  1  0.77778259  0.09555874  0.62310846  1
  N  N40  1  0.56831904  0.18084706  0.37479200  1
  N  N41  1  0.44383921  0.09747063  0.12273110  1
  N  N42  1  0.23282555  0.18275309  0.87579477  1
  N  N43  1  0.10115982  0.11199324  0.62384843  1
  N  N44  1  0.88952261  0.20351968  0.37213965  1
  N  N45  1  0.77543546  0.09732580  0.11953575  1
  N  N46  1  0.55469720  0.20401711  0.86742035  1
  N  N47  1  0.44161336  0.09533895  0.61996709  1
  N  N48  1  0.20234722  0.55024669  0.36138646  1
  N  N49  1  0.13198423  0.41703433  0.11112552  1
  N  N50  1  0.87214175  0.53438726  0.87067996  1
  N  N51  1  0.78030355  0.42473932  0.61698495  1
  N  N52  1  0.56468482  0.55079871  0.37214116  1
  N  N53  1  0.44432600  0.42474169  0.10990319  1
  N  N54  1  0.23350133  0.55009023  0.86370861  1
  N  N55  1  0.10014869  0.41871775  0.61467457  1
  N  N56  1  0.90010732  0.51567036  0.35650458  1
  N  N57  1  0.76636923  0.41212115  0.12746805  1
  N  N58  1  0.56993212  0.51265223  0.87285286  1
  N  N59  1  0.46572651  0.41689310  0.61501139  1
  N  N60  1  0.22357596  0.87138078  0.34979972  1
  N  N61  1  0.10966907  0.76122862  0.11377918  1
  N  N62  1  0.89188246  0.88542821  0.87615873  1
  N  N63  1  0.77801895  0.76172400  0.58221820  1
  N  N64  1  0.52740569  0.88508643  0.36912825  1
  N  N65  1  0.44727882  0.75789259  0.10624637  1
  N  N66  1  0.20292406  0.88620531  0.87414442  1
  N  N67  1  0.08976514  0.77663520  0.63279460  1
  N  N68  1  0.90449836  0.88667723  0.37112849  1
  N  N69  1  0.76845513  0.78367251  0.12033477  1
  N  N70  1  0.55274544  0.89151695  0.87807771  1
  N  N71  1  0.46364327  0.75141534  0.62180695  1
