# generated using pymatgen
data_Sc2Al7N9
_symmetry_space_group_name_H-M   'P 1'
_cell_length_a   10.04576792
_cell_length_b   10.08523104
_cell_length_c   9.16822416
_cell_angle_alpha   90.02066723
_cell_angle_beta   90.02587176
_cell_angle_gamma   60.10021439
_symmetry_Int_Tables_number   1
_chemical_formula_structural   Sc2Al7N9
_chemical_formula_sum   'Sc8 Al28 N36'
_cell_volume   805.23468720
_cell_formula_units_Z   4
loop_
 _symmetry_equiv_pos_site_id
 _symmetry_equiv_pos_as_xyz
  1  'x, y, z'
loop_
 _atom_site_type_symbol
 _atom_site_label
 _atom_site_symmetry_multiplicity
 _atom_site_fract_x
 _atom_site_fract_y
 _atom_site_fract_z
 _atom_site_occupancy
  Al  Al0  1  0.10685401  0.09751477  0.33085885  1
  Al  Al1  1  0.22926858  0.19677235  0.08891259  1
  Al  Al2  1  0.77832417  0.09839520  0.83438851  1
  Al  Al3  1  0.88659210  0.20582575  0.58175654  1
  Al  Al4  1  0.44243406  0.09420853  0.33461912  1
  Al  Al5  1  0.55485640  0.20282281  0.07902035  1
  Al  Al6  1  0.10574844  0.09958370  0.83501473  1
  Al  Al7  1  0.21864314  0.20657695  0.57635868  1
  Al  Al8  1  0.77985218  0.09594782  0.32868179  1
  Al  Al9  1  0.88619594  0.20289547  0.08073704  1
  Al  Al10  1  0.44057851  0.09757102  0.82873435  1
  Al  Al11  1  0.56259848  0.19669029  0.58662328  1
  Al  Al12  1  0.11467897  0.42346173  0.33492155  1
  Al  Al13  1  0.22805480  0.54037079  0.08696678  1
  Al  Al14  1  0.77837714  0.41646300  0.82685340  1
  Al  Al15  1  0.88893260  0.53066135  0.58411012  1
  Al  Al16  1  0.56026001  0.52559195  0.08582566  1
  Al  Al17  1  0.77986619  0.41833755  0.33839324  1
  Al  Al18  1  0.45432960  0.42061090  0.83547036  1
  Al  Al19  1  0.56492225  0.53735934  0.58071902  1
  Al  Al20  1  0.10931979  0.76647679  0.32470880  1
  Al  Al21  1  0.21681839  0.87860912  0.08951526  1
  Al  Al22  1  0.88547895  0.88420363  0.57989033  1
  Al  Al23  1  0.44372661  0.76228343  0.32757136  1
  Al  Al24  1  0.55076438  0.88402144  0.08580810  1
  Al  Al25  1  0.10565363  0.77313001  0.84324344  1
  Al  Al26  1  0.88697648  0.88235748  0.08506438  1
  Al  Al27  1  0.54976339  0.87523073  0.58147463  1
  Sc  Sc28  1  0.44848705  0.42231103  0.34766939  1
  Sc  Sc29  1  0.11526681  0.41943305  0.85178270  1
  Sc  Sc30  1  0.21744573  0.54477992  0.60034066  1
  Sc  Sc31  1  0.88372913  0.53363004  0.10208516  1
  Sc  Sc32  1  0.77849403  0.76679235  0.84361815  1
  Sc  Sc33  1  0.22134155  0.87809128  0.59329853  1
  Sc  Sc34  1  0.77546425  0.76764925  0.34991501  1
  Sc  Sc35  1  0.44850418  0.75460981  0.85470712  1
  N  N36  1  0.22199349  0.20494523  0.36531916  1
  N  N37  1  0.10623513  0.09824430  0.12226864  1
  N  N38  1  0.88873878  0.20492443  0.87141367  1
  N  N39  1  0.77761742  0.09665218  0.62565242  1
  N  N40  1  0.56851382  0.18115040  0.37663649  1
  N  N41  1  0.44477742  0.09719956  0.12612155  1
  N  N42  1  0.23184373  0.18417470  0.87892881  1
  N  N43  1  0.09962142  0.11524844  0.62203206  1
  N  N44  1  0.88870001  0.20202580  0.37350231  1
  N  N45  1  0.77399839  0.09860523  0.11954205  1
  N  N46  1  0.55396091  0.20325615  0.86730223  1
  N  N47  1  0.43947054  0.09646786  0.61879448  1
  N  N48  1  0.20372836  0.55142173  0.35982898  1
  N  N49  1  0.13035756  0.41752470  0.11261100  1
  N  N50  1  0.87644839  0.52877238  0.86497040  1
  N  N51  1  0.77913689  0.42294075  0.61493889  1
  N  N52  1  0.56403503  0.54891270  0.36898827  1
  N  N53  1  0.44583028  0.42229079  0.11273081  1
  N  N54  1  0.23361892  0.55021139  0.86446530  1
  N  N55  1  0.10423209  0.41878912  0.61240477  1
  N  N56  1  0.89709020  0.52004407  0.36176627  1
  N  N57  1  0.76967471  0.41044604  0.13049172  1
  N  N58  1  0.57060531  0.51297454  0.87531310  1
  N  N59  1  0.46528561  0.41675187  0.61315078  1
  N  N60  1  0.22262906  0.87300267  0.35353468  1
  N  N61  1  0.11038935  0.76275157  0.11374590  1
  N  N62  1  0.89367461  0.88838380  0.87765749  1
  N  N63  1  0.77690493  0.76428362  0.60079437  1
  N  N64  1  0.53293042  0.88321394  0.36971190  1
  N  N65  1  0.44698974  0.75785006  0.11186619  1
  N  N66  1  0.20626468  0.88632212  0.87036580  1
  N  N67  1  0.08960528  0.77717927  0.63095570  1
  N  N68  1  0.89943792  0.88606937  0.36875167  1
  N  N69  1  0.77022472  0.77911962  0.11069894  1
  N  N70  1  0.54591792  0.89303540  0.87525272  1
  N  N71  1  0.46309424  0.74949098  0.61947717  1
