# generated using pymatgen
data_Sc2Al7N9
_symmetry_space_group_name_H-M   'P 1'
_cell_length_a   9.73129754
_cell_length_b   9.75418333
_cell_length_c   10.09662406
_cell_angle_alpha   90.00147379
_cell_angle_beta   89.95480782
_cell_angle_gamma   60.00670032
_symmetry_Int_Tables_number   1
_chemical_formula_structural   Sc2Al7N9
_chemical_formula_sum   'Sc8 Al28 N36'
_cell_volume   830.03731253
_cell_formula_units_Z   4
loop_
 _symmetry_equiv_pos_site_id
 _symmetry_equiv_pos_as_xyz
  1  'x, y, z'
loop_
 _atom_site_type_symbol
 _atom_site_label
 _atom_site_symmetry_multiplicity
 _atom_site_fract_x
 _atom_site_fract_y
 _atom_site_fract_z
 _atom_site_occupancy
  Al  Al0  1  0.10877652  0.09662213  0.31689710  1
  Al  Al1  1  0.22902772  0.19671413  0.07174380  1
  Al  Al2  1  0.77811585  0.09779574  0.82210697  1
  Al  Al3  1  0.88660044  0.20721336  0.57106814  1
  Al  Al4  1  0.44056798  0.09457815  0.32016627  1
  Al  Al5  1  0.55512001  0.20405913  0.06762437  1
  Al  Al6  1  0.10597008  0.09718024  0.82280597  1
  Al  Al7  1  0.21891199  0.20604445  0.56745315  1
  Al  Al8  1  0.78222147  0.09490310  0.31848578  1
  Al  Al9  1  0.88587843  0.20311748  0.06885300  1
  Al  Al10  1  0.44366905  0.09614322  0.82001992  1
  Al  Al11  1  0.56234171  0.19676702  0.57242331  1
  Al  Al12  1  0.11694040  0.42096841  0.31419679  1
  Al  Al13  1  0.22837094  0.54048905  0.06620754  1
  Al  Al14  1  0.77847626  0.41869352  0.81715160  1
  Al  Al15  1  0.89023440  0.52757071  0.55908565  1
  Al  Al16  1  0.55845395  0.52668361  0.06837760  1
  Al  Al17  1  0.77884488  0.41888530  0.32186240  1
  Al  Al18  1  0.45447456  0.42058531  0.81852078  1
  Al  Al19  1  0.56576899  0.53813120  0.57050415  1
  Al  Al20  1  0.11034324  0.76513699  0.31127578  1
  Al  Al21  1  0.21542964  0.87770205  0.07256082  1
  Al  Al22  1  0.88811330  0.88346496  0.56555958  1
  Al  Al23  1  0.44318874  0.76290418  0.31068596  1
  Al  Al24  1  0.55453895  0.88258341  0.07301386  1
  Al  Al25  1  0.10501325  0.77283453  0.82795169  1
  Al  Al26  1  0.88579799  0.88040054  0.07149743  1
  Al  Al27  1  0.54783826  0.87617420  0.56438474  1
  Sc  Sc28  1  0.44795154  0.42424754  0.32751352  1
  Sc  Sc29  1  0.11185120  0.42130711  0.83316468  1
  Sc  Sc30  1  0.21668705  0.54192350  0.58033806  1
  Sc  Sc31  1  0.88141330  0.53975394  0.08752217  1
  Sc  Sc32  1  0.77874172  0.76579453  0.81138621  1
  Sc  Sc33  1  0.22271686  0.87564274  0.57062394  1
  Sc  Sc34  1  0.77540906  0.76888979  0.34154159  1
  Sc  Sc35  1  0.44682067  0.75764766  0.84028120  1
  N  N36  1  0.22184831  0.20518571  0.37546089  1
  N  N37  1  0.10698480  0.09842709  0.12768692  1
  N  N38  1  0.88827337  0.20535241  0.87809852  1
  N  N39  1  0.77773792  0.09559543  0.63134332  1
  N  N40  1  0.56829253  0.18085560  0.38300916  1
  N  N41  1  0.44380401  0.09749797  0.13097183  1
  N  N42  1  0.23279729  0.18275438  0.88402463  1
  N  N43  1  0.10112031  0.11202719  0.63205619  1
  N  N44  1  0.88948128  0.20353952  0.38037463  1
  N  N45  1  0.77540101  0.09735010  0.12775181  1
  N  N46  1  0.55464904  0.20405286  0.87565301  1
  N  N47  1  0.44156454  0.09538033  0.62818816  1
  N  N48  1  0.20226761  0.55029060  0.36969508  1
  N  N49  1  0.13196573  0.41706258  0.11929377  1
  N  N50  1  0.87206755  0.53439950  0.87899588  1
  N  N51  1  0.78028096  0.42475740  0.62521625  1
  N  N52  1  0.56465826  0.55085126  0.38037016  1
  N  N53  1  0.44428250  0.42476393  0.11822446  1
  N  N54  1  0.23349101  0.55011984  0.87188454  1
  N  N55  1  0.10007977  0.41874432  0.62300059  1
  N  N56  1  0.90007032  0.51570403  0.36468811  1
  N  N57  1  0.76633821  0.41210587  0.13570904  1
  N  N58  1  0.56991055  0.51261932  0.88109189  1
  N  N59  1  0.46570221  0.41691635  0.62316116  1
  N  N60  1  0.22355367  0.87140081  0.35806856  1
  N  N61  1  0.10965767  0.76124597  0.12201936  1
  N  N62  1  0.89186542  0.88545779  0.88439287  1
  N  N63  1  0.77799396  0.76175090  0.59048529  1
  N  N64  1  0.52736141  0.88511730  0.37737069  1
  N  N65  1  0.44725618  0.75790972  0.11443804  1
  N  N66  1  0.20290701  0.88623198  0.88234471  1
  N  N67  1  0.08971908  0.77670235  0.64101116  1
  N  N68  1  0.90444374  0.88671761  0.37934348  1
  N  N69  1  0.76842400  0.78370850  0.12855863  1
  N  N70  1  0.55270942  0.89156778  0.88629829  1
  N  N71  1  0.46365792  0.75141809  0.63010894  1
