# generated using pymatgen
data_Sc2Al7N9
_symmetry_space_group_name_H-M   'P 1'
_cell_length_a   9.93094690
_cell_length_b   9.96406191
_cell_length_c   9.51692400
_cell_angle_alpha   90.05983225
_cell_angle_beta   90.08359455
_cell_angle_gamma   60.09265482
_symmetry_Int_Tables_number   1
_chemical_formula_structural   Sc2Al7N9
_chemical_formula_sum   'Sc8 Al28 N36'
_cell_volume   816.31643808
_cell_formula_units_Z   4
loop_
 _symmetry_equiv_pos_site_id
 _symmetry_equiv_pos_as_xyz
  1  'x, y, z'
loop_
 _atom_site_type_symbol
 _atom_site_label
 _atom_site_symmetry_multiplicity
 _atom_site_fract_x
 _atom_site_fract_y
 _atom_site_fract_z
 _atom_site_occupancy
  Al  Al0  1  0.10488189  0.10391305  0.36771063  1
  Al  Al1  1  0.22744034  0.20374528  0.12976851  1
  Al  Al2  1  0.77970431  0.09857512  0.87410615  1
  Al  Al3  1  0.88732937  0.20819618  0.62634846  1
  Al  Al4  1  0.44176438  0.09562453  0.37833347  1
  Al  Al5  1  0.56093998  0.19373976  0.12132229  1
  Al  Al6  1  0.10691634  0.09462694  0.88426422  1
  Al  Al7  1  0.22135991  0.19993104  0.62445675  1
  Al  Al8  1  0.77874155  0.09485761  0.38106480  1
  Al  Al9  1  0.88327985  0.20223243  0.12994072  1
  Al  Al10  1  0.44040487  0.09639177  0.87717871  1
  Al  Al11  1  0.55712023  0.20410848  0.63140661  1
  Al  Al12  1  0.10943461  0.42183430  0.38046866  1
  Al  Al13  1  0.21994097  0.54086479  0.12703610  1
  Al  Al14  1  0.77677243  0.41236243  0.87698108  1
  Al  Al15  1  0.88292164  0.53391820  0.62696837  1
  Al  Al16  1  0.55821737  0.53992793  0.12561760  1
  Al  Al17  1  0.78146085  0.42297754  0.37939856  1
  Al  Al18  1  0.44848573  0.42460473  0.88430903  1
  Al  Al19  1  0.56699501  0.52555246  0.62757985  1
  Al  Al20  1  0.10354606  0.77020360  0.36789483  1
  Al  Al21  1  0.22409400  0.87340714  0.13173151  1
  Al  Al22  1  0.88595302  0.88109231  0.62968391  1
  Al  Al23  1  0.44911875  0.75894310  0.37765606  1
  Al  Al24  1  0.54556980  0.88015199  0.13191884  1
  Al  Al25  1  0.11195832  0.76928622  0.88402228  1
  Al  Al26  1  0.88686358  0.88336126  0.12569428  1
  Al  Al27  1  0.55460819  0.87757534  0.62210096  1
  Sc  Sc28  1  0.45393353  0.41998187  0.35295576  1
  Sc  Sc29  1  0.12069314  0.42104467  0.85711045  1
  Sc  Sc30  1  0.22590635  0.54390117  0.60829893  1
  Sc  Sc31  1  0.89030731  0.53059941  0.11168153  1
  Sc  Sc32  1  0.77528032  0.76947397  0.86291022  1
  Sc  Sc33  1  0.21486699  0.88327673  0.60800349  1
  Sc  Sc34  1  0.77912434  0.76358879  0.36383525  1
  Sc  Sc35  1  0.44318637  0.75778685  0.86137445  1
  N  N36  1  0.22416839  0.20709776  0.33032629  1
  N  N37  1  0.10883349  0.09676649  0.08941494  1
  N  N38  1  0.89250349  0.20152487  0.82697082  1
  N  N39  1  0.77458570  0.09723748  0.58297521  1
  N  N40  1  0.56913064  0.17816678  0.32106187  1
  N  N41  1  0.44196583  0.09349817  0.07754246  1
  N  N42  1  0.22924469  0.18238795  0.82488938  1
  N  N43  1  0.09573457  0.11887297  0.56620832  1
  N  N44  1  0.88263514  0.20691165  0.32922170  1
  N  N45  1  0.77750136  0.09575191  0.07293945  1
  N  N46  1  0.55195299  0.20644055  0.83510707  1
  N  N47  1  0.44235179  0.09877921  0.57808229  1
  N  N48  1  0.20317591  0.54804630  0.33677247  1
  N  N49  1  0.13274483  0.41607715  0.08126090  1
  N  N50  1  0.87711911  0.52726201  0.83761488  1
  N  N51  1  0.77912351  0.42353777  0.57973124  1
  N  N52  1  0.56967019  0.54840617  0.32505279  1
  N  N53  1  0.44546772  0.42616458  0.09375780  1
  N  N54  1  0.23456889  0.55453408  0.83632848  1
  N  N55  1  0.10404914  0.41961092  0.59166308  1
  N  N56  1  0.89837217  0.51893018  0.33736290  1
  N  N57  1  0.76864211  0.41152491  0.07575466  1
  N  N58  1  0.56676575  0.51378617  0.82867555  1
  N  N59  1  0.46778441  0.41315515  0.57559107  1
  N  N60  1  0.22460993  0.87357172  0.33818589  1
  N  N61  1  0.11141785  0.76330762  0.08768342  1
  N  N62  1  0.89971067  0.88461964  0.82993305  1
  N  N63  1  0.77969563  0.76166161  0.59776864  1
  N  N64  1  0.53430893  0.88419754  0.33368479  1
  N  N65  1  0.44404255  0.76146348  0.08756821  1
  N  N66  1  0.20321853  0.88606785  0.83448619  1
  N  N67  1  0.08787818  0.77664478  0.56639225  1
  N  N68  1  0.89447393  0.88900179  0.32330427  1
  N  N69  1  0.76716316  0.77994463  0.09795595  1
  N  N70  1  0.54361996  0.89299667  0.82050358  1
  N  N71  1  0.46479841  0.74636106  0.58585306  1
