# generated using pymatgen
data_Sc2Al7N9
_symmetry_space_group_name_H-M   'P 1'
_cell_length_a   9.74010567
_cell_length_b   9.76335068
_cell_length_c   10.07269788
_cell_angle_alpha   89.99984735
_cell_angle_beta   89.95620654
_cell_angle_gamma   60.00695702
_symmetry_Int_Tables_number   1
_chemical_formula_structural   Sc2Al7N9
_chemical_formula_sum   'Sc8 Al28 N36'
_cell_volume   829.60100472
_cell_formula_units_Z   4
loop_
 _symmetry_equiv_pos_site_id
 _symmetry_equiv_pos_as_xyz
  1  'x, y, z'
loop_
 _atom_site_type_symbol
 _atom_site_label
 _atom_site_symmetry_multiplicity
 _atom_site_fract_x
 _atom_site_fract_y
 _atom_site_fract_z
 _atom_site_occupancy
  Al  Al0  1  0.10874178  0.09660974  0.32001981  1
  Al  Al1  1  0.22911560  0.19653229  0.07472568  1
  Al  Al2  1  0.77806319  0.09781452  0.82505576  1
  Al  Al3  1  0.88656229  0.20720174  0.57398276  1
  Al  Al4  1  0.44051341  0.09460584  0.32319230  1
  Al  Al5  1  0.55500187  0.20418653  0.07070288  1
  Al  Al6  1  0.10594132  0.09728112  0.82558165  1
  Al  Al7  1  0.21871410  0.20630499  0.57046937  1
  Al  Al8  1  0.78213666  0.09495588  0.32129372  1
  Al  Al9  1  0.88591260  0.20302086  0.07173223  1
  Al  Al10  1  0.44355473  0.09624655  0.82282490  1
  Al  Al11  1  0.56240204  0.19659381  0.57524881  1
  Al  Al12  1  0.11705025  0.42107984  0.31704178  1
  Al  Al13  1  0.22862939  0.54054034  0.06909064  1
  Al  Al14  1  0.77852577  0.41857473  0.82016075  1
  Al  Al15  1  0.89029335  0.52756381  0.56212222  1
  Al  Al16  1  0.55853398  0.52627054  0.07149945  1
  Al  Al17  1  0.77879539  0.41878366  0.32487325  1
  Al  Al18  1  0.45465614  0.42042513  0.82107029  1
  Al  Al19  1  0.56588838  0.53829170  0.57345866  1
  Al  Al20  1  0.11035090  0.76513548  0.31447464  1
  Al  Al21  1  0.21534596  0.87778528  0.07542265  1
  Al  Al22  1  0.88801772  0.88360075  0.56850455  1
  Al  Al23  1  0.44313625  0.76296688  0.31352600  1
  Al  Al24  1  0.55453828  0.88275088  0.07591320  1
  Al  Al25  1  0.10496124  0.77303349  0.83079999  1
  Al  Al26  1  0.88588435  0.88042875  0.07450235  1
  Al  Al27  1  0.54784014  0.87612811  0.56757479  1
  Sc  Sc28  1  0.44774558  0.42440395  0.33147940  1
  Sc  Sc29  1  0.11166932  0.42134299  0.83711427  1
  Sc  Sc30  1  0.21638522  0.54203440  0.58416421  1
  Sc  Sc31  1  0.88129254  0.53965074  0.09120291  1
  Sc  Sc32  1  0.77884009  0.76563048  0.81496759  1
  Sc  Sc33  1  0.22300501  0.87560977  0.57411859  1
  Sc  Sc34  1  0.77526164  0.76905873  0.34456099  1
  Sc  Sc35  1  0.44709538  0.75737627  0.84391343  1
  N  N36  1  0.22174824  0.20538736  0.37808380  1
  N  N37  1  0.10699612  0.09836153  0.13041823  1
  N  N38  1  0.88834527  0.20523720  0.88068125  1
  N  N39  1  0.77765169  0.09568430  0.63399383  1
  N  N40  1  0.56834703  0.18071380  0.38554441  1
  N  N41  1  0.44378623  0.09750959  0.13367436  1
  N  N42  1  0.23280546  0.18262777  0.88664874  1
  N  N43  1  0.10102204  0.11217349  0.63451652  1
  N  N44  1  0.88941276  0.20350385  0.38302720  1
  N  N45  1  0.77537307  0.09735297  0.13028975  1
  N  N46  1  0.55452902  0.20413206  0.87828745  1
  N  N47  1  0.44142937  0.09549142  0.63073301  1
  N  N48  1  0.20196287  0.55042808  0.37287144  1
  N  N49  1  0.13208128  0.41709519  0.12145849  1
  N  N50  1  0.87182977  0.53426247  0.88219713  1
  N  N51  1  0.78033522  0.42472783  0.62782967  1
  N  N52  1  0.56470596  0.55104303  0.38295558  1
  N  N53  1  0.44421655  0.42473238  0.12151670  1
  N  N54  1  0.23367048  0.55018303  0.87409592  1
  N  N55  1  0.09985522  0.41877059  0.62627854  1
  N  N56  1  0.90004544  0.51578787  0.36698030  1
  N  N57  1  0.76635391  0.41182913  0.13840678  1
  N  N58  1  0.57000021  0.51222069  0.88377938  1
  N  N59  1  0.46578304  0.41688486  0.62517417  1
  N  N60  1  0.22360188  0.87138675  0.36103303  1
  N  N61  1  0.10980114  0.76120933  0.12471290  1
  N  N62  1  0.89197157  0.88554787  0.88704724  1
  N  N63  1  0.77800992  0.76177387  0.59349499  1
  N  N64  1  0.52731028  0.88513454  0.38006317  1
  N  N65  1  0.44727108  0.75786671  0.11679756  1
  N  N66  1  0.20298967  0.88629112  0.88469299  1
  N  N67  1  0.08958397  0.77700334  0.64352083  1
  N  N68  1  0.90425528  0.88679629  0.38184913  1
  N  N69  1  0.76842996  0.78374968  0.13101632  1
  N  N70  1  0.55257515  0.89177762  0.88883619  1
  N  N71  1  0.46394461  0.75125342  0.63321208  1
