# generated using pymatgen
data_Sc2Al7N9
_symmetry_space_group_name_H-M   'P 1'
_cell_length_a   10.17262822
_cell_length_b   10.21565568
_cell_length_c   8.78249734
_cell_angle_alpha   90.06344547
_cell_angle_beta   90.06653308
_cell_angle_gamma   60.13568547
_symmetry_Int_Tables_number   1
_chemical_formula_structural   Sc2Al7N9
_chemical_formula_sum   'Sc8 Al28 N36'
_cell_volume   791.47986961
_cell_formula_units_Z   4
loop_
 _symmetry_equiv_pos_site_id
 _symmetry_equiv_pos_as_xyz
  1  'x, y, z'
loop_
 _atom_site_type_symbol
 _atom_site_label
 _atom_site_symmetry_multiplicity
 _atom_site_fract_x
 _atom_site_fract_y
 _atom_site_fract_z
 _atom_site_occupancy
  Al  Al0  1  0.10599707  0.10125910  0.35413010  1
  Al  Al1  1  0.22824707  0.20132327  0.11918878  1
  Al  Al2  1  0.77963389  0.09854811  0.86231081  1
  Al  Al3  1  0.88813481  0.20708320  0.61316109  1
  Al  Al4  1  0.44242327  0.09564951  0.36681324  1
  Al  Al5  1  0.55923044  0.19741056  0.10674026  1
  Al  Al6  1  0.10585376  0.09705744  0.87516468  1
  Al  Al7  1  0.22058194  0.20232481  0.60719262  1
  Al  Al8  1  0.77793441  0.09555399  0.36964751  1
  Al  Al9  1  0.88363601  0.20210364  0.11961766  1
  Al  Al10  1  0.44063409  0.09633771  0.86356498  1
  Al  Al11  1  0.55786455  0.20154863  0.62066483  1
  Al  Al12  1  0.11326240  0.42268575  0.35620427  1
  Al  Al13  1  0.22379322  0.54127473  0.10565098  1
  Al  Al14  1  0.77917026  0.41387177  0.86339906  1
  Al  Al15  1  0.88735235  0.53058769  0.60335366  1
  Al  Al16  1  0.55891286  0.53383169  0.10966551  1
  Al  Al17  1  0.77979286  0.42121314  0.36589924  1
  Al  Al18  1  0.45055154  0.42277461  0.86217911  1
  Al  Al19  1  0.56582376  0.53054257  0.61337068  1
  Al  Al20  1  0.10571729  0.76910436  0.35103308  1
  Al  Al21  1  0.22097231  0.87543566  0.11230337  1
  Al  Al22  1  0.88572887  0.88185632  0.61645112  1
  Al  Al23  1  0.44702853  0.75946704  0.35321054  1
  Al  Al24  1  0.54804612  0.88105614  0.11757924  1
  Al  Al25  1  0.10914631  0.77026210  0.87296057  1
  Al  Al26  1  0.88595431  0.88381482  0.11218416  1
  Al  Al27  1  0.55239291  0.87680089  0.60747769  1
  Sc  Sc28  1  0.45186781  0.42061356  0.34993692  1
  Sc  Sc29  1  0.11782892  0.41935308  0.85326390  1
  Sc  Sc30  1  0.22085288  0.54554729  0.60225251  1
  Sc  Sc31  1  0.88711831  0.53224417  0.10638787  1
  Sc  Sc32  1  0.77680969  0.76675353  0.85279353  1
  Sc  Sc33  1  0.21747567  0.88189337  0.59922902  1
  Sc  Sc34  1  0.77769920  0.76636957  0.35690558  1
  Sc  Sc35  1  0.44581953  0.75716084  0.85664869  1
  N  N36  1  0.22522380  0.20494783  0.34373039  1
  N  N37  1  0.10712758  0.09937574  0.10332605  1
  N  N38  1  0.89263004  0.20180073  0.83885460  1
  N  N39  1  0.77452349  0.09779685  0.59639609  1
  N  N40  1  0.56695916  0.18295804  0.33537264  1
  N  N41  1  0.44231167  0.09454677  0.09018614  1
  N  N42  1  0.22819629  0.18503297  0.83955925  1
  N  N43  1  0.09829436  0.11464895  0.57861711  1
  N  N44  1  0.88344444  0.20537490  0.34229702  1
  N  N45  1  0.77656405  0.09701708  0.08464806  1
  N  N46  1  0.55385845  0.20363804  0.84736272  1
  N  N47  1  0.44229808  0.09838545  0.59165048  1
  N  N48  1  0.20710909  0.54888070  0.34191545  1
  N  N49  1  0.12892804  0.41701544  0.10374541  1
  N  N50  1  0.87947441  0.52737070  0.84507141  1
  N  N51  1  0.77859990  0.42212238  0.59209507  1
  N  N52  1  0.56685465  0.54455267  0.33923281  1
  N  N53  1  0.44688702  0.42374302  0.09398746  1
  N  N54  1  0.23023183  0.55278077  0.85713518  1
  N  N55  1  0.10712681  0.41907693  0.59516675  1
  N  N56  1  0.89603337  0.52155999  0.35628871  1
  N  N57  1  0.77162304  0.41192809  0.09194037  1
  N  N58  1  0.56713931  0.51816978  0.84637624  1
  N  N59  1  0.46322155  0.41587614  0.60066786  1
  N  N60  1  0.22323097  0.87427656  0.34000037  1
  N  N61  1  0.10903944  0.76457570  0.10024154  1
  N  N62  1  0.89735498  0.88445481  0.84457128  1
  N  N63  1  0.77879207  0.76367964  0.60108611  1
  N  N64  1  0.53637640  0.88398434  0.34771231  1
  N  N65  1  0.44649629  0.75966333  0.10602165  1
  N  N66  1  0.20605870  0.88522680  0.85750551  1
  N  N67  1  0.09171723  0.77599657  0.58448415  1
  N  N68  1  0.89382365  0.88805547  0.33746432  1
  N  N69  1  0.76826739  0.77857556  0.10275583  1
  N  N70  1  0.54501173  0.89021675  0.83690721  1
  N  N71  1  0.46204242  0.74794108  0.59338100  1
