# generated using pymatgen
data_Sc2Al7N9
_symmetry_space_group_name_H-M   'P 1'
_cell_length_a   9.73165720
_cell_length_b   9.75701658
_cell_length_c   10.10273216
_cell_angle_alpha   90.04563635
_cell_angle_beta   90.07780171
_cell_angle_gamma   60.02478027
_symmetry_Int_Tables_number   1
_chemical_formula_structural   Sc2Al7N9
_chemical_formula_sum   'Sc8 Al28 N36'
_cell_volume   830.96226413
_cell_formula_units_Z   4
loop_
 _symmetry_equiv_pos_site_id
 _symmetry_equiv_pos_as_xyz
  1  'x, y, z'
loop_
 _atom_site_type_symbol
 _atom_site_label
 _atom_site_symmetry_multiplicity
 _atom_site_fract_x
 _atom_site_fract_y
 _atom_site_fract_z
 _atom_site_occupancy
  Al  Al0  1  0.10605676  0.10190318  0.40392231  1
  Al  Al1  1  0.22671393  0.20260478  0.16177381  1
  Al  Al2  1  0.77898541  0.09843063  0.90731463  1
  Al  Al3  1  0.88632695  0.20830636  0.65822306  1
  Al  Al4  1  0.44137205  0.09475504  0.40913297  1
  Al  Al5  1  0.55960237  0.19597417  0.15533618  1
  Al  Al6  1  0.10696449  0.09483684  0.91255228  1
  Al  Al7  1  0.22146752  0.20146366  0.65627695  1
  Al  Al8  1  0.78035810  0.09491494  0.40949819  1
  Al  Al9  1  0.88465394  0.20291136  0.15910422  1
  Al  Al10  1  0.44137542  0.09618059  0.90822785  1
  Al  Al11  1  0.55845527  0.20296685  0.66068359  1
  Al  Al12  1  0.10992284  0.42206439  0.41346853  1
  Al  Al13  1  0.21965820  0.54129295  0.16068545  1
  Al  Al14  1  0.77611340  0.41465749  0.90665783  1
  Al  Al15  1  0.88333781  0.53442946  0.65986399  1
  Al  Al16  1  0.55750203  0.53890100  0.15966079  1
  Al  Al17  1  0.78155356  0.42296353  0.41276605  1
  Al  Al18  1  0.44962057  0.42383969  0.91507567  1
  Al  Al19  1  0.56620981  0.52803102  0.65803112  1
  Al  Al20  1  0.10477637  0.76977477  0.40266503  1
  Al  Al21  1  0.22167043  0.87431413  0.16421263  1
  Al  Al22  1  0.88574820  0.88072592  0.66082008  1
  Al  Al23  1  0.44775416  0.76106846  0.40791442  1
  Al  Al24  1  0.54670277  0.88013175  0.16408703  1
  Al  Al25  1  0.11069962  0.76927807  0.91547988  1
  Al  Al26  1  0.88774870  0.88170256  0.15940206  1
  Al  Al27  1  0.55503449  0.87635466  0.65667241  1
  Sc  Sc28  1  0.45124831  0.42236781  0.39094478  1
  Sc  Sc29  1  0.11878805  0.42137917  0.89821566  1
  Sc  Sc30  1  0.22529112  0.54238058  0.64931570  1
  Sc  Sc31  1  0.88869758  0.53216508  0.15482709  1
  Sc  Sc32  1  0.77576868  0.76910656  0.90047370  1
  Sc  Sc33  1  0.21727521  0.88103901  0.64788732  1
  Sc  Sc34  1  0.77863140  0.76482952  0.40494756  1
  Sc  Sc35  1  0.44369172  0.75705860  0.90345647  1
  N  N36  1  0.22328887  0.20630210  0.35211630  1
  N  N37  1  0.10907619  0.09672239  0.10649738  1
  N  N38  1  0.89104502  0.20211187  0.84898912  1
  N  N39  1  0.77582688  0.09658705  0.60157477  1
  N  N40  1  0.56820872  0.17942506  0.34387350  1
  N  N41  1  0.44202961  0.09409718  0.09894434  1
  N  N42  1  0.22963577  0.18343156  0.84512380  1
  N  N43  1  0.09686209  0.11714955  0.59103689  1
  N  N44  1  0.88478580  0.20749514  0.34953232  1
  N  N45  1  0.77748532  0.09523228  0.09667280  1
  N  N46  1  0.55320508  0.20547914  0.85462634  1
  N  N47  1  0.44312364  0.09707535  0.59929275  1
  N  N48  1  0.20131093  0.54927071  0.35487069  1
  N  N49  1  0.13072576  0.41667772  0.10618976  1
  N  N50  1  0.87691459  0.52779073  0.85202252  1
  N  N51  1  0.77903224  0.42385223  0.60156398  1
  N  N52  1  0.57008266  0.54807386  0.34702678  1
  N  N53  1  0.44519292  0.42633260  0.11427596  1
  N  N54  1  0.23381866  0.55341319  0.86022280  1
  N  N55  1  0.10367550  0.41965675  0.60865024  1
  N  N56  1  0.89749526  0.52032528  0.36272145  1
  N  N57  1  0.76747923  0.41397699  0.09463758  1
  N  N58  1  0.56556544  0.51519681  0.84723863  1
  N  N59  1  0.46665061  0.41430323  0.59906634  1
  N  N60  1  0.22312600  0.87429487  0.35823090  1
  N  N61  1  0.11043003  0.76342523  0.10694117  1
  N  N62  1  0.89938880  0.88502111  0.84897934  1
  N  N63  1  0.77932776  0.76216996  0.62121165  1
  N  N64  1  0.53531514  0.88414601  0.35206977  1
  N  N65  1  0.44335986  0.76148817  0.11367266  1
  N  N66  1  0.20447548  0.88415189  0.85759295  1
  N  N67  1  0.08883399  0.77522770  0.58823845  1
  N  N68  1  0.89579276  0.88765285  0.34509317  1
  N  N69  1  0.76752634  0.77981764  0.11769300  1
  N  N70  1  0.54307932  0.89168276  0.84223806  1
  N  N71  1  0.46542367  0.74772268  0.60146985  1
