# generated using pymatgen
data_Sc2Al7N9
_symmetry_space_group_name_H-M   'P 1'
_cell_length_a   9.73187664
_cell_length_b   9.75460384
_cell_length_c   10.09516294
_cell_angle_alpha   90.00199279
_cell_angle_beta   89.95481429
_cell_angle_gamma   60.00722485
_symmetry_Int_Tables_number   1
_chemical_formula_structural   Sc2Al7N9
_chemical_formula_sum   'Sc8 Al28 N36'
_cell_volume   830.00674351
_cell_formula_units_Z   4
loop_
 _symmetry_equiv_pos_site_id
 _symmetry_equiv_pos_as_xyz
  1  'x, y, z'
loop_
 _atom_site_type_symbol
 _atom_site_label
 _atom_site_symmetry_multiplicity
 _atom_site_fract_x
 _atom_site_fract_y
 _atom_site_fract_z
 _atom_site_occupancy
  Al  Al0  1  0.10885992  0.09655387  0.29519245  1
  Al  Al1  1  0.22911357  0.19663166  0.05002159  1
  Al  Al2  1  0.77820243  0.09772039  0.80039135  1
  Al  Al3  1  0.88669367  0.20713323  0.54934708  1
  Al  Al4  1  0.44063549  0.09452865  0.29845302  1
  Al  Al5  1  0.55519225  0.20401455  0.04591743  1
  Al  Al6  1  0.10606538  0.09709772  0.80106218  1
  Al  Al7  1  0.21897725  0.20599694  0.54574694  1
  Al  Al8  1  0.78230444  0.09484682  0.29674190  1
  Al  Al9  1  0.88597368  0.20304619  0.04712078  1
  Al  Al10  1  0.44374946  0.09609034  0.79829215  1
  Al  Al11  1  0.56244166  0.19668138  0.55068773  1
  Al  Al12  1  0.11703216  0.42091482  0.29245695  1
  Al  Al13  1  0.22848139  0.54042310  0.04447440  1
  Al  Al14  1  0.77856731  0.41861820  0.79544203  1
  Al  Al15  1  0.89033025  0.52749293  0.53735254  1
  Al  Al16  1  0.55854832  0.52657712  0.04667215  1
  Al  Al17  1  0.77892528  0.41881193  0.30014444  1
  Al  Al18  1  0.45457874  0.42049998  0.79675758  1
  Al  Al19  1  0.56587802  0.53807827  0.54879556  1
  Al  Al20  1  0.11043334  0.76506161  0.28957447  1
  Al  Al21  1  0.21550731  0.87763887  0.05083994  1
  Al  Al22  1  0.88821380  0.88341222  0.54382748  1
  Al  Al23  1  0.44327663  0.76284584  0.28894121  1
  Al  Al24  1  0.55463370  0.88254802  0.05129164  1
  Al  Al25  1  0.10510232  0.77277261  0.80622528  1
  Al  Al26  1  0.88588734  0.88033433  0.04978185  1
  Al  Al27  1  0.54791705  0.87611577  0.54268261  1
  Sc  Sc28  1  0.44801574  0.42420539  0.30589199  1
  Sc  Sc29  1  0.11189444  0.42124596  0.81155403  1
  Sc  Sc30  1  0.21674250  0.54184636  0.55870693  1
  Sc  Sc31  1  0.88146197  0.53971822  0.06588419  1
  Sc  Sc32  1  0.77883448  0.76571380  0.78966949  1
  Sc  Sc33  1  0.22286498  0.87553721  0.54893242  1
  Sc  Sc34  1  0.77546830  0.76886158  0.31985718  1
  Sc  Sc35  1  0.44694280  0.75756104  0.81864381  1
  N  N36  1  0.22191634  0.20514797  0.35372713  1
  N  N37  1  0.10707019  0.09835517  0.10595850  1
  N  N38  1  0.88837764  0.20526877  0.85634897  1
  N  N39  1  0.77782102  0.09553002  0.60960934  1
  N  N40  1  0.56838880  0.18077697  0.36125819  1
  N  N41  1  0.44387425  0.09745065  0.10923984  1
  N  N42  1  0.23288613  0.18266533  0.86228154  1
  N  N43  1  0.10121607  0.11193637  0.61029431  1
  N  N44  1  0.88956275  0.20347467  0.35863823  1
  N  N45  1  0.77548585  0.09729054  0.10599445  1
  N  N46  1  0.55473034  0.20399489  0.85391702  1
  N  N47  1  0.44163881  0.09533131  0.60644553  1
  N  N48  1  0.20232247  0.55023211  0.34801861  1
  N  N49  1  0.13204661  0.41700719  0.09750541  1
  N  N50  1  0.87209895  0.53435342  0.85732801  1
  N  N51  1  0.78038322  0.42468086  0.60347991  1
  N  N52  1  0.56475327  0.55081053  0.35863682  1
  N  N53  1  0.44435573  0.42470404  0.09655388  1
  N  N54  1  0.23359674  0.55004166  0.85010662  1
  N  N55  1  0.10012571  0.41867354  0.60134286  1
  N  N56  1  0.90015343  0.51564993  0.34290970  1
  N  N57  1  0.76642304  0.41202020  0.11397556  1
  N  N58  1  0.57000512  0.51251060  0.85936036  1
  N  N59  1  0.46579778  0.41684839  0.60136677  1
  N  N60  1  0.22365332  0.87132310  0.33634097  1
  N  N61  1  0.10975354  0.76116877  0.10028504  1
  N  N62  1  0.89196356  0.88537766  0.86265366  1
  N  N63  1  0.77808698  0.76169016  0.56873437  1
  N  N64  1  0.52741720  0.88507160  0.35564397  1
  N  N65  1  0.44735257  0.75784232  0.09266575  1
  N  N66  1  0.20300633  0.88615556  0.86059604  1
  N  N67  1  0.08980772  0.77665331  0.61926376  1
  N  N68  1  0.90452717  0.88666927  0.35759071  1
  N  N69  1  0.76849204  0.78368133  0.10685032  1
  N  N70  1  0.55281048  0.89152433  0.86455706  1
  N  N71  1  0.46379342  0.75133479  0.60843631  1
