# generated using pymatgen
data_Sc2Al7N9
_symmetry_space_group_name_H-M   'P 1'
_cell_length_a   9.99604790
_cell_length_b   10.03229765
_cell_length_c   9.31855146
_cell_angle_alpha   90.06563103
_cell_angle_beta   90.08329211
_cell_angle_gamma   60.10620687
_symmetry_Int_Tables_number   1
_chemical_formula_structural   Sc2Al7N9
_chemical_formula_sum   'Sc8 Al28 N36'
_cell_volume   810.16048944
_cell_formula_units_Z   4
loop_
 _symmetry_equiv_pos_site_id
 _symmetry_equiv_pos_as_xyz
  1  'x, y, z'
loop_
 _atom_site_type_symbol
 _atom_site_label
 _atom_site_symmetry_multiplicity
 _atom_site_fract_x
 _atom_site_fract_y
 _atom_site_fract_z
 _atom_site_occupancy
  Al  Al0  1  0.10502297  0.10347190  0.36382941  1
  Al  Al1  1  0.22787106  0.20334588  0.12809908  1
  Al  Al2  1  0.78008416  0.09844682  0.87122926  1
  Al  Al3  1  0.88784283  0.20790481  0.62372340  1
  Al  Al4  1  0.44205273  0.09601257  0.37657842  1
  Al  Al5  1  0.56081670  0.19420725  0.11771834  1
  Al  Al6  1  0.10664826  0.09519192  0.88332557  1
  Al  Al7  1  0.22110126  0.20022733  0.62112580  1
  Al  Al8  1  0.77817621  0.09511545  0.37963002  1
  Al  Al9  1  0.88283761  0.20224617  0.12838465  1
  Al  Al10  1  0.44025332  0.09614573  0.87456272  1
  Al  Al11  1  0.55691680  0.20390041  0.63025794  1
  Al  Al12  1  0.11048404  0.42202496  0.37508137  1
  Al  Al13  1  0.22093305  0.54074066  0.12181992  1
  Al  Al14  1  0.77753618  0.41242878  0.87462931  1
  Al  Al15  1  0.88404399  0.53323110  0.62058250  1
  Al  Al16  1  0.55853477  0.53867483  0.12234095  1
  Al  Al17  1  0.78085118  0.42257107  0.37704941  1
  Al  Al18  1  0.44868777  0.42437983  0.88059080  1
  Al  Al19  1  0.56668927  0.52641046  0.62569968  1
  Al  Al20  1  0.10390592  0.77001334  0.36369346  1
  Al  Al21  1  0.22383918  0.87373327  0.12772305  1
  Al  Al22  1  0.88630159  0.88111132  0.62734242  1
  Al  Al23  1  0.44866880  0.75877272  0.37246066  1
  Al  Al24  1  0.54602318  0.88048334  0.12984010  1
  Al  Al25  1  0.11142073  0.76955251  0.88285868  1
  Al  Al26  1  0.88613185  0.88391732  0.12297625  1
  Al  Al27  1  0.55406786  0.87743746  0.61842859  1
  Sc  Sc28  1  0.45377227  0.41979307  0.35167019  1
  Sc  Sc29  1  0.11994069  0.42053379  0.85538855  1
  Sc  Sc30  1  0.22479152  0.54449147  0.60608788  1
  Sc  Sc31  1  0.88951196  0.53098691  0.10958711  1
  Sc  Sc32  1  0.77556153  0.76867213  0.85924936  1
  Sc  Sc33  1  0.21521139  0.88316298  0.60516795  1
  Sc  Sc34  1  0.77896554  0.76431127  0.36140676  1
  Sc  Sc35  1  0.44369326  0.75798291  0.85948408  1
  N  N36  1  0.22476033  0.20661562  0.33311101  1
  N  N37  1  0.10839279  0.09744943  0.09344693  1
  N  N38  1  0.89294290  0.20143866  0.82908804  1
  N  N39  1  0.77427021  0.09743753  0.58635528  1
  N  N40  1  0.56882608  0.17903296  0.32302528  1
  N  N41  1  0.44192354  0.09349833  0.07973487  1
  N  N42  1  0.22884375  0.18271794  0.82743688  1
  N  N43  1  0.09619338  0.11800794  0.56773621  1
  N  N44  1  0.88226338  0.20665478  0.33205356  1
  N  N45  1  0.77743615  0.09606577  0.07456513  1
  N  N46  1  0.55214140  0.20601102  0.83830284  1
  N  N47  1  0.44238425  0.09910385  0.58088906  1
  N  N48  1  0.20434684  0.54798527  0.33820344  1
  N  N49  1  0.13164253  0.41622673  0.08620874  1
  N  N50  1  0.87768556  0.52716848  0.83999898  1
  N  N51  1  0.77882628  0.42314507  0.58228248  1
  N  N52  1  0.56916916  0.54734906  0.32725075  1
  N  N53  1  0.44585638  0.42567357  0.09401751  1
  N  N54  1  0.23332227  0.55425603  0.84153635  1
  N  N55  1  0.10498915  0.41937455  0.59287528  1
  N  N56  1  0.89766225  0.51968085  0.34228090  1
  N  N57  1  0.76954534  0.41129664  0.07884770  1
  N  N58  1  0.56681424  0.51479827  0.83252410  1
  N  N59  1  0.46666193  0.41372120  0.58056477  1
  N  N60  1  0.22454104  0.87366928  0.33895115  1
  N  N61  1  0.11088309  0.76372124  0.09131399  1
  N  N62  1  0.89957228  0.88424271  0.83305156  1
  N  N63  1  0.77976975  0.76197493  0.59894991  1
  N  N64  1  0.53477466  0.88433533  0.33739840  1
  N  N65  1  0.44474908  0.76121137  0.09158689  1
  N  N66  1  0.20378358  0.88597766  0.83962793  1
  N  N67  1  0.08872393  0.77661862  0.56890404  1
  N  N68  1  0.89393437  0.88927508  0.32597464  1
  N  N69  1  0.76720013  0.77977058  0.09967067  1
  N  N70  1  0.54394751  0.89245235  0.82292252  1
  N  N71  1  0.46418297  0.74637404  0.58775304  1
