# generated using pymatgen
data_Sc2Al7N9
_symmetry_space_group_name_H-M   'P 1'
_cell_length_a   10.07535980
_cell_length_b   10.11619464
_cell_length_c   9.07558030
_cell_angle_alpha   90.02320259
_cell_angle_beta   90.02816836
_cell_angle_gamma   60.10848586
_symmetry_Int_Tables_number   1
_chemical_formula_structural   Sc2Al7N9
_chemical_formula_sum   'Sc8 Al28 N36'
_cell_volume   801.96689190
_cell_formula_units_Z   4
loop_
 _symmetry_equiv_pos_site_id
 _symmetry_equiv_pos_as_xyz
  1  'x, y, z'
loop_
 _atom_site_type_symbol
 _atom_site_label
 _atom_site_symmetry_multiplicity
 _atom_site_fract_x
 _atom_site_fract_y
 _atom_site_fract_z
 _atom_site_occupancy
  Al  Al0  1  0.10662171  0.09784288  0.33225659  1
  Al  Al1  1  0.22905642  0.19714072  0.09098715  1
  Al  Al2  1  0.77837709  0.09836896  0.83594164  1
  Al  Al3  1  0.88657661  0.20565528  0.58298078  1
  Al  Al4  1  0.44261355  0.09419333  0.33618863  1
  Al  Al5  1  0.55506138  0.20231384  0.08024848  1
  Al  Al6  1  0.10588341  0.09943310  0.83692222  1
  Al  Al7  1  0.21896834  0.20616172  0.57745599  1
  Al  Al8  1  0.77966433  0.09602454  0.32990344  1
  Al  Al9  1  0.88630704  0.20291755  0.08233241  1
  Al  Al10  1  0.44051174  0.09757091  0.83005314  1
  Al  Al11  1  0.56238317  0.19717308  0.58851293  1
  Al  Al12  1  0.11408768  0.42358475  0.33824614  1
  Al  Al13  1  0.22729032  0.54046490  0.09013969  1
  Al  Al14  1  0.77831465  0.41628693  0.82814419  1
  Al  Al15  1  0.88865797  0.53082946  0.58747887  1
  Al  Al16  1  0.56030767  0.52645498  0.08793388  1
  Al  Al17  1  0.78007962  0.41849324  0.34023624  1
  Al  Al18  1  0.45383357  0.42091146  0.83909999  1
  Al  Al19  1  0.56470687  0.53675081  0.58218919  1
  Al  Al20  1  0.10899690  0.76675475  0.32609829  1
  Al  Al21  1  0.21725584  0.87847231  0.09222325  1
  Al  Al22  1  0.88528418  0.88424584  0.58164095  1
  Al  Al23  1  0.44407901  0.76205819  0.33051538  1
  Al  Al24  1  0.55047976  0.88370518  0.08762043  1
  Al  Al25  1  0.10595806  0.77280735  0.84546368  1
  Al  Al26  1  0.88697903  0.88233797  0.08658719  1
  Al  Al27  1  0.55001134  0.87541567  0.58329982  1
  Sc  Sc28  1  0.44886164  0.42191476  0.34797688  1
  Sc  Sc29  1  0.11594027  0.41924213  0.85227921  1
  Sc  Sc30  1  0.21803122  0.54496576  0.60103545  1
  Sc  Sc31  1  0.88417268  0.53324685  0.10254592  1
  Sc  Sc32  1  0.77837232  0.76704070  0.84505393  1
  Sc  Sc33  1  0.22085502  0.87839586  0.59445945  1
  Sc  Sc34  1  0.77562193  0.76729215  0.35058607  1
  Sc  Sc35  1  0.44829505  0.75468541  0.85501145  1
  N  N36  1  0.22214113  0.20467127  0.36350783  1
  N  N37  1  0.10621050  0.09831094  0.12079755  1
  N  N38  1  0.88882783  0.20486363  0.87003015  1
  N  N39  1  0.77758513  0.09673713  0.62431094  1
  N  N40  1  0.56833410  0.18159938  0.37507601  1
  N  N41  1  0.44482402  0.09705853  0.12463291  1
  N  N42  1  0.23167028  0.18456481  0.87739220  1
  N  N43  1  0.09963214  0.11516160  0.62011932  1
  N  N44  1  0.88858368  0.20200263  0.37183645  1
  N  N45  1  0.77395529  0.09864978  0.11781941  1
  N  N46  1  0.55405042  0.20303867  0.86564804  1
  N  N47  1  0.43945171  0.09655968  0.61711894  1
  N  N48  1  0.20429828  0.55131957  0.35680604  1
  N  N49  1  0.12986020  0.41752143  0.11216191  1
  N  N50  1  0.87712483  0.52856540  0.86126193  1
  N  N51  1  0.77894422  0.42263666  0.61309606  1
  N  N52  1  0.56400475  0.54819341  0.36681949  1
  N  N53  1  0.44605357  0.42214416  0.10990210  1
  N  N54  1  0.23315298  0.55023719  0.86393875  1
  N  N55  1  0.10495790  0.41880535  0.60923100  1
  N  N56  1  0.89662408  0.52055148  0.36166539  1
  N  N57  1  0.77014455  0.41071697  0.12880848  1
  N  N58  1  0.57039819  0.51377098  0.87367178  1
  N  N59  1  0.46492982  0.41687658  0.61246997  1
  N  N60  1  0.22240055  0.87327681  0.35153297  1
  N  N61  1  0.11018414  0.76307965  0.11211268  1
  N  N62  1  0.89372590  0.88822907  0.87595846  1
  N  N63  1  0.77676979  0.76470042  0.60102583  1
  N  N64  1  0.53362501  0.88313596  0.36809001  1
  N  N65  1  0.44706369  0.75790412  0.11188506  1
  N  N66  1  0.20661682  0.88611575  0.86911413  1
  N  N67  1  0.08995607  0.77687654  0.62872099  1
  N  N68  1  0.89894468  0.88602862  0.36690071  1
  N  N69  1  0.77030035  0.77867252  0.10936273  1
  N  N70  1  0.54568149  0.89267973  0.87307224  1
  N  N71  1  0.46265335  0.74953802  0.61621046  1
