# generated using pymatgen
data_Sc2Al7N9
_symmetry_space_group_name_H-M   'P 1'
_cell_length_a   10.01546674
_cell_length_b   10.05346417
_cell_length_c   9.26303766
_cell_angle_alpha   90.01789102
_cell_angle_beta   90.02301500
_cell_angle_gamma   60.09144013
_symmetry_Int_Tables_number   1
_chemical_formula_structural   Sc2Al7N9
_chemical_formula_sum   'Sc8 Al28 N36'
_cell_volume   808.48204022
_cell_formula_units_Z   4
loop_
 _symmetry_equiv_pos_site_id
 _symmetry_equiv_pos_as_xyz
  1  'x, y, z'
loop_
 _atom_site_type_symbol
 _atom_site_label
 _atom_site_symmetry_multiplicity
 _atom_site_fract_x
 _atom_site_fract_y
 _atom_site_fract_z
 _atom_site_occupancy
  Al  Al0  1  0.10712242  0.09719493  0.32959140  1
  Al  Al1  1  0.22945680  0.19642417  0.08690345  1
  Al  Al2  1  0.77825522  0.09842509  0.83296530  1
  Al  Al3  1  0.88658554  0.20603413  0.58062659  1
  Al  Al4  1  0.44220926  0.09423176  0.33313771  1
  Al  Al5  1  0.55467244  0.20331554  0.07796566  1
  Al  Al6  1  0.10561555  0.09967892  0.83329781  1
  Al  Al7  1  0.21833185  0.20698994  0.57545442  1
  Al  Al8  1  0.78006000  0.09585033  0.32757822  1
  Al  Al9  1  0.88610090  0.20285393  0.07931654  1
  Al  Al10  1  0.44069727  0.09756753  0.82760078  1
  Al  Al11  1  0.56277996  0.19623222  0.58480999  1
  Al  Al12  1  0.11531293  0.42330013  0.33165361  1
  Al  Al13  1  0.22877600  0.54033705  0.08378899  1
  Al  Al14  1  0.77846877  0.41664030  0.82579979  1
  Al  Al15  1  0.88924430  0.53039272  0.58074518  1
  Al  Al16  1  0.56016467  0.52483422  0.08385623  1
  Al  Al17  1  0.77963412  0.41820606  0.33658308  1
  Al  Al18  1  0.45482330  0.42029772  0.83206774  1
  Al  Al19  1  0.56518410  0.53789892  0.57948690  1
  Al  Al20  1  0.10964022  0.76619092  0.32354718  1
  Al  Al21  1  0.21638445  0.87871265  0.08687810  1
  Al  Al22  1  0.88566400  0.88416068  0.57829278  1
  Al  Al23  1  0.44340804  0.76248935  0.32494864  1
  Al  Al24  1  0.55106881  0.88427619  0.08418120  1
  Al  Al25  1  0.10537035  0.77343711  0.84111494  1
  Al  Al26  1  0.88699707  0.88233002  0.08364971  1
  Al  Al27  1  0.54953345  0.87508452  0.57979770  1
  Sc  Sc28  1  0.44810898  0.42274139  0.34728775  1
  Sc  Sc29  1  0.11456712  0.41965374  0.85122533  1
  Sc  Sc30  1  0.21686805  0.54456011  0.59956525  1
  Sc  Sc31  1  0.88328944  0.53407838  0.10162561  1
  Sc  Sc32  1  0.77862819  0.76651401  0.84192095  1
  Sc  Sc33  1  0.22182112  0.87779741  0.59199967  1
  Sc  Sc34  1  0.77530128  0.76802265  0.34923597  1
  Sc  Sc35  1  0.44868811  0.75455516  0.85434497  1
  N  N36  1  0.22185118  0.20524567  0.36710189  1
  N  N37  1  0.10630808  0.09815379  0.12364158  1
  N  N38  1  0.88867719  0.20495036  0.87272478  1
  N  N39  1  0.77761623  0.09658450  0.62688306  1
  N  N40  1  0.56865532  0.18074530  0.37798441  1
  N  N41  1  0.44469161  0.09732186  0.12743932  1
  N  N42  1  0.23199270  0.18380036  0.88025022  1
  N  N43  1  0.09961208  0.11528472  0.62377059  1
  N  N44  1  0.88879071  0.20209723  0.37501317  1
  N  N45  1  0.77407670  0.09852352  0.12115245  1
  N  N46  1  0.55387565  0.20349519  0.86891378  1
  N  N47  1  0.43952783  0.09638995  0.62039990  1
  N  N48  1  0.20313494  0.55149130  0.36283733  1
  N  N49  1  0.13087118  0.41752765  0.11306725  1
  N  N50  1  0.87573932  0.52901746  0.86863156  1
  N  N51  1  0.77935737  0.42324154  0.61675792  1
  N  N52  1  0.56411133  0.54958608  0.37103715  1
  N  N53  1  0.44557042  0.42249921  0.11539240  1
  N  N54  1  0.23404630  0.55021647  0.86501143  1
  N  N55  1  0.10345019  0.41877729  0.61555644  1
  N  N56  1  0.89758004  0.51950771  0.36186710  1
  N  N57  1  0.76918042  0.41022261  0.13193700  1
  N  N58  1  0.57075321  0.51222041  0.87673437  1
  N  N59  1  0.46560709  0.41662436  0.61380469  1
  N  N60  1  0.22286137  0.87273155  0.35552439  1
  N  N61  1  0.11059919  0.76242258  0.11539438  1
  N  N62  1  0.89364392  0.88846697  0.87920594  1
  N  N63  1  0.77705851  0.76385740  0.60051824  1
  N  N64  1  0.53222391  0.88332407  0.37123476  1
  N  N65  1  0.44690125  0.75780924  0.11189361  1
  N  N66  1  0.20589642  0.88649870  0.87164506  1
  N  N67  1  0.08928981  0.77747306  0.63289293  1
  N  N68  1  0.89991639  0.88612464  0.37051054  1
  N  N69  1  0.77011653  0.77961318  0.11223097  1
  N  N70  1  0.54621837  0.89333611  0.87724171  1
  N  N71  1  0.46354281  0.74945508  0.62248397  1
