# generated using pymatgen
data_Sc2Al7N9
_symmetry_space_group_name_H-M   'P 1'
_cell_length_a   9.73332130
_cell_length_b   9.75794867
_cell_length_c   10.09816511
_cell_angle_alpha   90.04620646
_cell_angle_beta   90.07841219
_cell_angle_gamma   60.03218048
_symmetry_Int_Tables_number   1
_chemical_formula_structural   Sc2Al7N9
_chemical_formula_sum   'Sc8 Al28 N36'
_cell_volume   830.86987980
_cell_formula_units_Z   4
loop_
 _symmetry_equiv_pos_site_id
 _symmetry_equiv_pos_as_xyz
  1  'x, y, z'
loop_
 _atom_site_type_symbol
 _atom_site_label
 _atom_site_symmetry_multiplicity
 _atom_site_fract_x
 _atom_site_fract_y
 _atom_site_fract_z
 _atom_site_occupancy
  Al  Al0  1  0.10609049  0.10191028  0.38548540  1
  Al  Al1  1  0.22681596  0.20258330  0.14334090  1
  Al  Al2  1  0.77907283  0.09836187  0.88888895  1
  Al  Al3  1  0.88637852  0.20830031  0.63982876  1
  Al  Al4  1  0.44141307  0.09469526  0.39076149  1
  Al  Al5  1  0.55974815  0.19579885  0.13694025  1
  Al  Al6  1  0.10700582  0.09483369  0.89419063  1
  Al  Al7  1  0.22151810  0.20143404  0.63790832  1
  Al  Al8  1  0.78044385  0.09480394  0.39117053  1
  Al  Al9  1  0.88471275  0.20283300  0.14074326  1
  Al  Al10  1  0.44141292  0.09614577  0.88983480  1
  Al  Al11  1  0.55853880  0.20290404  0.64228300  1
  Al  Al12  1  0.10999560  0.42201200  0.39514869  1
  Al  Al13  1  0.21977144  0.54121907  0.14230590  1
  Al  Al14  1  0.77619848  0.41459860  0.88829639  1
  Al  Al15  1  0.88334071  0.53449684  0.64152344  1
  Al  Al16  1  0.55761720  0.53889964  0.14125234  1
  Al  Al17  1  0.78166351  0.42291437  0.39435220  1
  Al  Al18  1  0.44974670  0.42376734  0.89673002  1
  Al  Al19  1  0.56632704  0.52790807  0.63962688  1
  Al  Al20  1  0.10482012  0.76970794  0.38430428  1
  Al  Al21  1  0.22174778  0.87424384  0.14581690  1
  Al  Al22  1  0.88575322  0.88062076  0.64241650  1
  Al  Al23  1  0.44777633  0.76098596  0.38963048  1
  Al  Al24  1  0.54666225  0.88005984  0.14571375  1
  Al  Al25  1  0.11076728  0.76923044  0.89702432  1
  Al  Al26  1  0.88785806  0.88163117  0.14103226  1
  Al  Al27  1  0.55508713  0.87630884  0.63824534  1
  Sc  Sc28  1  0.45144175  0.42221458  0.37235092  1
  Sc  Sc29  1  0.11891965  0.42142894  0.87957187  1
  Sc  Sc30  1  0.22553144  0.54232996  0.63072973  1
  Sc  Sc31  1  0.88894997  0.53196795  0.13625886  1
  Sc  Sc32  1  0.77571320  0.76914300  0.88224541  1
  Sc  Sc33  1  0.21720551  0.88110891  0.62939321  1
  Sc  Sc34  1  0.77863545  0.76472675  0.38627351  1
  Sc  Sc35  1  0.44366267  0.75701129  0.88485088  1
  N  N36  1  0.22335916  0.20629914  0.33376652  1
  N  N37  1  0.10913634  0.09667890  0.08820639  1
  N  N38  1  0.89112128  0.20208017  0.83065498  1
  N  N39  1  0.77590684  0.09650998  0.58328981  1
  N  N40  1  0.56836062  0.17922454  0.32553318  1
  N  N41  1  0.44211705  0.09399610  0.08060557  1
  N  N42  1  0.22969064  0.18340653  0.82681677  1
  N  N43  1  0.09685910  0.11722462  0.57265860  1
  N  N44  1  0.88481975  0.20742730  0.33121592  1
  N  N45  1  0.77758826  0.09512461  0.07831140  1
  N  N46  1  0.55327690  0.20543072  0.83630239  1
  N  N47  1  0.44314163  0.09705141  0.58097206  1
  N  N48  1  0.20144397  0.54917994  0.33662337  1
  N  N49  1  0.13095326  0.41658855  0.08766661  1
  N  N50  1  0.87694313  0.52784752  0.83382722  1
  N  N51  1  0.77912708  0.42384803  0.58323062  1
  N  N52  1  0.57019534  0.54807144  0.32869658  1
  N  N53  1  0.44532723  0.42623833  0.09605031  1
  N  N54  1  0.23405896  0.55341001  0.84175465  1
  N  N55  1  0.10372416  0.41968704  0.59047928  1
  N  N56  1  0.89768410  0.52016052  0.34425828  1
  N  N57  1  0.76757284  0.41387809  0.07633590  1
  N  N58  1  0.56571395  0.51507309  0.82891415  1
  N  N59  1  0.46687592  0.41414620  0.58057043  1
  N  N60  1  0.22317842  0.87423736  0.33994556  1
  N  N61  1  0.11051028  0.76333705  0.08859044  1
  N  N62  1  0.89941540  0.88491664  0.83066819  1
  N  N63  1  0.77930768  0.76213427  0.60270272  1
  N  N64  1  0.53523716  0.88410868  0.33377017  1
  N  N65  1  0.44337412  0.76142897  0.09519837  1
  N  N66  1  0.20442548  0.88421468  0.83918395  1
  N  N67  1  0.08883424  0.77519843  0.56993764  1
  N  N68  1  0.89589017  0.88757388  0.32677878  1
  N  N69  1  0.76756045  0.77972920  0.09958652  1
  N  N70  1  0.54313072  0.89165360  0.82389994  1
  N  N71  1  0.46539606  0.74765521  0.58327640  1
