# generated using pymatgen
data_ScAl17N18
_symmetry_space_group_name_H-M   'P 1'
_cell_length_a   9.75017635
_cell_length_b   9.74696486
_cell_length_c   9.26585244
_cell_angle_alpha   90.01988101
_cell_angle_beta   90.00000042
_cell_angle_gamma   59.98910543
_symmetry_Int_Tables_number   1
_chemical_formula_structural   ScAl17N18
_chemical_formula_sum   'Sc2 Al34 N36'
_cell_volume   762.51810551
_cell_formula_units_Z   2
loop_
 _symmetry_equiv_pos_site_id
 _symmetry_equiv_pos_as_xyz
  1  'x, y, z'
loop_
 _atom_site_type_symbol
 _atom_site_label
 _atom_site_symmetry_multiplicity
 _atom_site_fract_x
 _atom_site_fract_y
 _atom_site_fract_z
 _atom_site_occupancy
  Al  Al0  1  0.10804785  0.10057096  0.33885247  1
  Al  Al1  1  0.22485744  0.21196249  0.08589765  1
  Al  Al2  1  0.77288510  0.09621381  0.83101633  1
  Al  Al3  1  0.88580364  0.20702248  0.57999090  1
  Al  Al4  1  0.44647206  0.09323084  0.33359303  1
  Al  Al5  1  0.55614219  0.20438230  0.08369309  1
  Al  Al6  1  0.22384059  0.20702245  0.57999089  1
  Al  Al7  1  0.77696375  0.09323086  0.33359301  1
  Al  Al8  1  0.87984672  0.21196257  0.08589765  1
  Al  Al9  1  0.44756776  0.09621381  0.83101632  1
  Al  Al10  1  0.55482978  0.20700714  0.58066360  1
  Al  Al11  1  0.11098870  0.42923243  0.33357593  1
  Al  Al12  1  0.21984185  0.53656283  0.08081420  1
  Al  Al13  1  0.77425712  0.43125298  0.83046401  1
  Al  Al14  1  0.88837979  0.53990707  0.58128173  1
  Al  Al15  1  0.44434653  0.42797368  0.33031837  1
  Al  Al16  1  0.56026197  0.53656289  0.08081418  1
  Al  Al17  1  0.11115659  0.43125290  0.83046400  1
  Al  Al18  1  0.22465476  0.53603913  0.58347987  1
  Al  Al19  1  0.77644552  0.42923248  0.33357589  1
  Al  Al20  1  0.88923939  0.53818787  0.08398339  1
  Al  Al21  1  0.44477765  0.42711144  0.83520693  1
  Al  Al22  1  0.55597279  0.53603918  0.58347987  1
  Al  Al23  1  0.10637066  0.75635108  0.33954129  1
  Al  Al24  1  0.77841900  0.75982862  0.83403763  1
  Al  Al25  1  0.88615909  0.87274612  0.58421917  1
  Al  Al26  1  0.45394498  0.75635110  0.33954122  1
  Al  Al27  1  0.55889570  0.87133731  0.08069806  1
  Al  Al28  1  0.11148958  0.75740300  0.82746898  1
  Al  Al29  1  0.22283860  0.87098957  0.58034127  1
  Al  Al30  1  0.77736390  0.76193887  0.33037118  1
  Al  Al31  1  0.88643367  0.87133726  0.08069806  1
  Al  Al32  1  0.44777413  0.75740302  0.82746903  1
  Al  Al33  1  0.55776146  0.87274613  0.58421913  1
  Sc  Sc34  1  0.10959597  0.09747454  0.84546451  1
  Sc  Sc35  1  0.22582716  0.86501233  0.10381369  1
  N  N36  1  0.22409398  0.20693451  0.37350930  1
  N  N37  1  0.10122788  0.11421088  0.12041676  1
  N  N38  1  0.86598583  0.21718372  0.87846615  1
  N  N39  1  0.77619007  0.09527651  0.62397041  1
  N  N40  1  0.55489837  0.20686992  0.37405936  1
  N  N41  1  0.44657242  0.09231669  0.12737379  1
  N  N42  1  0.23349707  0.21718357  0.87846615  1
  N  N43  1  0.11067136  0.09532395  0.61024130  1
  N  N44  1  0.88563816  0.20693458  0.37350930  1
  N  N45  1  0.77777756  0.09231671  0.12737375  1
  N  N46  1  0.55578911  0.20508846  0.87718817  1
  N  N47  1  0.44520010  0.09527650  0.62397038  1
  N  N48  1  0.22517838  0.53524378  0.37840535  1
  N  N49  1  0.11007389  0.42958863  0.12802503  1
  N  N50  1  0.88965678  0.53735312  0.87611055  1
  N  N51  1  0.77821887  0.42840199  0.62360993  1
  N  N52  1  0.55624453  0.53524385  0.37840533  1
  N  N53  1  0.44378024  0.42910623  0.12243643  1
  N  N54  1  0.22136241  0.53961788  0.87336262  1
  N  N55  1  0.11004581  0.42840197  0.62360989  1
  N  N56  1  0.88818346  0.54029976  0.37466383  1
  N  N57  1  0.77700409  0.42958869  0.12802499  1
  N  N58  1  0.55568639  0.53961792  0.87336264  1
  N  N59  1  0.44506671  0.42653331  0.62847590  1
  N  N60  1  0.22293403  0.87079871  0.36583712  1
  N  N61  1  0.09863357  0.74896825  0.13332231  1
  N  N62  1  0.88935777  0.87292748  0.87245198  1
  N  N63  1  0.77840547  0.75985571  0.62818378  1
  N  N64  1  0.55835821  0.87298502  0.37894408  1
  N  N65  1  0.46906486  0.74896829  0.13332225  1
  N  N66  1  0.23198978  0.85268715  0.86931041  1
  N  N67  1  0.11044490  0.76032363  0.61903538  1
  N  N68  1  0.88532346  0.87298503  0.37894411  1
  N  N69  1  0.77760907  0.76144846  0.12289425  1
  N  N70  1  0.55438143  0.87292751  0.87245201  1
  N  N71  1  0.44589817  0.76032365  0.61903543  1
