# generated using pymatgen
data_ScAl17N18
_symmetry_space_group_name_H-M   'P 1'
_cell_length_a   9.64462307
_cell_length_b   9.64114265
_cell_length_c   9.58430561
_cell_angle_alpha   90.01355124
_cell_angle_beta   90.00000922
_cell_angle_gamma   59.98807261
_symmetry_Int_Tables_number   1
_chemical_formula_structural   ScAl17N18
_chemical_formula_sum   'Sc2 Al34 N36'
_cell_volume   771.70768889
_cell_formula_units_Z   2
loop_
 _symmetry_equiv_pos_site_id
 _symmetry_equiv_pos_as_xyz
  1  'x, y, z'
loop_
 _atom_site_type_symbol
 _atom_site_label
 _atom_site_symmetry_multiplicity
 _atom_site_fract_x
 _atom_site_fract_y
 _atom_site_fract_z
 _atom_site_occupancy
  Al  Al0  1  0.10753483  0.10159700  0.33101814  1
  Al  Al1  1  0.22491825  0.21223462  0.08143584  1
  Al  Al2  1  0.77303612  0.09612507  0.82771173  1
  Al  Al3  1  0.88668440  0.20655259  0.57615179  1
  Al  Al4  1  0.44627563  0.09351728  0.32958840  1
  Al  Al5  1  0.55596172  0.20474325  0.07934516  1
  Al  Al6  1  0.22342970  0.20655258  0.57615181  1
  Al  Al7  1  0.77687373  0.09351728  0.32958838  1
  Al  Al8  1  0.87951380  0.21223463  0.08143585  1
  Al  Al9  1  0.44750545  0.09612510  0.82771171  1
  Al  Al10  1  0.55500700  0.20665271  0.57764739  1
  Al  Al11  1  0.11095074  0.42912389  0.32940409  1
  Al  Al12  1  0.22003536  0.53629570  0.07722573  1
  Al  Al13  1  0.77406711  0.43114861  0.82728983  1
  Al  Al14  1  0.88856823  0.53953024  0.57804015  1
  Al  Al15  1  0.44441640  0.42783384  0.32748185  1
  Al  Al16  1  0.56033561  0.53629572  0.07722573  1
  Al  Al17  1  0.11145094  0.43114858  0.82728982  1
  Al  Al18  1  0.22412587  0.53656063  0.57968758  1
  Al  Al19  1  0.77659199  0.42912392  0.32940408  1
  Al  Al20  1  0.88913046  0.53840578  0.07996393  1
  Al  Al21  1  0.44462181  0.42742303  0.83068641  1
  Al  Al22  1  0.55598019  0.53656063  0.57968758  1
  Al  Al23  1  0.10614486  0.75615645  0.33396127  1
  Al  Al24  1  0.77827977  0.76010709  0.82962347  1
  Al  Al25  1  0.88671947  0.87275220  0.58021234  1
  Al  Al26  1  0.45436539  0.75615645  0.33396127  1
  Al  Al27  1  0.55938519  0.87114040  0.07735109  1
  Al  Al28  1  0.11192731  0.75761673  0.82480259  1
  Al  Al29  1  0.22259744  0.87147184  0.57356500  1
  Al  Al30  1  0.77745790  0.76175086  0.32730287  1
  Al  Al31  1  0.88614113  0.87114036  0.07735109  1
  Al  Al32  1  0.44712263  0.75761673  0.82480259  1
  Al  Al33  1  0.55719503  0.87275222  0.58021234  1
  Sc  Sc34  1  0.11010566  0.09645520  0.84052410  1
  Sc  Sc35  1  0.22587649  0.86491372  0.10011888  1
  N  N36  1  0.22388598  0.20690443  0.37739611  1
  N  N37  1  0.10066824  0.11533014  0.12475951  1
  N  N38  1  0.86580190  0.21721613  0.88322845  1
  N  N39  1  0.77663289  0.09517504  0.62823633  1
  N  N40  1  0.55505283  0.20656104  0.37851382  1
  N  N41  1  0.44653133  0.09252654  0.13083503  1
  N  N42  1  0.23364863  0.21721607  0.88322841  1
  N  N43  1  0.11104327  0.09458008  0.61537644  1
  N  N44  1  0.88587628  0.20690445  0.37739610  1
  N  N45  1  0.77760879  0.09252652  0.13083500  1
  N  N46  1  0.55563558  0.20539555  0.88038352  1
  N  N47  1  0.44485872  0.09517505  0.62823632  1
  N  N48  1  0.22468849  0.53561425  0.38196138  1
  N  N49  1  0.11006293  0.42952402  0.13144605  1
  N  N50  1  0.88951923  0.53762825  0.87958317  1
  N  N51  1  0.77826985  0.42804862  0.62798459  1
  N  N52  1  0.55636397  0.53561426  0.38196139  1
  N  N53  1  0.44381413  0.42903837  0.12710785  1
  N  N54  1  0.22158599  0.53955521  0.87754452  1
  N  N55  1  0.11034819  0.42804861  0.62798457  1
  N  N56  1  0.88837434  0.53991804  0.37880908  1
  N  N57  1  0.77707969  0.42952403  0.13144605  1
  N  N58  1  0.55552551  0.53955522  0.87754453  1
  N  N59  1  0.44491288  0.42684090  0.63140364  1
  N  N60  1  0.22279713  0.87107249  0.36675464  1
  N  N61  1  0.09805466  0.74836085  0.13691638  1
  N  N62  1  0.88931245  0.87278902  0.87681549  1
  N  N63  1  0.77827398  0.76011871  0.63112228  1
  N  N64  1  0.55792600  0.87308830  0.38231634  1
  N  N65  1  0.47025119  0.74836085  0.13691640  1
  N  N66  1  0.23234920  0.85196832  0.87671780  1
  N  N67  1  0.11086243  0.76077213  0.62397472  1
  N  N68  1  0.88565244  0.87308830  0.38231632  1
  N  N69  1  0.77769755  0.76127158  0.12762982  1
  N  N70  1  0.55456524  0.87278905  0.87681549  1
  N  N71  1  0.44503211  0.76077213  0.62397472  1
