# generated using pymatgen
data_ScAl17N18
_symmetry_space_group_name_H-M   'P 1'
_cell_length_a   9.53203448
_cell_length_b   9.52853901
_cell_length_c   9.90613403
_cell_angle_alpha   89.99918756
_cell_angle_beta   90.00003479
_cell_angle_gamma   59.98791090
_symmetry_Int_Tables_number   1
_chemical_formula_structural   ScAl17N18
_chemical_formula_sum   'Sc2 Al34 N36'
_cell_volume   779.10113073
_cell_formula_units_Z   2
loop_
 _symmetry_equiv_pos_site_id
 _symmetry_equiv_pos_as_xyz
  1  'x, y, z'
loop_
 _atom_site_type_symbol
 _atom_site_label
 _atom_site_symmetry_multiplicity
 _atom_site_fract_x
 _atom_site_fract_y
 _atom_site_fract_z
 _atom_site_occupancy
  Al  Al0  1  0.10759658  0.10147345  0.32724964  1
  Al  Al1  1  0.22432528  0.21185755  0.07858891  1
  Al  Al2  1  0.77343409  0.09591753  0.82561182  1
  Al  Al3  1  0.88659939  0.20654190  0.57236763  1
  Al  Al4  1  0.44607701  0.09384042  0.32628858  1
  Al  Al5  1  0.55573348  0.20519955  0.07601773  1
  Al  Al6  1  0.22352550  0.20654187  0.57236767  1
  Al  Al7  1  0.77674913  0.09384044  0.32628861  1
  Al  Al8  1  0.88048361  0.21185760  0.07858895  1
  Al  Al9  1  0.44731489  0.09591756  0.82561184  1
  Al  Al10  1  0.55524768  0.20617139  0.57555690  1
  Al  Al11  1  0.11088205  0.42909147  0.32595900  1
  Al  Al12  1  0.22047795  0.53601081  0.07486801  1
  Al  Al13  1  0.77403659  0.43087593  0.82532826  1
  Al  Al14  1  0.88880874  0.53904929  0.57571772  1
  Al  Al15  1  0.44446123  0.42774417  0.32564780  1
  Al  Al16  1  0.56017788  0.53601090  0.07486803  1
  Al  Al17  1  0.11175404  0.43087587  0.82532824  1
  Al  Al18  1  0.22345093  0.53710044  0.57654617  1
  Al  Al19  1  0.77669312  0.42909151  0.32595901  1
  Al  Al20  1  0.88900953  0.53864763  0.07694272  1
  Al  Al21  1  0.44446451  0.42773757  0.82705080  1
  Al  Al22  1  0.55611537  0.53710044  0.57654615  1
  Al  Al23  1  0.10662975  0.75657455  0.32939451  1
  Al  Al24  1  0.77811725  0.76043228  0.82611438  1
  Al  Al25  1  0.88733984  0.87268426  0.57683123  1
  Al  Al26  1  0.45346237  0.75657455  0.32939450  1
  Al  Al27  1  0.55976894  0.87103206  0.07517169  1
  Al  Al28  1  0.11186127  0.75757035  0.82265026  1
  Al  Al29  1  0.22290848  0.87084982  0.56912899  1
  Al  Al30  1  0.77758611  0.76149441  0.32528847  1
  Al  Al31  1  0.88586571  0.87103205  0.07517172  1
  Al  Al32  1  0.44723516  0.75757039  0.82265025  1
  Al  Al33  1  0.55664268  0.87268428  0.57683126  1
  Sc  Sc34  1  0.11019806  0.09627032  0.83164929  1
  Sc  Sc35  1  0.22523261  0.86620179  0.09350482  1
  N  N36  1  0.22397327  0.20713376  0.38010470  1
  N  N37  1  0.10037471  0.11591693  0.13100805  1
  N  N38  1  0.86710304  0.21648348  0.88715716  1
  N  N39  1  0.77719211  0.09495314  0.63183131  1
  N  N40  1  0.55524682  0.20617309  0.38213007  1
  N  N41  1  0.44637725  0.09282495  0.13329927  1
  N  N42  1  0.23308005  0.21648337  0.88715710  1
  N  N43  1  0.11124397  0.09417874  0.61579446  1
  N  N44  1  0.88555972  0.20713379  0.38010467  1
  N  N45  1  0.77746422  0.09282493  0.13329933  1
  N  N46  1  0.55543690  0.20579287  0.88282962  1
  N  N47  1  0.44452144  0.09495314  0.63183134  1
  N  N48  1  0.22401367  0.53626739  0.38449899  1
  N  N49  1  0.11003457  0.42945525  0.13388474  1
  N  N50  1  0.88933550  0.53799577  0.88226358  1
  N  N51  1  0.77834514  0.42758583  0.63169411  1
  N  N52  1  0.55638575  0.53626738  0.38449898  1
  N  N53  1  0.44391384  0.42883889  0.13099774  1
  N  N54  1  0.22196551  0.53936425  0.88110665  1
  N  N55  1  0.11073570  0.42758584  0.63169412  1
  N  N56  1  0.88862278  0.53942127  0.38214538  1
  N  N57  1  0.77717676  0.42945529  0.13388475  1
  N  N58  1  0.55533694  0.53936431  0.88110665  1
  N  N59  1  0.44473061  0.42720545  0.63349453  1
  N  N60  1  0.22290946  0.87084786  0.36952255  1
  N  N61  1  0.09826311  0.74850126  0.13929936  1
  N  N62  1  0.88919170  0.87256697  0.88049024  1
  N  N63  1  0.77813585  0.76039503  0.63323758  1
  N  N64  1  0.55726070  0.87314480  0.38463663  1
  N  N65  1  0.46990221  0.74850132  0.13929940  1
  N  N66  1  0.23196769  0.85273157  0.87935012  1
  N  N67  1  0.11098307  0.76084171  0.62799237  1
  N  N68  1  0.88626134  0.87314479  0.38463659  1
  N  N69  1  0.77783561  0.76099546  0.13159078  1
  N  N70  1  0.55490833  0.87256698  0.88049021  1
  N  N71  1  0.44484194  0.76084170  0.62799234  1
