# generated using pymatgen
data_ScAl17N18
_symmetry_space_group_name_H-M   'P 1'
_cell_length_a   9.79957548
_cell_length_b   9.79657421
_cell_length_c   9.11229743
_cell_angle_alpha   90.02179026
_cell_angle_beta   89.99999969
_cell_angle_gamma   59.98987006
_symmetry_Int_Tables_number   1
_chemical_formula_structural   ScAl17N18
_chemical_formula_sum   'Sc2 Al34 N36'
_cell_volume   757.52266560
_cell_formula_units_Z   2
loop_
 _symmetry_equiv_pos_site_id
 _symmetry_equiv_pos_as_xyz
  1  'x, y, z'
loop_
 _atom_site_type_symbol
 _atom_site_label
 _atom_site_symmetry_multiplicity
 _atom_site_fract_x
 _atom_site_fract_y
 _atom_site_fract_z
 _atom_site_occupancy
  Al  Al0  1  0.10835193  0.09996277  0.34325089  1
  Al  Al1  1  0.22472423  0.21170879  0.08865222  1
  Al  Al2  1  0.77286813  0.09620431  0.83310839  1
  Al  Al3  1  0.88529935  0.20729147  0.58223156  1
  Al  Al4  1  0.44651061  0.09313563  0.33596125  1
  Al  Al5  1  0.55619124  0.20428421  0.08624337  1
  Al  Al6  1  0.22407587  0.20729147  0.58223154  1
  Al  Al7  1  0.77702044  0.09313561  0.33596126  1
  Al  Al8  1  0.88023365  0.21170880  0.08865220  1
  Al  Al9  1  0.44759422  0.09620435  0.83310838  1
  Al  Al10  1  0.55477423  0.20711823  0.58257570  1
  Al  Al11  1  0.11099173  0.42926666  0.33602334  1
  Al  Al12  1  0.21986663  0.53660320  0.08309377  1
  Al  Al13  1  0.77435563  0.43129372  0.83249407  1
  Al  Al14  1  0.88831144  0.54004380  0.58329512  1
  Al  Al15  1  0.44431075  0.42804520  0.33225154  1
  Al  Al16  1  0.56019683  0.53660321  0.08309375  1
  Al  Al17  1  0.11101733  0.43129370  0.83249407  1
  Al  Al18  1  0.22479958  0.53590295  0.58567170  1
  Al  Al19  1  0.77640828  0.42926669  0.33602334  1
  Al  Al20  1  0.88927694  0.53811279  0.08638154  1
  Al  Al21  1  0.44484308  0.42698052  0.83769064  1
  Al  Al22  1  0.55596414  0.53590298  0.58567172  1
  Al  Al23  1  0.10661570  0.75658428  0.34256936  1
  Al  Al24  1  0.77846139  0.75974388  0.83649974  1
  Al  Al25  1  0.88599329  0.87271712  0.58649774  1
  Al  Al26  1  0.45346671  0.75658429  0.34256933  1
  Al  Al27  1  0.55870348  0.87146251  0.08286545  1
  Al  Al28  1  0.11118840  0.75725040  0.82930975  1
  Al  Al29  1  0.22304392  0.87057887  0.58439432  1
  Al  Al30  1  0.77734152  0.76198367  0.33242053  1
  Al  Al31  1  0.88650074  0.87146247  0.08286545  1
  Al  Al32  1  0.44822784  0.75725044  0.82930977  1
  Al  Al33  1  0.55795628  0.87271713  0.58649772  1
  Sc  Sc34  1  0.10931424  0.09803816  0.84719576  1
  Sc  Sc35  1  0.22570293  0.86526075  0.10517095  1
  N  N36  1  0.22416043  0.20694098  0.37121067  1
  N  N37  1  0.10152909  0.11360847  0.11853503  1
  N  N38  1  0.86634598  0.21703156  0.87563661  1
  N  N39  1  0.77601703  0.09528033  0.62150688  1
  N  N40  1  0.55484368  0.20697933  0.37152071  1
  N  N41  1  0.44654074  0.09227850  0.12526440  1
  N  N42  1  0.23328914  0.21703154  0.87563662  1
  N  N43  1  0.11049537  0.09567592  0.60707445  1
  N  N44  1  0.88556524  0.20694101  0.37121068  1
  N  N45  1  0.77784745  0.09227848  0.12526439  1
  N  N46  1  0.55583488  0.20499694  0.87521372  1
  N  N47  1  0.44536929  0.09528035  0.62150688  1
  N  N48  1  0.22530320  0.53519684  0.37621817  1
  N  N49  1  0.11009012  0.42957163  0.12592856  1
  N  N50  1  0.88969382  0.53727905  0.87400448  1
  N  N51  1  0.77817441  0.42857520  0.62110356  1
  N  N52  1  0.55616665  0.53519686  0.37621817  1
  N  N53  1  0.44377956  0.42910753  0.11988042  1
  N  N54  1  0.22134384  0.53956277  0.87098533  1
  N  N55  1  0.10991704  0.42857520  0.62110357  1
  N  N56  1  0.88811575  0.54043519  0.37226814  1
  N  N57  1  0.77700491  0.42957162  0.12592855  1
  N  N58  1  0.55576005  0.53956280  0.87098532  1
  N  N59  1  0.44511777  0.42643113  0.62654700  1
  N  N60  1  0.22300592  0.87065487  0.36560820  1
  N  N61  1  0.09903734  0.74936067  0.13091542  1
  N  N62  1  0.88931020  0.87299972  0.86999869  1
  N  N63  1  0.77844956  0.75976756  0.62627272  1
  N  N64  1  0.55847056  0.87291048  0.37682284  1
  N  N65  1  0.46826866  0.74936068  0.13091537  1
  N  N66  1  0.23173887  0.85318892  0.86478713  1
  N  N67  1  0.11020644  0.76008744  0.61639206  1
  N  N68  1  0.88528568  0.87291049  0.37682287  1
  N  N69  1  0.77758669  0.76149330  0.12028633  1
  N  N70  1  0.55435676  0.87299976  0.86999870  1
  N  N71  1  0.44637279  0.76008745  0.61639209  1
