# generated using pymatgen
data_Al17BN18
_symmetry_space_group_name_H-M   'P 1'
_cell_length_a   9.33461472
_cell_length_b   9.32392220
_cell_length_c   10.12607354
_cell_angle_alpha   89.72830905
_cell_angle_beta   89.95873736
_cell_angle_gamma   59.99298127
_symmetry_Int_Tables_number   1
_chemical_formula_structural   Al17BN18
_chemical_formula_sum   'Al34 B2 N36'
_cell_volume   763.18592992
_cell_formula_units_Z   2
loop_
 _symmetry_equiv_pos_site_id
 _symmetry_equiv_pos_as_xyz
  1  'x, y, z'
loop_
 _atom_site_type_symbol
 _atom_site_label
 _atom_site_symmetry_multiplicity
 _atom_site_fract_x
 _atom_site_fract_y
 _atom_site_fract_z
 _atom_site_occupancy
  Al  Al0  1  0.11324777  0.09309105  0.38966986  1
  Al  Al1  1  0.22778659  0.19775793  0.13360275  1
  Al  Al2  1  0.77730829  0.09664864  0.89375673  1
  Al  Al3  1  0.89310040  0.19365805  0.63285622  1
  Al  Al4  1  0.44285120  0.09695660  0.39429298  1
  Al  Al5  1  0.55827712  0.19924211  0.13977804  1
  Al  Al6  1  0.11034050  0.09244773  0.88897606  1
  Al  Al7  1  0.22015015  0.20652016  0.64158577  1
  Al  Al8  1  0.78029186  0.08487745  0.38112889  1
  Al  Al9  1  0.89353689  0.19984867  0.14097315  1
  Al  Al10  1  0.45218927  0.08400691  0.88069067  1
  Al  Al11  1  0.55854693  0.19946237  0.63967230  1
  Al  Al12  1  0.11289984  0.42609582  0.36173450  1
  Al  Al13  1  0.22619944  0.53916080  0.13939018  1
  Al  Al14  1  0.78208436  0.42930346  0.81664587  1
  Al  Al15  1  0.88777285  0.54639785  0.56361656  1
  Al  Al16  1  0.44600319  0.42683895  0.38931393  1
  Al  Al17  1  0.55145467  0.54629482  0.13428774  1
  Al  Al18  1  0.11504844  0.42737376  0.87307147  1
  Al  Al19  1  0.21496560  0.54344746  0.63596891  1
  Al  Al20  1  0.77812415  0.43176837  0.32188618  1
  Al  Al21  1  0.87662698  0.54635575  0.06421889  1
  Al  Al22  1  0.44562199  0.42606556  0.88909551  1
  Al  Al23  1  0.54598171  0.54179498  0.63941855  1
  Al  Al24  1  0.10429125  0.76509904  0.37909968  1
  Al  Al25  1  0.23004389  0.87451031  0.14039680  1
  Al  Al26  1  0.78579479  0.76548736  0.81287321  1
  Al  Al27  1  0.44221890  0.76010625  0.39495973  1
  Al  Al28  1  0.11494353  0.75982502  0.89481103  1
  Al  Al29  1  0.21213038  0.87466710  0.64018750  1
  Al  Al30  1  0.76488435  0.76717873  0.31289801  1
  Al  Al31  1  0.88584205  0.87420077  0.10514344  1
  Al  Al32  1  0.44805458  0.76425351  0.87932364  1
  Al  Al33  1  0.55594262  0.87510583  0.60609270  1
  B  B34  1  0.89068809  0.86976944  0.59479577  1
  B  B35  1  0.55566156  0.87054238  0.09490813  1
  N  N36  1  0.22555351  0.20047102  0.32285749  1
  N  N37  1  0.11139699  0.09360289  0.07684573  1
  N  N38  1  0.89235290  0.19732528  0.82421970  1
  N  N39  1  0.79195259  0.06181754  0.57736689  1
  N  N40  1  0.55481163  0.20456825  0.32839386  1
  N  N41  1  0.46213484  0.06215925  0.07738272  1
  N  N42  1  0.22461837  0.20159185  0.83225182  1
  N  N43  1  0.11264327  0.09393886  0.57730675  1
  N  N44  1  0.89156237  0.19956344  0.33387041  1
  N  N45  1  0.77347984  0.10579421  0.08072797  1
  N  N46  1  0.55769385  0.20396728  0.82827202  1
  N  N47  1  0.43666424  0.10599709  0.58141874  1
  N  N48  1  0.22461550  0.54008467  0.32903960  1
  N  N49  1  0.11281726  0.42855065  0.08885011  1
  N  N50  1  0.88361474  0.54434950  0.87528274  1
  N  N51  1  0.77795748  0.43207153  0.62120519  1
  N  N52  1  0.54648563  0.54488225  0.32613313  1
  N  N53  1  0.44622620  0.42481768  0.07766255  1
  N  N54  1  0.22395436  0.54225698  0.82562227  1
  N  N55  1  0.11175760  0.42641785  0.59085913  1
  N  N56  1  0.88372188  0.54593501  0.37413678  1
  N  N57  1  0.78098518  0.42927714  0.12672336  1
  N  N58  1  0.55118995  0.54033229  0.83173773  1
  N  N59  1  0.44462087  0.42531499  0.57796156  1
  N  N60  1  0.22362171  0.87259895  0.32850015  1
  N  N61  1  0.12630983  0.75768086  0.08237068  1
  N  N62  1  0.88735635  0.86831980  0.88816448  1
  N  N63  1  0.80194974  0.77460544  0.61974637  1
  N  N64  1  0.56023124  0.86963605  0.38753580  1
  N  N65  1  0.45883440  0.77767586  0.07574558  1
  N  N66  1  0.22138609  0.87172170  0.82832570  1
  N  N67  1  0.08021219  0.77747270  0.57622618  1
  N  N68  1  0.89072064  0.87172791  0.31037867  1
  N  N69  1  0.73945118  0.77521375  0.11962702  1
  N  N70  1  0.55486257  0.87110867  0.81048761  1
  N  N71  1  0.43247776  0.75872866  0.58220523  1
