# generated using pymatgen
data_Al17BN18
_symmetry_space_group_name_H-M   'P 1'
_cell_length_a   9.35078198
_cell_length_b   9.31199531
_cell_length_c   10.18606945
_cell_angle_alpha   89.44804585
_cell_angle_beta   90.00002518
_cell_angle_gamma   59.86226877
_symmetry_Int_Tables_number   1
_chemical_formula_structural   Al17BN18
_chemical_formula_sum   'Al34 B2 N36'
_cell_volume   767.00214506
_cell_formula_units_Z   2
loop_
 _symmetry_equiv_pos_site_id
 _symmetry_equiv_pos_as_xyz
  1  'x, y, z'
loop_
 _atom_site_type_symbol
 _atom_site_label
 _atom_site_symmetry_multiplicity
 _atom_site_fract_x
 _atom_site_fract_y
 _atom_site_fract_z
 _atom_site_occupancy
  Al  Al0  1  0.11053333  0.09783657  0.37260339  1
  Al  Al1  1  0.22907840  0.19569751  0.13711564  1
  Al  Al2  1  0.77589889  0.09764220  0.89838530  1
  Al  Al3  1  0.89189014  0.19569716  0.63711543  1
  Al  Al4  1  0.44312436  0.09764219  0.39838497  1
  Al  Al5  1  0.56123337  0.19154863  0.14486651  1
  Al  Al6  1  0.10829578  0.09783602  0.87260274  1
  Al  Al7  1  0.22625825  0.20197211  0.64459958  1
  Al  Al8  1  0.78218150  0.08231487  0.38966192  1
  Al  Al9  1  0.88843654  0.20197190  0.14459948  1
  Al  Al10  1  0.45216848  0.08231594  0.88966221  1
  Al  Al11  1  0.56388477  0.19154874  0.64486670  1
  Al  Al12  1  0.10790174  0.43641848  0.31825306  1
  Al  Al13  1  0.22470234  0.53876137  0.06644060  1
  Al  Al14  1  0.77234675  0.43641819  0.81825309  1
  Al  Al15  1  0.89293456  0.54388548  0.56807614  1
  Al  Al16  1  0.44139583  0.43198004  0.32143343  1
  Al  Al17  1  0.55765372  0.54143264  0.07150293  1
  Al  Al18  1  0.10759370  0.43563589  0.82373452  1
  Al  Al19  1  0.21758101  0.54143251  0.57150298  1
  Al  Al20  1  0.77343668  0.43563590  0.32373434  1
  Al  Al21  1  0.87984655  0.54388602  0.06807626  1
  Al  Al22  1  0.44329068  0.43198096  0.82143314  1
  Al  Al23  1  0.55320397  0.53876189  0.56644065  1
  Al  Al24  1  0.11404311  0.75992203  0.31302393  1
  Al  Al25  1  0.23041344  0.87063167  0.06908136  1
  Al  Al26  1  0.78270129  0.76566951  0.82123670  1
  Al  Al27  1  0.44594111  0.76651708  0.32655407  1
  Al  Al28  1  0.10420829  0.76651686  0.82655406  1
  Al  Al29  1  0.21562243  0.87063139  0.56908162  1
  Al  Al30  1  0.76829574  0.76566935  0.32123664  1
  Al  Al31  1  0.88629196  0.87145932  0.10070831  1
  Al  Al32  1  0.44270205  0.75992281  0.81302402  1
  Al  Al33  1  0.55891537  0.87146063  0.60070829  1
  B  B34  1  0.89245993  0.86911091  0.60885869  1
  B  B35  1  0.55509544  0.86911141  0.10885872  1
  N  N36  1  0.22914852  0.20132430  0.32679371  1
  N  N37  1  0.10709519  0.09811519  0.09151534  1
  N  N38  1  0.88619304  0.20132407  0.82679360  1
  N  N39  1  0.79447079  0.06089966  0.58386421  1
  N  N40  1  0.55938867  0.19750339  0.33349081  1
  N  N41  1  0.46129545  0.06090017  0.08386437  1
  N  N42  1  0.22814381  0.20216426  0.83705756  1
  N  N43  1  0.11145580  0.09811520  0.59151569  1
  N  N44  1  0.88635755  0.20216419  0.33705755  1
  N  N45  1  0.77246103  0.10513821  0.08257322  1
  N  N46  1  0.55977368  0.19750411  0.83349098  1
  N  N47  1  0.43906679  0.10513899  0.58257295  1
  N  N48  1  0.22184843  0.53968698  0.38419937  1
  N  N49  1  0.10539495  0.43756579  0.12751096  1
  N  N50  1  0.88661774  0.54056490  0.88113500  1
  N  N51  1  0.77370639  0.43756536  0.62751101  1
  N  N52  1  0.55335183  0.53967502  0.37950804  1
  N  N53  1  0.44290667  0.43045282  0.13075913  1
  N  N54  1  0.22364020  0.53967484  0.87950800  1
  N  N55  1  0.10761990  0.43490363  0.63419745  1
  N  N56  1  0.88948428  0.54056469  0.38113490  1
  N  N57  1  0.77414341  0.43490349  0.13419736  1
  N  N58  1  0.55513173  0.53968761  0.88419931  1
  N  N59  1  0.44330776  0.43045316  0.63075898  1
  N  N60  1  0.22345607  0.86652660  0.37953753  1
  N  N61  1  0.12445680  0.75658552  0.12682866  1
  N  N62  1  0.89234200  0.86456249  0.89572901  1
  N  N63  1  0.80172859  0.77451083  0.62576328  1
  N  N64  1  0.55976235  0.86456265  0.39572891  1
  N  N65  1  0.45736161  0.77798681  0.13047018  1
  N  N66  1  0.22668449  0.86652637  0.87953720  1
  N  N67  1  0.08131828  0.77798670  0.63047017  1
  N  N68  1  0.88755291  0.87226312  0.32121256  1
  N  N69  1  0.74042679  0.77451112  0.12576328  1
  N  N70  1  0.55685083  0.87226439  0.82121269  1
  N  N71  1  0.43562503  0.75658602  0.62682873  1
