# generated using pymatgen
data_Al17BN18
_symmetry_space_group_name_H-M   'P 1'
_cell_length_a   9.33556737
_cell_length_b   9.31763757
_cell_length_c   10.06657083
_cell_angle_alpha   89.74943104
_cell_angle_beta   89.99998477
_cell_angle_gamma   59.93636480
_symmetry_Int_Tables_number   1
_chemical_formula_structural   Al17BN18
_chemical_formula_sum   'Al34 B2 N36'
_cell_volume   757.83442986
_cell_formula_units_Z   2
loop_
 _symmetry_equiv_pos_site_id
 _symmetry_equiv_pos_as_xyz
  1  'x, y, z'
loop_
 _atom_site_type_symbol
 _atom_site_label
 _atom_site_symmetry_multiplicity
 _atom_site_fract_x
 _atom_site_fract_y
 _atom_site_fract_z
 _atom_site_occupancy
  Al  Al0  1  0.11299568  0.09437549  0.38744035  1
  Al  Al1  1  0.22708620  0.19880118  0.13506657  1
  Al  Al2  1  0.77672871  0.09643829  0.89256686  1
  Al  Al3  1  0.89077784  0.19880094  0.63506676  1
  Al  Al4  1  0.44349884  0.09643886  0.39256691  1
  Al  Al5  1  0.55786210  0.19936596  0.13822654  1
  Al  Al6  1  0.10929533  0.09437446  0.88744031  1
  Al  Al7  1  0.22036893  0.20728316  0.64086268  1
  Al  Al8  1  0.78107688  0.08533721  0.37917435  1
  Al  Al9  1  0.88901308  0.20728370  0.14086246  1
  Al  Al10  1  0.45025278  0.08533683  0.87917435  1
  Al  Al11  1  0.55943781  0.19936646  0.63822638  1
  Al  Al12  1  0.11606099  0.42475865  0.38317691  1
  Al  Al13  1  0.22605096  0.53780071  0.14044979  1
  Al  Al14  1  0.77584705  0.42475886  0.88317695  1
  Al  Al15  1  0.88900128  0.54758080  0.58049480  1
  Al  Al16  1  0.44645837  0.42664981  0.38737805  1
  Al  Al17  1  0.55699375  0.54277782  0.13496464  1
  Al  Al18  1  0.11481229  0.42755748  0.88503306  1
  Al  Al19  1  0.21689551  0.54277744  0.63496465  1
  Al  Al20  1  0.77429587  0.42755843  0.38503308  1
  Al  Al21  1  0.88008441  0.54758208  0.08049466  1
  Al  Al22  1  0.44355842  0.42664936  0.88737808  1
  Al  Al23  1  0.55281499  0.53780136  0.64044975  1
  Al  Al24  1  0.10480114  0.76438211  0.37772802  1
  Al  Al25  1  0.22926015  0.87483143  0.13838795  1
  Al  Al26  1  0.78461304  0.76548376  0.81415672  1
  Al  Al27  1  0.44320479  0.75900769  0.39319679  1
  Al  Al28  1  0.11445582  0.75900637  0.89319664  1
  Al  Al29  1  0.21257500  0.87483149  0.63838769  1
  Al  Al30  1  0.76657034  0.76548437  0.31415657  1
  Al  Al31  1  0.88591627  0.87565197  0.10463255  1
  Al  Al32  1  0.44748412  0.76438165  0.87772781  1
  Al  Al33  1  0.55510040  0.87565223  0.60463247  1
  B  B34  1  0.89127984  0.87124361  0.59395446  1
  B  B35  1  0.55414300  0.87124415  0.09395447  1
  N  N36  1  0.22532451  0.20317186  0.32366468  1
  N  N37  1  0.10961526  0.09581141  0.07704075  1
  N  N38  1  0.88817000  0.20317161  0.82366485  1
  N  N39  1  0.79310035  0.06293774  0.57688845  1
  N  N40  1  0.55548395  0.20407136  0.32765004  1
  N  N41  1  0.46062764  0.06293816  0.07688863  1
  N  N42  1  0.22282998  0.20459675  0.83043596  1
  N  N43  1  0.11123862  0.09581161  0.57704076  1
  N  N44  1  0.88923902  0.20459763  0.33043570  1
  N  N45  1  0.77341377  0.10663482  0.08067600  1
  N  N46  1  0.55711134  0.20407105  0.82764984  1
  N  N47  1  0.43661730  0.10663512  0.58067618  1
  N  N48  1  0.22468781  0.53846434  0.32944419  1
  N  N49  1  0.11599625  0.42690491  0.07826386  1
  N  N50  1  0.88679636  0.54188604  0.85928506  1
  N  N51  1  0.77376522  0.42690460  0.57826383  1
  N  N52  1  0.55368444  0.54070033  0.32388216  1
  N  N53  1  0.44539099  0.42557181  0.07744695  1
  N  N54  1  0.22228216  0.54069929  0.82388216  1
  N  N55  1  0.11639525  0.42483142  0.57570840  1
  N  N56  1  0.88798427  0.54188642  0.35928569  1
  N  N57  1  0.77543998  0.42483219  0.07570836  1
  N  N58  1  0.55351455  0.53846407  0.82944417  1
  N  N59  1  0.44570383  0.42557226  0.57744693  1
  N  N60  1  0.22396241  0.87241983  0.32773556  1
  N  N61  1  0.12611933  0.75642524  0.08195365  1
  N  N62  1  0.88705726  0.86885886  0.88735662  1
  N  N63  1  0.80141541  0.77705770  0.61855411  1
  N  N64  1  0.56075136  0.86885965  0.38735672  1
  N  N65  1  0.45874358  0.77714876  0.07569783  1
  N  N66  1  0.22028526  0.87241909  0.82773530  1
  N  N67  1  0.08077453  0.77714852  0.57569784  1
  N  N68  1  0.89100573  0.87204699  0.30970635  1
  N  N69  1  0.73819354  0.77705861  0.11855408  1
  N  N70  1  0.55361513  0.87204655  0.80970662  1
  N  N71  1  0.43412253  0.75642613  0.58195377  1
