# generated using pymatgen
data_Al17BN18
_symmetry_space_group_name_H-M   'P 1'
_cell_length_a   9.35400177
_cell_length_b   9.31461324
_cell_length_c   10.18436538
_cell_angle_alpha   89.44233098
_cell_angle_beta   90.00001126
_cell_angle_gamma   59.86009897
_symmetry_Int_Tables_number   1
_chemical_formula_structural   Al17BN18
_chemical_formula_sum   'Al34 B2 N36'
_cell_volume   767.33569741
_cell_formula_units_Z   2
loop_
 _symmetry_equiv_pos_site_id
 _symmetry_equiv_pos_as_xyz
  1  'x, y, z'
loop_
 _atom_site_type_symbol
 _atom_site_label
 _atom_site_symmetry_multiplicity
 _atom_site_fract_x
 _atom_site_fract_y
 _atom_site_fract_z
 _atom_site_occupancy
  Al  Al0  1  0.11137432  0.09579355  0.36163263  1
  Al  Al1  1  0.22950018  0.19620607  0.13673098  1
  Al  Al2  1  0.77578375  0.09763840  0.89853347  1
  Al  Al3  1  0.89096002  0.19620568  0.63673072  1
  Al  Al4  1  0.44324321  0.09763842  0.39853316  1
  Al  Al5  1  0.56119318  0.19151618  0.14495121  1
  Al  Al6  1  0.10949723  0.09579313  0.86163207  1
  Al  Al7  1  0.22676874  0.20254146  0.64431672  1
  Al  Al8  1  0.78209111  0.08229989  0.38985182  1
  Al  Al9  1  0.88735681  0.20254113  0.14431659  1
  Al  Al10  1  0.45227374  0.08230102  0.88985208  1
  Al  Al11  1  0.56395742  0.19151628  0.64495138  1
  Al  Al12  1  0.10788364  0.43654453  0.31841314  1
  Al  Al13  1  0.22471606  0.53886521  0.06648989  1
  Al  Al14  1  0.77223887  0.43654432  0.81841313  1
  Al  Al15  1  0.89293688  0.54390803  0.56809116  1
  Al  Al16  1  0.44142442  0.43192253  0.32146887  1
  Al  Al17  1  0.55746316  0.54164955  0.07156599  1
  Al  Al18  1  0.10751286  0.43577343  0.82395032  1
  Al  Al19  1  0.21755474  0.54164940  0.57156606  1
  Al  Al20  1  0.77338008  0.43577345  0.32395012  1
  Al  Al21  1  0.87982172  0.54390854  0.06809129  1
  Al  Al22  1  0.44331974  0.43192346  0.82146857  1
  Al  Al23  1  0.55308647  0.53886572  0.56648995  1
  Al  Al24  1  0.11404033  0.75973966  0.31300872  1
  Al  Al25  1  0.22980427  0.87167515  0.06904490  1
  Al  Al26  1  0.78262862  0.76573817  0.82123942  1
  Al  Al27  1  0.44618940  0.76634118  0.32656078  1
  Al  Al28  1  0.10413599  0.76634097  0.82656079  1
  Al  Al29  1  0.21518802  0.87167478  0.56904514  1
  Al  Al30  1  0.76829980  0.76573798  0.32123936  1
  Al  Al31  1  0.88639137  0.87139487  0.10075523  1
  Al  Al32  1  0.44288716  0.75974056  0.81300881  1
  Al  Al33  1  0.55888037  0.87139620  0.60075522  1
  B  B34  1  0.89253225  0.86902695  0.60890924  1
  B  B35  1  0.55510712  0.86902745  0.10890926  1
  N  N36  1  0.22962420  0.20199145  0.32740715  1
  N  N37  1  0.10795395  0.09640459  0.10000959  1
  N  N38  1  0.88504981  0.20199136  0.82740697  1
  N  N39  1  0.79439489  0.06082055  0.58392870  1
  N  N40  1  0.55942929  0.19748550  0.33355304  1
  N  N41  1  0.46145060  0.06082106  0.08392884  1
  N  N42  1  0.22844092  0.20272316  0.83797635  1
  N  N43  1  0.11230794  0.09640449  0.60000995  1
  N  N44  1  0.88550116  0.20272314  0.33797628  1
  N  N45  1  0.77227253  0.10501151  0.08264467  1
  N  N46  1  0.55975077  0.19748621  0.83355320  1
  N  N47  1  0.43938212  0.10501230  0.58264442  1
  N  N48  1  0.22188701  0.53977956  0.38422596  1
  N  N49  1  0.10534493  0.43771387  0.12750316  1
  N  N50  1  0.88651915  0.54070508  0.88111968  1
  N  N51  1  0.77360854  0.43771343  0.62750318  1
  N  N52  1  0.55325594  0.53973866  0.37951072  1
  N  N53  1  0.44292813  0.43039690  0.13076663  1
  N  N54  1  0.22367242  0.53973846  0.87951068  1
  N  N55  1  0.10761542  0.43507111  0.63424045  1
  N  N56  1  0.88944264  0.54070486  0.38111958  1
  N  N57  1  0.77398058  0.43507094  0.13424036  1
  N  N58  1  0.55500050  0.53978025  0.88422589  1
  N  N59  1  0.44334241  0.43039723  0.63076648  1
  N  N60  1  0.22345481  0.86658072  0.37993041  1
  N  N61  1  0.12455565  0.75654727  0.12678780  1
  N  N62  1  0.89232944  0.86458127  0.89572187  1
  N  N63  1  0.80172143  0.77449752  0.62578206  1
  N  N64  1  0.55975601  0.86458145  0.39572178  1
  N  N65  1  0.45739218  0.77792894  0.13041593  1
  N  N66  1  0.22663141  0.86658060  0.87993012  1
  N  N67  1  0.08134572  0.77792872  0.63041596  1
  N  N68  1  0.88760369  0.87231329  0.32124346  1
  N  N69  1  0.74044738  0.77449774  0.12578208  1
  N  N70  1  0.55674974  0.87231459  0.82124359  1
  N  N71  1  0.43556452  0.75654776  0.62678788  1
