# generated using pymatgen
data_Al17BN18
_symmetry_space_group_name_H-M   'P 1'
_cell_length_a   9.35112685
_cell_length_b   9.30143626
_cell_length_c   10.25344230
_cell_angle_alpha   89.54168519
_cell_angle_beta   90.12400897
_cell_angle_gamma   59.74803853
_symmetry_Int_Tables_number   1
_chemical_formula_structural   Al17BN18
_chemical_formula_sum   'Al34 B2 N36'
_cell_volume   770.33738072
_cell_formula_units_Z   2
loop_
 _symmetry_equiv_pos_site_id
 _symmetry_equiv_pos_as_xyz
  1  'x, y, z'
loop_
 _atom_site_type_symbol
 _atom_site_label
 _atom_site_symmetry_multiplicity
 _atom_site_fract_x
 _atom_site_fract_y
 _atom_site_fract_z
 _atom_site_occupancy
  Al  Al0  1  0.11102862  0.09692157  0.39012541  1
  Al  Al1  1  0.22990658  0.19515552  0.13769386  1
  Al  Al2  1  0.77607927  0.09858598  0.89727033  1
  Al  Al3  1  0.89379890  0.19343015  0.63883250  1
  Al  Al4  1  0.44161341  0.10069040  0.39658920  1
  Al  Al5  1  0.56189700  0.19243499  0.14318312  1
  Al  Al6  1  0.11090352  0.09260833  0.89284816  1
  Al  Al7  1  0.22335678  0.20199321  0.64425032  1
  Al  Al8  1  0.78199134  0.08387572  0.38804437  1
  Al  Al9  1  0.89249980  0.19970947  0.14461878  1
  Al  Al10  1  0.45009011  0.08388893  0.88720702  1
  Al  Al11  1  0.56253061  0.19226474  0.64420918  1
  Al  Al12  1  0.10707423  0.43559220  0.31715785  1
  Al  Al13  1  0.22471283  0.53942881  0.06628472  1
  Al  Al14  1  0.77682800  0.43178605  0.81835429  1
  Al  Al15  1  0.89190076  0.54442265  0.56608016  1
  Al  Al16  1  0.44152955  0.43376719  0.31903165  1
  Al  Al17  1  0.55824937  0.54308194  0.06851631  1
  Al  Al18  1  0.10733050  0.43291499  0.82271441  1
  Al  Al19  1  0.21546212  0.54269156  0.56975883  1
  Al  Al20  1  0.77342679  0.43501040  0.32101868  1
  Al  Al21  1  0.88010107  0.54448794  0.06763794  1
  Al  Al22  1  0.44172192  0.43094098  0.82082098  1
  Al  Al23  1  0.55898582  0.52729533  0.57090453  1
  Al  Al24  1  0.11000836  0.75851284  0.31261714  1
  Al  Al25  1  0.23743395  0.87462359  0.14004976  1
  Al  Al26  1  0.78347079  0.76419922  0.81822109  1
  Al  Al27  1  0.44020442  0.76647896  0.39639172  1
  Al  Al28  1  0.10022253  0.76277776  0.82906420  1
  Al  Al29  1  0.21082538  0.87931444  0.63699631  1
  Al  Al30  1  0.76557630  0.76667390  0.31714337  1
  Al  Al31  1  0.88556244  0.87169761  0.09658428  1
  Al  Al32  1  0.44761659  0.76012588  0.83510494  1
  Al  Al33  1  0.56080836  0.87623222  0.60330472  1
  B  B34  1  0.89148603  0.86889179  0.60623406  1
  B  B35  1  0.55503069  0.86757431  0.10033613  1
  N  N36  1  0.22645549  0.20027291  0.32562531  1
  N  N37  1  0.11019548  0.09594440  0.07807668  1
  N  N38  1  0.89244676  0.19649875  0.82657528  1
  N  N39  1  0.79312956  0.06262024  0.58275603  1
  N  N40  1  0.55875229  0.19896649  0.33089131  1
  N  N41  1  0.46133570  0.06372067  0.07990342  1
  N  N42  1  0.22553802  0.19842933  0.83385992  1
  N  N43  1  0.11009840  0.09854948  0.57598796  1
  N  N44  1  0.89046821  0.19965001  0.33381475  1
  N  N45  1  0.77369557  0.10611499  0.08066887  1
  N  N46  1  0.56008904  0.19650731  0.83166511  1
  N  N47  1  0.43522131  0.10952184  0.58081488  1
  N  N48  1  0.22201066  0.53950771  0.38364559  1
  N  N49  1  0.10616710  0.43685222  0.12729075  1
  N  N50  1  0.88637637  0.54026963  0.88115641  1
  N  N51  1  0.77727228  0.43434183  0.62971631  1
  N  N52  1  0.55745083  0.53287089  0.38466615  1
  N  N53  1  0.44346634  0.43301588  0.12968754  1
  N  N54  1  0.22315390  0.53730128  0.88040465  1
  N  N55  1  0.10622739  0.43511446  0.63378973  1
  N  N56  1  0.88825660  0.54074351  0.38017483  1
  N  N57  1  0.77546818  0.43379618  0.13268128  1
  N  N58  1  0.55793605  0.53440876  0.88012386  1
  N  N59  1  0.43981305  0.43149798  0.63277864  1
  N  N60  1  0.22600679  0.87494466  0.33140145  1
  N  N61  1  0.12127750  0.75765748  0.12344770  1
  N  N62  1  0.88922778  0.86501438  0.89518819  1
  N  N63  1  0.80131104  0.77439912  0.62542307  1
  N  N64  1  0.56266195  0.86911323  0.39641677  1
  N  N65  1  0.46152882  0.77881248  0.09310006  1
  N  N66  1  0.21936193  0.87447425  0.82576207  1
  N  N67  1  0.07757997  0.77633311  0.62838401  1
  N  N68  1  0.88579244  0.87231940  0.32354894  1
  N  N69  1  0.74179275  0.77494465  0.12379251  1
  N  N70  1  0.55568139  0.87436011  0.81029713  1
  N  N71  1  0.43661920  0.75876766  0.59784561  1
