# generated using pymatgen
data_Al17BN18
_symmetry_space_group_name_H-M   'P 1'
_cell_length_a   9.33233621
_cell_length_b   9.29909285
_cell_length_c   10.27981509
_cell_angle_alpha   89.73185181
_cell_angle_beta   90.16988995
_cell_angle_gamma   59.79536632
_symmetry_Int_Tables_number   1
_chemical_formula_structural   Al17BN18
_chemical_formula_sum   'Al34 B2 N36'
_cell_volume   770.96504280
_cell_formula_units_Z   2
loop_
 _symmetry_equiv_pos_site_id
 _symmetry_equiv_pos_as_xyz
  1  'x, y, z'
loop_
 _atom_site_type_symbol
 _atom_site_label
 _atom_site_symmetry_multiplicity
 _atom_site_fract_x
 _atom_site_fract_y
 _atom_site_fract_z
 _atom_site_occupancy
  Al  Al0  1  0.11357596  0.09275332  0.39131161  1
  Al  Al1  1  0.22973002  0.19494931  0.13931535  1
  Al  Al2  1  0.77436982  0.10118690  0.89706779  1
  Al  Al3  1  0.89399936  0.19239487  0.63729896  1
  Al  Al4  1  0.44299494  0.09760670  0.39706673  1
  Al  Al5  1  0.56231115  0.19103583  0.14507027  1
  Al  Al6  1  0.10848029  0.09799891  0.89142620  1
  Al  Al7  1  0.22240646  0.20214063  0.64233398  1
  Al  Al8  1  0.78392105  0.08130530  0.38695738  1
  Al  Al9  1  0.89365777  0.19969601  0.14588360  1
  Al  Al10  1  0.44925813  0.08707733  0.88383665  1
  Al  Al11  1  0.56259153  0.19243373  0.64155479  1
  Al  Al12  1  0.10695893  0.43460405  0.31870916  1
  Al  Al13  1  0.22850714  0.53084380  0.06883078  1
  Al  Al14  1  0.77463955  0.43396995  0.81607786  1
  Al  Al15  1  0.89007244  0.54693897  0.56604453  1
  Al  Al16  1  0.44331269  0.43139756  0.32144493  1
  Al  Al17  1  0.56308662  0.53215206  0.06964649  1
  Al  Al18  1  0.10655542  0.43553522  0.81936172  1
  Al  Al19  1  0.21237253  0.54807567  0.56853204  1
  Al  Al20  1  0.77478558  0.43382608  0.32305682  1
  Al  Al21  1  0.88049535  0.54350156  0.06606584  1
  Al  Al22  1  0.44129559  0.43294421  0.81778744  1
  Al  Al23  1  0.55674030  0.53057957  0.57042011  1
  Al  Al24  1  0.11267068  0.75739700  0.30863374  1
  Al  Al25  1  0.23761246  0.87628548  0.13567516  1
  Al  Al26  1  0.78361672  0.76533351  0.81708620  1
  Al  Al27  1  0.43899896  0.76692840  0.39804379  1
  Al  Al28  1  0.10648384  0.76500884  0.87004690  1
  Al  Al29  1  0.21329127  0.87331555  0.64475900  1
  Al  Al30  1  0.76509469  0.76572969  0.31417420  1
  Al  Al31  1  0.88071360  0.87572915  0.10099771  1
  Al  Al32  1  0.44742488  0.76739308  0.87948588  1
  Al  Al33  1  0.55590407  0.87449000  0.61094513  1
  B  B34  1  0.89433835  0.86806562  0.60620660  1
  B  B35  1  0.55635130  0.86937566  0.09569120  1
  N  N36  1  0.22652265  0.19952014  0.32663750  1
  N  N37  1  0.10990773  0.09768103  0.07651463  1
  N  N38  1  0.89119090  0.19794278  0.82503095  1
  N  N39  1  0.79254446  0.06276764  0.57994627  1
  N  N40  1  0.55973701  0.19684148  0.33170720  1
  N  N41  1  0.46130804  0.06363753  0.07832677  1
  N  N42  1  0.22454182  0.20107138  0.83184028  1
  N  N43  1  0.11211564  0.09398134  0.57743896  1
  N  N44  1  0.89261875  0.19777519  0.33410911  1
  N  N45  1  0.77218619  0.10968759  0.08027759  1
  N  N46  1  0.55985720  0.19795616  0.82896198  1
  N  N47  1  0.43603897  0.10659619  0.58089675  1
  N  N48  1  0.22179291  0.54033797  0.38076383  1
  N  N49  1  0.10526357  0.43583136  0.12923755  1
  N  N50  1  0.88622011  0.54092026  0.88031187  1
  N  N51  1  0.77638380  0.43494910  0.62860639  1
  N  N52  1  0.55835305  0.53191880  0.38348881  1
  N  N53  1  0.44446524  0.43016542  0.13288366  1
  N  N54  1  0.22551603  0.53350591  0.88372898  1
  N  N55  1  0.10610931  0.43584247  0.63152433  1
  N  N56  1  0.88799325  0.54220816  0.38033564  1
  N  N57  1  0.77714576  0.43348962  0.13494307  1
  N  N58  1  0.55844393  0.53222714  0.88298135  1
  N  N59  1  0.43850314  0.43248195  0.63087658  1
  N  N60  1  0.22861172  0.87365168  0.32223249  1
  N  N61  1  0.12318279  0.75764002  0.10957137  1
  N  N62  1  0.88435946  0.86836995  0.89803462  1
  N  N63  1  0.79905626  0.77592784  0.62627746  1
  N  N64  1  0.56127645  0.86923740  0.38740090  1
  N  N65  1  0.46055845  0.77901715  0.07452508  1
  N  N66  1  0.22219808  0.87370948  0.83323364  1
  N  N67  1  0.07718262  0.77857587  0.61741015  1
  N  N68  1  0.88650891  0.87304369  0.30987120  1
  N  N69  1  0.73983806  0.77420574  0.12078752  1
  N  N70  1  0.55333858  0.87280346  0.81255210  1
  N  N71  1  0.43164056  0.76222047  0.58645000  1
