# generated using pymatgen
data_Al17BN18
_symmetry_space_group_name_H-M   'P 1'
_cell_length_a   9.34793148
_cell_length_b   9.32389860
_cell_length_c   10.16365950
_cell_angle_alpha   89.46292902
_cell_angle_beta   89.98942531
_cell_angle_gamma   59.84758792
_symmetry_Int_Tables_number   1
_chemical_formula_structural   Al17BN18
_chemical_formula_sum   'Al34 B2 N36'
_cell_volume   765.94878972
_cell_formula_units_Z   2
loop_
 _symmetry_equiv_pos_site_id
 _symmetry_equiv_pos_as_xyz
  1  'x, y, z'
loop_
 _atom_site_type_symbol
 _atom_site_label
 _atom_site_symmetry_multiplicity
 _atom_site_fract_x
 _atom_site_fract_y
 _atom_site_fract_z
 _atom_site_occupancy
  Al  Al0  1  0.10706120  0.09212305  0.32476542  1
  Al  Al1  1  0.23099229  0.19798544  0.13717312  1
  Al  Al2  1  0.77395353  0.09394315  0.89730679  1
  Al  Al3  1  0.89264857  0.20431360  0.57954507  1
  Al  Al4  1  0.44185958  0.09795400  0.39889380  1
  Al  Al5  1  0.56111651  0.19178972  0.14574660  1
  Al  Al6  1  0.10842608  0.09063797  0.82251524  1
  Al  Al7  1  0.22907140  0.20492144  0.64477109  1
  Al  Al8  1  0.78089580  0.08083673  0.38887224  1
  Al  Al9  1  0.88867482  0.21168914  0.08026474  1
  Al  Al10  1  0.45005176  0.08270639  0.89007252  1
  Al  Al11  1  0.56564486  0.19106802  0.64555719  1
  Al  Al12  1  0.10802871  0.43594241  0.32002232  1
  Al  Al13  1  0.22484992  0.53900433  0.06668294  1
  Al  Al14  1  0.77523314  0.43135126  0.81865341  1
  Al  Al15  1  0.89267010  0.54560673  0.56841444  1
  Al  Al16  1  0.44163912  0.43204417  0.32210053  1
  Al  Al17  1  0.55640547  0.54261377  0.07254723  1
  Al  Al18  1  0.10702995  0.43485088  0.82583656  1
  Al  Al19  1  0.21780575  0.54235363  0.57233233  1
  Al  Al20  1  0.77726033  0.42874686  0.32486847  1
  Al  Al21  1  0.87899809  0.54562193  0.06861744  1
  Al  Al22  1  0.44371100  0.43177026  0.82206652  1
  Al  Al23  1  0.55284462  0.53931538  0.56695599  1
  Al  Al24  1  0.11500006  0.75941669  0.31380788  1
  Al  Al25  1  0.22776317  0.87465553  0.06857616  1
  Al  Al26  1  0.78219813  0.76478290  0.82180867  1
  Al  Al27  1  0.44602371  0.76665568  0.32788913  1
  Al  Al28  1  0.10456686  0.76571879  0.82748172  1
  Al  Al29  1  0.21413852  0.87403133  0.56902079  1
  Al  Al30  1  0.76810017  0.76539171  0.32166605  1
  Al  Al31  1  0.88675653  0.87119849  0.10315858  1
  Al  Al32  1  0.44272091  0.75955524  0.81435061  1
  Al  Al33  1  0.55901105  0.87156296  0.60175840  1
  B  B34  1  0.89252971  0.86926963  0.61069656  1
  B  B35  1  0.55457194  0.86898701  0.10925540  1
  N  N36  1  0.22853039  0.20309455  0.33010667  1
  N  N37  1  0.10768344  0.09118173  0.13235001  1
  N  N38  1  0.88797669  0.20854721  0.87141909  1
  N  N39  1  0.79459538  0.05865924  0.58668754  1
  N  N40  1  0.55898226  0.19787857  0.33420234  1
  N  N41  1  0.46089421  0.06051808  0.08459618  1
  N  N42  1  0.22696763  0.20305258  0.84098866  1
  N  N43  1  0.11252176  0.09119907  0.63125493  1
  N  N44  1  0.88837149  0.20744312  0.38605516  1
  N  N45  1  0.77125981  0.10247641  0.08509365  1
  N  N46  1  0.55863455  0.19762576  0.83388742  1
  N  N47  1  0.44034569  0.10470882  0.58324341  1
  N  N48  1  0.22193602  0.54025240  0.38461138  1
  N  N49  1  0.10498584  0.43772238  0.12745389  1
  N  N50  1  0.88530299  0.54135202  0.88143376  1
  N  N51  1  0.77560546  0.43474989  0.62917690  1
  N  N52  1  0.55411972  0.53969378  0.37911641  1
  N  N53  1  0.44303705  0.43013497  0.13101436  1
  N  N54  1  0.22372555  0.53949667  0.87957280  1
  N  N55  1  0.10754794  0.43533545  0.63424762  1
  N  N56  1  0.88858928  0.54122943  0.38091309  1
  N  N57  1  0.77634160  0.43103281  0.13596452  1
  N  N58  1  0.55529780  0.53988650  0.88453924  1
  N  N59  1  0.44412259  0.42994271  0.63085420  1
  N  N60  1  0.22136272  0.87038031  0.38159127  1
  N  N61  1  0.12556888  0.75620944  0.12686274  1
  N  N62  1  0.89256314  0.86298394  0.89585689  1
  N  N63  1  0.80183191  0.77388432  0.62641963  1
  N  N64  1  0.55965248  0.86512626  0.39616833  1
  N  N65  1  0.45675435  0.77818645  0.13045072  1
  N  N66  1  0.22445169  0.87004661  0.88138546  1
  N  N67  1  0.08204761  0.77744679  0.63068286  1
  N  N68  1  0.88799081  0.87223646  0.31970019  1
  N  N69  1  0.73991981  0.77412786  0.12611640  1
  N  N70  1  0.55602987  0.87274841  0.82145274  1
  N  N71  1  0.43532909  0.75673168  0.62704073  1
