# generated using pymatgen
data_Al17BN18
_symmetry_space_group_name_H-M   'P 1'
_cell_length_a   9.32953302
_cell_length_b   9.32879524
_cell_length_c   9.99387788
_cell_angle_alpha   89.95182936
_cell_angle_beta   89.95621287
_cell_angle_gamma   60.02227375
_symmetry_Int_Tables_number   1
_chemical_formula_structural   Al17BN18
_chemical_formula_sum   'Al34 B2 N36'
_cell_volume   753.43775759
_cell_formula_units_Z   2
loop_
 _symmetry_equiv_pos_site_id
 _symmetry_equiv_pos_as_xyz
  1  'x, y, z'
loop_
 _atom_site_type_symbol
 _atom_site_label
 _atom_site_symmetry_multiplicity
 _atom_site_fract_x
 _atom_site_fract_y
 _atom_site_fract_z
 _atom_site_occupancy
  Al  Al0  1  0.10993275  0.09516940  0.30908350  1
  Al  Al1  1  0.22875005  0.19729373  0.06109394  1
  Al  Al2  1  0.78472469  0.08635959  0.80781874  1
  Al  Al3  1  0.89089077  0.20139644  0.56177749  1
  Al  Al4  1  0.44421157  0.08805228  0.33362182  1
  Al  Al5  1  0.55794964  0.19724756  0.11772479  1
  Al  Al6  1  0.11292769  0.09321409  0.81187123  1
  Al  Al7  1  0.21662694  0.20888361  0.56022585  1
  Al  Al8  1  0.78465450  0.08965850  0.32296696  1
  Al  Al9  1  0.88865820  0.20440413  0.05969742  1
  Al  Al10  1  0.44465423  0.09150298  0.80670579  1
  Al  Al11  1  0.56001605  0.20251866  0.59894243  1
  Al  Al12  1  0.11078699  0.42834504  0.30876269  1
  Al  Al13  1  0.22104905  0.54051624  0.05892233  1
  Al  Al14  1  0.77685436  0.42935389  0.81118029  1
  Al  Al15  1  0.89106044  0.54294178  0.55994593  1
  Al  Al16  1  0.44025313  0.43404692  0.31410433  1
  Al  Al17  1  0.55833013  0.54310510  0.06092310  1
  Al  Al18  1  0.11140556  0.42741689  0.81260620  1
  Al  Al19  1  0.21482238  0.54411906  0.56079134  1
  Al  Al20  1  0.77859806  0.42745134  0.31050346  1
  Al  Al21  1  0.88171367  0.54447757  0.06116130  1
  Al  Al22  1  0.44368848  0.43129283  0.81082181  1
  Al  Al23  1  0.55432483  0.54026364  0.55805939  1
  Al  Al24  1  0.10832570  0.76227046  0.31528849  1
  Al  Al25  1  0.22527619  0.87340189  0.06163937  1
  Al  Al26  1  0.78137892  0.76350132  0.80490965  1
  Al  Al27  1  0.44638408  0.76385054  0.31679248  1
  Al  Al28  1  0.10616830  0.76398801  0.80760917  1
  Al  Al29  1  0.21533971  0.87400815  0.55919779  1
  Al  Al30  1  0.77495463  0.76465938  0.32387174  1
  Al  Al31  1  0.88170088  0.87409388  0.06253981  1
  Al  Al32  1  0.44452713  0.76080380  0.80782833  1
  Al  Al33  1  0.55991679  0.87031333  0.57866691  1
  B  B34  1  0.89223007  0.86876789  0.55725128  1
  B  B35  1  0.55531651  0.87230800  0.10615267  1
  N  N36  1  0.21773924  0.20770842  0.36943790  1
  N  N37  1  0.11067762  0.09449873  0.11936414  1
  N  N38  1  0.88901978  0.20471847  0.86866763  1
  N  N39  1  0.79582122  0.06639080  0.61073950  1
  N  N40  1  0.55474930  0.20602588  0.34452955  1
  N  N41  1  0.45787610  0.06114646  0.12347350  1
  N  N42  1  0.22467462  0.20420624  0.87149934  1
  N  N43  1  0.11095831  0.09442609  0.62158365  1
  N  N44  1  0.89029390  0.20702824  0.37228465  1
  N  N45  1  0.78611212  0.08937622  0.12802780  1
  N  N46  1  0.55867171  0.20463040  0.83367760  1
  N  N47  1  0.43712366  0.09876905  0.60982642  1
  N  N48  1  0.21953441  0.53991991  0.37097131  1
  N  N49  1  0.11152842  0.42675715  0.11804978  1
  N  N50  1  0.88814000  0.54142981  0.87051915  1
  N  N51  1  0.77700013  0.42930458  0.61948364  1
  N  N52  1  0.55614670  0.53997088  0.36764876  1
  N  N53  1  0.44245178  0.43226995  0.12015153  1
  N  N54  1  0.22101417  0.54156914  0.86828390  1
  N  N55  1  0.11006530  0.42811338  0.62195146  1
  N  N56  1  0.88958757  0.53876620  0.36877190  1
  N  N57  1  0.77880199  0.42635297  0.12016197  1
  N  N58  1  0.55513885  0.54043858  0.87199270  1
  N  N59  1  0.43983558  0.43484508  0.61638613  1
  N  N60  1  0.22159572  0.87316282  0.36787314  1
  N  N61  1  0.10845388  0.76184570  0.12349076  1
  N  N62  1  0.88989293  0.87048235  0.87553344  1
  N  N63  1  0.79788389  0.77094351  0.61104779  1
  N  N64  1  0.55724801  0.86784709  0.38468136  1
  N  N65  1  0.45967655  0.77556977  0.12038943  1
  N  N66  1  0.22239399  0.87002787  0.87082966  1
  N  N67  1  0.08620566  0.77411079  0.61309121  1
  N  N68  1  0.89092712  0.87046424  0.39077805  1
  N  N69  1  0.74816761  0.77683327  0.12522349  1
  N  N70  1  0.55909212  0.86897278  0.83414681  1
  N  N71  1  0.43774291  0.75878767  0.61669557  1
