# generated using pymatgen
data_Al17BN18
_symmetry_space_group_name_H-M   'P 1'
_cell_length_a   9.32679268
_cell_length_b   9.30291971
_cell_length_c   10.17025574
_cell_angle_alpha   89.49354523
_cell_angle_beta   89.99999911
_cell_angle_gamma   59.91508521
_symmetry_Int_Tables_number   1
_chemical_formula_structural   Al17BN18
_chemical_formula_sum   'Al34 B2 N36'
_cell_volume   763.51785245
_cell_formula_units_Z   2
loop_
 _symmetry_equiv_pos_site_id
 _symmetry_equiv_pos_as_xyz
  1  'x, y, z'
loop_
 _atom_site_type_symbol
 _atom_site_label
 _atom_site_symmetry_multiplicity
 _atom_site_fract_x
 _atom_site_fract_y
 _atom_site_fract_z
 _atom_site_occupancy
  Al  Al0  1  0.10776865  0.09561886  0.31521472  1
  Al  Al1  1  0.22062394  0.20429210  0.06769582  1
  Al  Al2  1  0.77590102  0.09350792  0.89208876  1
  Al  Al3  1  0.89174908  0.20429203  0.56769633  1
  Al  Al4  1  0.44725900  0.09350694  0.39208890  1
  Al  Al5  1  0.56067327  0.19166483  0.13856990  1
  Al  Al6  1  0.11327870  0.09561912  0.81521471  1
  Al  Al7  1  0.21249417  0.21276298  0.56614697  1
  Al  Al8  1  0.78022499  0.08038291  0.38049007  1
  Al  Al9  1  0.89140803  0.21276281  0.06614763  1
  Al  Al10  1  0.45606094  0.08038286  0.88049086  1
  Al  Al11  1  0.56432779  0.19166519  0.63856973  1
  Al  Al12  1  0.10916172  0.43034586  0.31370363  1
  Al  Al13  1  0.22503958  0.53877384  0.06048386  1
  Al  Al14  1  0.77715873  0.43034683  0.81370390  1
  Al  Al15  1  0.89058714  0.54605054  0.56228531  1
  Al  Al16  1  0.44027663  0.43251566  0.31512710  1
  Al  Al17  1  0.55711022  0.54253547  0.06607522  1
  Al  Al18  1  0.11226088  0.42737675  0.81570820  1
  Al  Al19  1  0.21702087  0.54253491  0.56607495  1
  Al  Al20  1  0.77702869  0.42737777  0.31570834  1
  Al  Al21  1  0.88002794  0.54605062  0.06228554  1
  Al  Al22  1  0.44387419  0.43251705  0.81512663  1
  Al  Al23  1  0.55285297  0.53877501  0.56048410  1
  Al  Al24  1  0.11497990  0.75919846  0.30816039  1
  Al  Al25  1  0.22833431  0.87542454  0.06328242  1
  Al  Al26  1  0.78492035  0.76300006  0.81517504  1
  Al  Al27  1  0.44510104  0.76619710  0.32152493  1
  Al  Al28  1  0.10536857  0.76619674  0.82152467  1
  Al  Al29  1  0.21290697  0.87542443  0.56328287  1
  Al  Al30  1  0.76874770  0.76300099  0.31517531  1
  Al  Al31  1  0.88641899  0.87244689  0.09905510  1
  Al  Al32  1  0.44248933  0.75920014  0.80816079  1
  Al  Al33  1  0.55780041  0.87244831  0.59905565  1
  B  B34  1  0.89215493  0.86959985  0.60409552  1
  B  B35  1  0.55491119  0.86960015  0.10409596  1
  N  N36  1  0.21406816  0.20945077  0.37424827  1
  N  N37  1  0.11080148  0.09508625  0.12794590  1
  N  N38  1  0.89314760  0.20945180  0.87424881  1
  N  N39  1  0.79435314  0.05871006  0.57923539  1
  N  N40  1  0.55739588  0.19813347  0.32658939  1
  N  N41  1  0.46360267  0.05871030  0.07923571  1
  N  N42  1  0.22211331  0.20685533  0.87879567  1
  N  N43  1  0.11077757  0.09508642  0.62794590  1
  N  N44  1  0.88769826  0.20685638  0.37879604  1
  N  N45  1  0.77247817  0.10342655  0.07971758  1
  N  N46  1  0.56113769  0.19813457  0.82658919  1
  N  N47  1  0.44076059  0.10342749  0.57971755  1
  N  N48  1  0.22070187  0.53969447  0.37813293  1
  N  N49  1  0.10872417  0.43206585  0.12428672  1
  N  N50  1  0.88892477  0.54001356  0.87456519  1
  N  N51  1  0.77587600  0.43206597  0.62428705  1
  N  N52  1  0.55423359  0.53874095  0.37258366  1
  N  N53  1  0.44321992  0.43042880  0.12430907  1
  N  N54  1  0.22369220  0.53874068  0.87258342  1
  N  N55  1  0.10866180  0.43028587  0.62779090  1
  N  N56  1  0.88772877  0.54001381  0.37456501  1
  N  N57  1  0.77771818  0.43028588  0.12779115  1
  N  N58  1  0.55627002  0.53969578  0.87813317  1
  N  N59  1  0.44301771  0.43042946  0.62430881  1
  N  N60  1  0.21966390  0.87272153  0.37519178  1
  N  N61  1  0.12572124  0.75649940  0.12085471  1
  N  N62  1  0.89317555  0.86337549  0.88922755  1
  N  N63  1  0.80214838  0.77320060  0.61995465  1
  N  N64  1  0.56011663  0.86337497  0.38922753  1
  N  N65  1  0.45732409  0.77744092  0.12449793  1
  N  N66  1  0.22428133  0.87272161  0.87519135  1
  N  N67  1  0.08190126  0.77744045  0.62449778  1
  N  N68  1  0.88770390  0.87133312  0.31290729  1
  N  N69  1  0.74131729  0.77320070  0.11995499  1
  N  N70  1  0.55763192  0.87133343  0.81290746  1
  N  N71  1  0.43444573  0.75650067  0.62085510  1
