# generated using pymatgen
data_Al17BN18
_symmetry_space_group_name_H-M   'P 1'
_cell_length_a   9.29834515
_cell_length_b   9.30057393
_cell_length_c   9.94037899
_cell_angle_alpha   90.03193390
_cell_angle_beta   89.99999476
_cell_angle_gamma   60.00793336
_symmetry_Int_Tables_number   1
_chemical_formula_structural   Al17BN18
_chemical_formula_sum   'Al34 B2 N36'
_cell_volume   744.53241295
_cell_formula_units_Z   2
loop_
 _symmetry_equiv_pos_site_id
 _symmetry_equiv_pos_as_xyz
  1  'x, y, z'
loop_
 _atom_site_type_symbol
 _atom_site_label
 _atom_site_symmetry_multiplicity
 _atom_site_fract_x
 _atom_site_fract_y
 _atom_site_fract_z
 _atom_site_occupancy
  Al  Al0  1  0.11110889  0.09412924  0.41450950  1
  Al  Al1  1  0.22551310  0.20041711  0.16441549  1
  Al  Al2  1  0.77892626  0.09174105  0.90743734  1
  Al  Al3  1  0.89073632  0.20041767  0.66441558  1
  Al  Al4  1  0.44599984  0.09174139  0.40743729  1
  Al  Al5  1  0.55888259  0.19943847  0.16414198  1
  Al  Al6  1  0.11142961  0.09412908  0.91450958  1
  Al  Al7  1  0.22435045  0.20432417  0.66434885  1
  Al  Al8  1  0.78048260  0.08882251  0.41878767  1
  Al  Al9  1  0.88799246  0.20432398  0.16434881  1
  Al  Al10  1  0.44736229  0.08882241  0.91878773  1
  Al  Al11  1  0.55834496  0.19943864  0.66414199  1
  Al  Al12  1  0.11075033  0.42779789  0.41420179  1
  Al  Al13  1  0.22093317  0.54061999  0.16481970  1
  Al  Al14  1  0.77811926  0.42779775  0.91420181  1
  Al  Al15  1  0.88986489  0.54414759  0.66452817  1
  Al  Al16  1  0.44490129  0.42767942  0.41423948  1
  Al  Al17  1  0.55713615  0.54232494  0.16432548  1
  Al  Al18  1  0.11137317  0.42773820  0.91501259  1
  Al  Al19  1  0.21720541  0.54232541  0.66432541  1
  Al  Al20  1  0.77755566  0.42773828  0.41501266  1
  Al  Al21  1  0.88265443  0.54414695  0.16452830  1
  Al  Al22  1  0.44408554  0.42767917  0.91423955  1
  Al  Al23  1  0.55511370  0.54061951  0.66481984  1
  Al  Al24  1  0.10544283  0.76406439  0.41829903  1
  Al  Al25  1  0.22437976  0.87294100  0.16405391  1
  Al  Al26  1  0.77388004  0.76504222  0.91209192  1
  Al  Al27  1  0.44589219  0.76226675  0.40753658  1
  Al  Al28  1  0.10850712  0.76226682  0.90753640  1
  Al  Al29  1  0.21934547  0.87294181  0.66405391  1
  Al  Al30  1  0.77774364  0.76504225  0.41209189  1
  Al  Al31  1  0.88335002  0.87362153  0.16267029  1
  Al  Al32  1  0.44715912  0.76406376  0.91829889  1
  Al  Al33  1  0.55969450  0.87362187  0.66267027  1
  B  B34  1  0.88804911  0.87231900  0.66698811  1
  B  B35  1  0.55629860  0.87231855  0.16698810  1
  N  N36  1  0.22163354  0.20560113  0.35445806  1
  N  N37  1  0.11026094  0.09433449  0.10526713  1
  N  N38  1  0.88943286  0.20560088  0.85445824  1
  N  N39  1  0.79024176  0.06920853  0.61294120  1
  N  N40  1  0.55845656  0.20445813  0.35590800  1
  N  N41  1  0.45721661  0.06920804  0.11294110  1
  N  N42  1  0.22474001  0.20430767  0.85716351  1
  N  N43  1  0.11207122  0.09433501  0.60526708  1
  N  N44  1  0.88761974  0.20430766  0.35716356  1
  N  N45  1  0.77882519  0.09272635  0.09953512  1
  N  N46  1  0.55375255  0.20445793  0.85590803  1
  N  N47  1  0.44511501  0.09272642  0.59953493  1
  N  N48  1  0.22107921  0.54118494  0.35716297  1
  N  N49  1  0.11042172  0.42770787  0.10661136  1
  N  N50  1  0.88845674  0.54078126  0.85642812  1
  N  N51  1  0.77853710  0.42770814  0.60661140  1
  N  N52  1  0.55604954  0.53833846  0.35456954  1
  N  N53  1  0.44465717  0.42722873  0.10621453  1
  N  N54  1  0.22227861  0.53833862  0.85456940  1
  N  N55  1  0.11147675  0.42669597  0.60524330  1
  N  N56  1  0.88742910  0.54078119  0.35642819  1
  N  N57  1  0.77849421  0.42669563  0.10524328  1
  N  N58  1  0.55440291  0.54118421  0.85716313  1
  N  N59  1  0.44478044  0.42722879  0.60621448  1
  N  N60  1  0.22066390  0.87119211  0.35583251  1
  N  N61  1  0.10840209  0.76244070  0.10063276  1
  N  N62  1  0.88775231  0.87131409  0.83440749  1
  N  N63  1  0.78915950  0.77423766  0.60824905  1
  N  N64  1  0.55759985  0.87131412  0.33440753  1
  N  N65  1  0.45658096  0.77392716  0.11266077  1
  N  N66  1  0.22481043  0.87119201  0.85583250  1
  N  N67  1  0.08615808  0.77392776  0.61266086  1
  N  N68  1  0.88897379  0.87261881  0.35085856  1
  N  N69  1  0.75326936  0.77423721  0.10824908  1
  N  N70  1  0.55507353  0.87261872  0.85085856  1
  N  N71  1  0.44582357  0.76244066  0.60063298  1
