# generated using pymatgen
data_Al17BN18
_symmetry_space_group_name_H-M   'P 1'
_cell_length_a   9.34327411
_cell_length_b   9.34253481
_cell_length_c   10.20114597
_cell_angle_alpha   89.70864571
_cell_angle_beta   89.96901061
_cell_angle_gamma   59.91709410
_symmetry_Int_Tables_number   1
_chemical_formula_structural   Al17BN18
_chemical_formula_sum   'Al34 B2 N36'
_cell_volume   770.50099019
_cell_formula_units_Z   2
loop_
 _symmetry_equiv_pos_site_id
 _symmetry_equiv_pos_as_xyz
  1  'x, y, z'
loop_
 _atom_site_type_symbol
 _atom_site_label
 _atom_site_symmetry_multiplicity
 _atom_site_fract_x
 _atom_site_fract_y
 _atom_site_fract_z
 _atom_site_occupancy
  Al  Al0  1  0.11165834  0.09517798  0.39064587  1
  Al  Al1  1  0.23051966  0.19297935  0.13657358  1
  Al  Al2  1  0.77725993  0.09768498  0.89551893  1
  Al  Al3  1  0.89317431  0.19292736  0.63670817  1
  Al  Al4  1  0.44226686  0.09681899  0.39566904  1
  Al  Al5  1  0.55972438  0.19674431  0.14186062  1
  Al  Al6  1  0.10843680  0.09610581  0.89068460  1
  Al  Al7  1  0.22308234  0.19886464  0.64262845  1
  Al  Al8  1  0.78096644  0.08490227  0.38244370  1
  Al  Al9  1  0.89335761  0.20044736  0.14347226  1
  Al  Al10  1  0.45052032  0.08542167  0.88301212  1
  Al  Al11  1  0.55995132  0.19638704  0.64260234  1
  Al  Al12  1  0.10537120  0.43210684  0.31913798  1
  Al  Al13  1  0.22526887  0.53839318  0.10936655  1
  Al  Al14  1  0.77501063  0.43461708  0.81566089  1
  Al  Al15  1  0.89085953  0.54529878  0.56343173  1
  Al  Al16  1  0.44661533  0.41899537  0.38826839  1
  Al  Al17  1  0.56443292  0.53915093  0.06972434  1
  Al  Al18  1  0.10683360  0.43433211  0.81939022  1
  Al  Al19  1  0.21612203  0.54162373  0.59732480  1
  Al  Al20  1  0.77334298  0.43537026  0.32001744  1
  Al  Al21  1  0.88036955  0.54531648  0.06387826  1
  Al  Al22  1  0.44394254  0.42202573  0.88559349  1
  Al  Al23  1  0.56082982  0.53391377  0.57198774  1
  Al  Al24  1  0.10291340  0.76779753  0.37762767  1
  Al  Al25  1  0.23233878  0.87400546  0.14131250  1
  Al  Al26  1  0.78613450  0.76563689  0.81500718  1
  Al  Al27  1  0.43904484  0.76753152  0.39553869  1
  Al  Al28  1  0.11268574  0.76256664  0.89481189  1
  Al  Al29  1  0.21191597  0.87334575  0.64229838  1
  Al  Al30  1  0.76581720  0.76585245  0.31363381  1
  Al  Al31  1  0.88433856  0.87583494  0.10662710  1
  Al  Al32  1  0.44461009  0.76955596  0.87460587  1
  Al  Al33  1  0.55665520  0.87497259  0.60948995  1
  B  B34  1  0.89020063  0.87061732  0.59599457  1
  B  B35  1  0.55562020  0.87066361  0.09613237  1
  N  N36  1  0.22647995  0.19847973  0.32573657  1
  N  N37  1  0.11073138  0.09477612  0.07772972  1
  N  N38  1  0.89025378  0.19998656  0.82542383  1
  N  N39  1  0.79146775  0.06243054  0.57826694  1
  N  N40  1  0.55640238  0.20068194  0.32819090  1
  N  N41  1  0.46257516  0.06290057  0.07827980  1
  N  N42  1  0.22516126  0.20021527  0.83340403  1
  N  N43  1  0.11130362  0.09333380  0.57750091  1
  N  N44  1  0.89074387  0.20060807  0.33361704  1
  N  N45  1  0.77388454  0.10705170  0.08130149  1
  N  N46  1  0.55892595  0.20131585  0.82892765  1
  N  N47  1  0.43686130  0.10537885  0.58140578  1
  N  N48  1  0.22055241  0.53886030  0.36227353  1
  N  N49  1  0.10391054  0.43329315  0.12677695  1
  N  N50  1  0.88612635  0.54242628  0.87781612  1
  N  N51  1  0.77852238  0.43373741  0.62708500  1
  N  N52  1  0.55824542  0.53703345  0.37752973  1
  N  N53  1  0.44844510  0.41852992  0.08127150  1
  N  N54  1  0.22248880  0.54249747  0.84601998  1
  N  N55  1  0.10422985  0.42948197  0.62800182  1
  N  N56  1  0.88633989  0.54320295  0.37771185  1
  N  N57  1  0.77853704  0.43291747  0.13162901  1
  N  N58  1  0.55974864  0.53789363  0.87883256  1
  N  N59  1  0.44878164  0.41691483  0.58186364  1
  N  N60  1  0.22347156  0.87343506  0.32805410  1
  N  N61  1  0.12416898  0.76176578  0.08449904  1
  N  N62  1  0.88558957  0.87013006  0.88974152  1
  N  N63  1  0.80234549  0.77461772  0.62139971  1
  N  N64  1  0.56132280  0.87011336  0.38726598  1
  N  N65  1  0.45769728  0.78182427  0.07682869  1
  N  N66  1  0.21843876  0.87465393  0.82881745  1
  N  N67  1  0.07817564  0.78090865  0.57627899  1
  N  N68  1  0.88978454  0.87256869  0.31024898  1
  N  N69  1  0.74024535  0.77494307  0.12059567  1
  N  N70  1  0.55513648  0.87285692  0.81079470  1
  N  N71  1  0.43184304  0.76198685  0.58676044  1
