# generated using pymatgen
data_Al17BN18
_symmetry_space_group_name_H-M   'P 1'
_cell_length_a   9.31015559
_cell_length_b   9.30911660
_cell_length_c   9.98168275
_cell_angle_alpha   89.95924761
_cell_angle_beta   89.97106680
_cell_angle_gamma   60.01480354
_symmetry_Int_Tables_number   1
_chemical_formula_structural   Al17BN18
_chemical_formula_sum   'Al34 B2 N36'
_cell_volume   749.31504255
_cell_formula_units_Z   2
loop_
 _symmetry_equiv_pos_site_id
 _symmetry_equiv_pos_as_xyz
  1  'x, y, z'
loop_
 _atom_site_type_symbol
 _atom_site_label
 _atom_site_symmetry_multiplicity
 _atom_site_fract_x
 _atom_site_fract_y
 _atom_site_fract_z
 _atom_site_occupancy
  Al  Al0  1  0.10999436  0.09506864  0.31003069  1
  Al  Al1  1  0.22752872  0.19827218  0.06154440  1
  Al  Al2  1  0.78047947  0.08828792  0.80788920  1
  Al  Al3  1  0.89039617  0.20123793  0.56240276  1
  Al  Al4  1  0.44595661  0.08941839  0.32097005  1
  Al  Al5  1  0.55939452  0.19782785  0.06979126  1
  Al  Al6  1  0.11281866  0.09335632  0.81184551  1
  Al  Al7  1  0.21997859  0.20724887  0.56049925  1
  Al  Al8  1  0.78058366  0.09169798  0.32021796  1
  Al  Al9  1  0.88842321  0.20429033  0.06024395  1
  Al  Al10  1  0.44647185  0.09210964  0.80950485  1
  Al  Al11  1  0.55887333  0.20166569  0.56379836  1
  Al  Al12  1  0.11103604  0.42826980  0.30954934  1
  Al  Al13  1  0.22122634  0.54044949  0.05958877  1
  Al  Al14  1  0.77704815  0.42926492  0.81136946  1
  Al  Al15  1  0.89096390  0.54286937  0.56043149  1
  Al  Al16  1  0.44291694  0.42913348  0.31237731  1
  Al  Al17  1  0.55803871  0.54316528  0.06141701  1
  Al  Al18  1  0.11150219  0.42718349  0.81253456  1
  Al  Al19  1  0.21620631  0.54299919  0.56180046  1
  Al  Al20  1  0.77841159  0.42737983  0.31097109  1
  Al  Al21  1  0.88175413  0.54461103  0.06116538  1
  Al  Al22  1  0.44535321  0.42756297  0.81198915  1
  Al  Al23  1  0.55456041  0.53941068  0.55948567  1
  Al  Al24  1  0.10844884  0.76210197  0.31626834  1
  Al  Al25  1  0.22537601  0.87337795  0.06163599  1
  Al  Al26  1  0.78007660  0.76405694  0.80635163  1
  Al  Al27  1  0.44633216  0.76367136  0.31648594  1
  Al  Al28  1  0.10593997  0.76414879  0.80793775  1
  Al  Al29  1  0.21576141  0.87394686  0.55973019  1
  Al  Al30  1  0.77473346  0.76495292  0.32323826  1
  Al  Al31  1  0.88202381  0.87413984  0.06310907  1
  Al  Al32  1  0.44529909  0.76146788  0.80951405  1
  Al  Al33  1  0.55898730  0.87275904  0.57458674  1
  B  B34  1  0.89071894  0.86954508  0.55809401  1
  B  B35  1  0.55616585  0.87201381  0.10119307  1
  N  N36  1  0.22061471  0.20639415  0.36895493  1
  N  N37  1  0.11045429  0.09439896  0.11997109  1
  N  N38  1  0.88828279  0.20448757  0.86857663  1
  N  N39  1  0.79090348  0.06929073  0.61326686  1
  N  N40  1  0.55497789  0.20591693  0.36908081  1
  N  N41  1  0.45906432  0.06396560  0.12327991  1
  N  N42  1  0.22439358  0.20436760  0.87212536  1
  N  N43  1  0.11143009  0.09453564  0.62132364  1
  N  N44  1  0.88965288  0.20645553  0.37234010  1
  N  N45  1  0.78109404  0.09181819  0.12804293  1
  N  N46  1  0.55777844  0.20397737  0.86954698  1
  N  N47  1  0.44018940  0.09965379  0.61761264  1
  N  N48  1  0.22114873  0.53902619  0.37149962  1
  N  N49  1  0.11098993  0.42732689  0.11862579  1
  N  N50  1  0.88826225  0.54134866  0.87043295  1
  N  N51  1  0.77743484  0.42918273  0.61978866  1
  N  N52  1  0.55554971  0.53943466  0.36833784  1
  N  N53  1  0.44405902  0.42878753  0.12077849  1
  N  N54  1  0.22145875  0.54118279  0.86846420  1
  N  N55  1  0.11051718  0.42753587  0.62175726  1
  N  N56  1  0.88934920  0.53906062  0.36921627  1
  N  N57  1  0.77879712  0.42650405  0.12043961  1
  N  N58  1  0.55507632  0.53984310  0.87205138  1
  N  N59  1  0.44356466  0.42869233  0.61979006  1
  N  N60  1  0.22187819  0.87286238  0.36858570  1
  N  N61  1  0.10848588  0.76209198  0.12406253  1
  N  N62  1  0.88934309  0.87128736  0.87564642  1
  N  N63  1  0.79576235  0.77175743  0.61190360  1
  N  N64  1  0.55562344  0.87095225  0.38258784  1
  N  N65  1  0.45936617  0.77585270  0.12030879  1
  N  N66  1  0.22234080  0.87008263  0.87085112  1
  N  N67  1  0.08592759  0.77419579  0.61340933  1
  N  N68  1  0.88992865  0.87163645  0.39116188  1
  N  N69  1  0.74889036  0.77644537  0.12486486  1
  N  N70  1  0.55887696  0.86982247  0.84622393  1
  N  N71  1  0.43939836  0.75957042  0.61785145  1
