# generated using pymatgen
data_Al17BN18
_symmetry_space_group_name_H-M   'P 1'
_cell_length_a   9.33012637
_cell_length_b   9.29365107
_cell_length_c   10.29691751
_cell_angle_alpha   89.74906617
_cell_angle_beta   90.24312203
_cell_angle_gamma   59.74550633
_symmetry_Int_Tables_number   1
_chemical_formula_structural   Al17BN18
_chemical_formula_sum   'Al34 B2 N36'
_cell_volume   771.21600631
_cell_formula_units_Z   2
loop_
 _symmetry_equiv_pos_site_id
 _symmetry_equiv_pos_as_xyz
  1  'x, y, z'
loop_
 _atom_site_type_symbol
 _atom_site_label
 _atom_site_symmetry_multiplicity
 _atom_site_fract_x
 _atom_site_fract_y
 _atom_site_fract_z
 _atom_site_occupancy
  Al  Al0  1  0.11371860  0.09379131  0.39062979  1
  Al  Al1  1  0.22960401  0.19565813  0.13908361  1
  Al  Al2  1  0.77521381  0.09991733  0.89710166  1
  Al  Al3  1  0.89440205  0.19265559  0.63781433  1
  Al  Al4  1  0.44297975  0.09811849  0.39676265  1
  Al  Al5  1  0.56250550  0.19088773  0.14498176  1
  Al  Al6  1  0.10884876  0.09585555  0.89191829  1
  Al  Al7  1  0.22252060  0.20255046  0.64266173  1
  Al  Al8  1  0.78348009  0.08177443  0.38751753  1
  Al  Al9  1  0.89392335  0.19875388  0.14617157  1
  Al  Al10  1  0.44898502  0.08678464  0.88436827  1
  Al  Al11  1  0.56252796  0.19236918  0.64234367  1
  Al  Al12  1  0.10702960  0.43616645  0.31812285  1
  Al  Al13  1  0.22546211  0.53692477  0.06569530  1
  Al  Al14  1  0.77422606  0.43357149  0.81647915  1
  Al  Al15  1  0.89008573  0.54656164  0.56583466  1
  Al  Al16  1  0.44195459  0.43260265  0.32066689  1
  Al  Al17  1  0.56300189  0.53162265  0.07013912  1
  Al  Al18  1  0.10634348  0.43433320  0.82048263  1
  Al  Al19  1  0.21389235  0.54599471  0.56986577  1
  Al  Al20  1  0.77487366  0.43382471  0.32279285  1
  Al  Al21  1  0.88088610  0.54297989  0.06655480  1
  Al  Al22  1  0.44148226  0.43256783  0.81870662  1
  Al  Al23  1  0.55719639  0.53011554  0.56967980  1
  Al  Al24  1  0.11226238  0.75799231  0.30833403  1
  Al  Al25  1  0.23669414  0.87544039  0.13644615  1
  Al  Al26  1  0.78196405  0.76480008  0.81928117  1
  Al  Al27  1  0.43970557  0.76710146  0.39721389  1
  Al  Al28  1  0.10088141  0.76352199  0.83437921  1
  Al  Al29  1  0.21724382  0.87626819  0.64421075  1
  Al  Al30  1  0.76558468  0.76641855  0.31431640  1
  Al  Al31  1  0.88506305  0.87293779  0.09728502  1
  Al  Al32  1  0.44620800  0.76717223  0.88111270  1
  Al  Al33  1  0.55598805  0.87462618  0.61116462  1
  B  B34  1  0.89124398  0.86972400  0.60933633  1
  B  B35  1  0.55669929  0.86949420  0.09601283  1
  N  N36  1  0.22634096  0.20082141  0.32625206  1
  N  N37  1  0.11014166  0.09734105  0.07671030  1
  N  N38  1  0.89134226  0.19724405  0.82487917  1
  N  N39  1  0.79344095  0.06194847  0.58134571  1
  N  N40  1  0.55936911  0.19778199  0.33168355  1
  N  N41  1  0.46137015  0.06364362  0.07832411  1
  N  N42  1  0.22433213  0.20012306  0.83187092  1
  N  N43  1  0.11189031  0.09509131  0.57660491  1
  N  N44  1  0.89234983  0.19785060  0.33437915  1
  N  N45  1  0.77299198  0.10800336  0.08006988  1
  N  N46  1  0.56001082  0.19717035  0.82920789  1
  N  N47  1  0.43606337  0.10682030  0.58075927  1
  N  N48  1  0.22130731  0.54168529  0.38377387  1
  N  N49  1  0.10594441  0.43685598  0.12840973  1
  N  N50  1  0.88583237  0.54012200  0.88090643  1
  N  N51  1  0.77644260  0.43495947  0.62893469  1
  N  N52  1  0.55837937  0.53176528  0.38316969  1
  N  N53  1  0.44293923  0.43064447  0.13200710  1
  N  N54  1  0.22362942  0.53618889  0.88082520  1
  N  N55  1  0.10565714  0.43619657  0.63241280  1
  N  N56  1  0.88805234  0.54213273  0.38048444  1
  N  N57  1  0.77740482  0.43299093  0.13523318  1
  N  N58  1  0.55862629  0.53164921  0.88377401  1
  N  N59  1  0.43943011  0.43234369  0.63172471  1
  N  N60  1  0.22869306  0.87469100  0.32391644  1
  N  N61  1  0.12269063  0.75670211  0.11927819  1
  N  N62  1  0.88750548  0.86618601  0.89631487  1
  N  N63  1  0.79882803  0.77613804  0.62734758  1
  N  N64  1  0.56148855  0.86968298  0.38690934  1
  N  N65  1  0.46064665  0.77891818  0.07522414  1
  N  N66  1  0.22278939  0.87321413  0.83149774  1
  N  N67  1  0.07749287  0.77769912  0.63234542  1
  N  N68  1  0.88656413  0.87262730  0.31596123  1
  N  N69  1  0.74095640  0.77445186  0.12052861  1
  N  N70  1  0.55232615  0.87236231  0.81286351  1
  N  N71  1  0.43317846  0.76181214  0.58516484  1
