# generated using pymatgen
data_Al17BN18
_symmetry_space_group_name_H-M   'P 1'
_cell_length_a   9.29630213
_cell_length_b   9.29007888
_cell_length_c   10.04344005
_cell_angle_alpha   89.92398068
_cell_angle_beta   90.00001323
_cell_angle_gamma   59.97781836
_symmetry_Int_Tables_number   1
_chemical_formula_structural   Al17BN18
_chemical_formula_sum   'Al34 B2 N36'
_cell_volume   751.00897898
_cell_formula_units_Z   2
loop_
 _symmetry_equiv_pos_site_id
 _symmetry_equiv_pos_as_xyz
  1  'x, y, z'
loop_
 _atom_site_type_symbol
 _atom_site_label
 _atom_site_symmetry_multiplicity
 _atom_site_fract_x
 _atom_site_fract_y
 _atom_site_fract_z
 _atom_site_occupancy
  Al  Al0  1  0.11240344  0.09441545  0.39670447  1
  Al  Al1  1  0.22666188  0.19950279  0.14551477  1
  Al  Al2  1  0.77948325  0.09222107  0.89663593  1
  Al  Al3  1  0.89050131  0.19950253  0.64551491  1
  Al  Al4  1  0.44496234  0.09222140  0.39663462  1
  Al  Al5  1  0.55807179  0.19883825  0.14712728  1
  Al  Al6  1  0.10984857  0.09441436  0.89670424  1
  Al  Al7  1  0.22162883  0.20639340  0.64829536  1
  Al  Al8  1  0.77970824  0.08899856  0.39254013  1
  Al  Al9  1  0.88864354  0.20639371  0.14829533  1
  Al  Al10  1  0.44796117  0.08899814  0.89254171  1
  Al  Al11  1  0.55975626  0.19883820  0.64712688  1
  Al  Al12  1  0.11109878  0.42712634  0.39571618  1
  Al  Al13  1  0.22340123  0.53866254  0.14858636  1
  Al  Al14  1  0.77844246  0.42712591  0.89571609  1
  Al  Al15  1  0.89093221  0.54384637  0.64655875  1
  Al  Al16  1  0.44551428  0.42713219  0.39650626  1
  Al  Al17  1  0.55760202  0.54283438  0.14551655  1
  Al  Al18  1  0.11068742  0.42949742  0.89689266  1
  Al  Al19  1  0.21623043  0.54283397  0.64551667  1
  Al  Al20  1  0.77648158  0.42949837  0.39689276  1
  Al  Al21  1  0.88188833  0.54384571  0.14655892  1
  Al  Al22  1  0.44402037  0.42713168  0.89650593  1
  Al  Al23  1  0.55460379  0.53866309  0.64858642  1
  Al  Al24  1  0.10662912  0.76379057  0.39175748  1
  Al  Al25  1  0.22764308  0.87412874  0.14716279  1
  Al  Al26  1  0.77451114  0.76461716  0.89179786  1
  Al  Al27  1  0.44543088  0.76144430  0.39726372  1
  Al  Al28  1  0.10979237  0.76144294  0.89726488  1
  Al  Al29  1  0.21489512  0.87412821  0.64716242  1
  Al  Al30  1  0.77753790  0.76461747  0.39179498  1
  Al  Al31  1  0.88383241  0.87407044  0.13654437  1
  Al  Al32  1  0.44624664  0.76379033  0.89175880  1
  Al  Al33  1  0.55876348  0.87407160  0.63654682  1
  B  B34  1  0.88955826  0.87091769  0.61497084  1
  B  B35  1  0.55619038  0.87091753  0.11497754  1
  N  N36  1  0.22294085  0.20546670  0.33456503  1
  N  N37  1  0.11018682  0.09503993  0.08639417  1
  N  N38  1  0.88825935  0.20546622  0.83456501  1
  N  N39  1  0.79209976  0.06510938  0.58764263  1
  N  N40  1  0.55567028  0.20469848  0.33689443  1
  N  N41  1  0.45945696  0.06510995  0.08764372  1
  N  N42  1  0.22256996  0.20566416  0.83901311  1
  N  N43  1  0.11143958  0.09503974  0.58639422  1
  N  N44  1  0.88843256  0.20566526  0.33901312  1
  N  N45  1  0.77676197  0.09863938  0.08688780  1
  N  N46  1  0.55629842  0.20469783  0.83689394  1
  N  N47  1  0.44126520  0.09863871  0.58688664  1
  N  N48  1  0.22248353  0.53910963  0.33875609  1
  N  N49  1  0.11040185  0.42880322  0.08746072  1
  N  N50  1  0.88826620  0.53996624  0.83639509  1
  N  N51  1  0.77746193  0.42880322  0.58746075  1
  N  N52  1  0.55486008  0.53938894  0.33483030  1
  N  N53  1  0.44524780  0.42633447  0.08720461  1
  N  N54  1  0.22241787  0.53938820  0.83483015  1
  N  N55  1  0.11074785  0.42733937  0.58565323  1
  N  N56  1  0.88843452  0.53996618  0.33639525  1
  N  N57  1  0.77857931  0.42733949  0.08565313  1
  N  N58  1  0.55507388  0.53910966  0.83875612  1
  N  N59  1  0.44508470  0.42633502  0.58720488  1
  N  N60  1  0.22264358  0.87188043  0.33693434  1
  N  N61  1  0.11621478  0.75987108  0.08829980  1
  N  N62  1  0.88938078  0.87124224  0.85036003  1
  N  N63  1  0.79505493  0.77432266  0.58805863  1
  N  N64  1  0.55604200  0.87124342  0.35035151  1
  N  N65  1  0.45843909  0.77581146  0.08719158  1
  N  N66  1  0.22214309  0.87187930  0.83693382  1
  N  N67  1  0.08241541  0.77581134  0.58719064  1
  N  N68  1  0.88899396  0.87133584  0.32607051  1
  N  N69  1  0.74728870  0.77432149  0.08806038  1
  N  N70  1  0.55633694  0.87133550  0.82607166  1
  N  N71  1  0.44058203  0.75987217  0.58829881  1
