# generated using pymatgen
data_Al17BN18
_symmetry_space_group_name_H-M   'P 1'
_cell_length_a   9.35698632
_cell_length_b   9.32512948
_cell_length_c   10.17047803
_cell_angle_alpha   89.47028776
_cell_angle_beta   89.99898145
_cell_angle_gamma   59.85887587
_symmetry_Int_Tables_number   1
_chemical_formula_structural   Al17BN18
_chemical_formula_sum   'Al34 B2 N36'
_cell_volume   767.39460382
_cell_formula_units_Z   2
loop_
 _symmetry_equiv_pos_site_id
 _symmetry_equiv_pos_as_xyz
  1  'x, y, z'
loop_
 _atom_site_type_symbol
 _atom_site_label
 _atom_site_symmetry_multiplicity
 _atom_site_fract_x
 _atom_site_fract_y
 _atom_site_fract_z
 _atom_site_occupancy
  Al  Al0  1  0.11345051  0.08954594  0.32743825  1
  Al  Al1  1  0.23103523  0.19822156  0.13619481  1
  Al  Al2  1  0.77619507  0.09702911  0.89727034  1
  Al  Al3  1  0.88797678  0.19984813  0.62664676  1
  Al  Al4  1  0.44305091  0.09770919  0.39864288  1
  Al  Al5  1  0.56088807  0.19154201  0.14507078  1
  Al  Al6  1  0.11212837  0.08874496  0.82313661  1
  Al  Al7  1  0.22929433  0.20519897  0.64336200  1
  Al  Al8  1  0.78219911  0.08205629  0.38994682  1
  Al  Al9  1  0.88347484  0.20594256  0.13886872  1
  Al  Al10  1  0.45077082  0.08251116  0.88994394  1
  Al  Al11  1  0.56481217  0.19118569  0.64571995  1
  Al  Al12  1  0.10826880  0.43608632  0.31966196  1
  Al  Al13  1  0.22480831  0.53911614  0.06668025  1
  Al  Al14  1  0.77307023  0.43457751  0.81813914  1
  Al  Al15  1  0.89292289  0.54550997  0.56792940  1
  Al  Al16  1  0.44173200  0.43166976  0.32186544  1
  Al  Al17  1  0.55654335  0.54257424  0.07204118  1
  Al  Al18  1  0.10719809  0.43480791  0.82549318  1
  Al  Al19  1  0.21790447  0.54241721  0.57215633  1
  Al  Al20  1  0.77454275  0.43461057  0.32664147  1
  Al  Al21  1  0.87928616  0.54460774  0.06825635  1
  Al  Al22  1  0.44366841  0.43135424  0.82211079  1
  Al  Al23  1  0.55235367  0.53981054  0.56651255  1
  Al  Al24  1  0.11453683  0.75952014  0.31342032  1
  Al  Al25  1  0.22783638  0.87474109  0.06817460  1
  Al  Al26  1  0.78221148  0.76541284  0.82188766  1
  Al  Al27  1  0.44626029  0.76641402  0.32725674  1
  Al  Al28  1  0.10409606  0.76587855  0.82753314  1
  Al  Al29  1  0.21449864  0.87385533  0.56813843  1
  Al  Al30  1  0.76817216  0.76613983  0.32123323  1
  Al  Al31  1  0.88669689  0.87106731  0.10151419  1
  Al  Al32  1  0.44278722  0.75936479  0.81388472  1
  Al  Al33  1  0.55894354  0.87124678  0.60156043  1
  B  B34  1  0.89283218  0.86881887  0.60974286  1
  B  B35  1  0.55475706  0.86884201  0.10902724  1
  N  N36  1  0.23000322  0.20337649  0.32987520  1
  N  N37  1  0.11059264  0.09034790  0.12942491  1
  N  N38  1  0.88306974  0.20302423  0.82851864  1
  N  N39  1  0.79443179  0.05964386  0.58416539  1
  N  N40  1  0.55964142  0.19739856  0.33365822  1
  N  N41  1  0.46133062  0.06052265  0.08424328  1
  N  N42  1  0.22724559  0.20302851  0.84074352  1
  N  N43  1  0.11621685  0.09043322  0.62616505  1
  N  N44  1  0.88572504  0.20462303  0.34964687  1
  N  N45  1  0.77198670  0.10446200  0.08253064  1
  N  N46  1  0.55904561  0.19717647  0.83424829  1
  N  N47  1  0.44088179  0.10446157  0.58295064  1
  N  N48  1  0.22205233  0.54027072  0.38452495  1
  N  N49  1  0.10503680  0.43787854  0.12738300  1
  N  N50  1  0.88561924  0.54082687  0.88121959  1
  N  N51  1  0.77364418  0.43908392  0.62623093  1
  N  N52  1  0.55286824  0.54033054  0.37935544  1
  N  N53  1  0.44308958  0.43005080  0.13079719  1
  N  N54  1  0.22362078  0.53955598  0.87953863  1
  N  N55  1  0.10761595  0.43568867  0.63428358  1
  N  N56  1  0.88933232  0.54204773  0.38097714  1
  N  N57  1  0.77378593  0.43535891  0.13540343  1
  N  N58  1  0.55501946  0.53977509  0.88443367  1
  N  N59  1  0.44416143  0.42991108  0.63096534  1
  N  N60  1  0.22253237  0.86862299  0.38133145  1
  N  N61  1  0.12530028  0.75653043  0.12660054  1
  N  N62  1  0.89215154  0.86398310  0.89620763  1
  N  N63  1  0.80189071  0.77450096  0.62631238  1
  N  N64  1  0.55982823  0.86474763  0.39599756  1
  N  N65  1  0.45676017  0.77830194  0.13015517  1
  N  N66  1  0.22487867  0.86921707  0.88115848  1
  N  N67  1  0.08164989  0.77811122  0.63056400  1
  N  N68  1  0.88772103  0.87275274  0.31980260  1
  N  N69  1  0.74000534  0.77450005  0.12572936  1
  N  N70  1  0.55618710  0.87240651  0.82128387  1
  N  N71  1  0.43500421  0.75680757  0.62703306  1
