# generated using pymatgen
data_Al17BN18
_symmetry_space_group_name_H-M   'P 1'
_cell_length_a   9.29196117
_cell_length_b   9.29193277
_cell_length_c   9.97153261
_cell_angle_alpha   89.98324595
_cell_angle_beta   90.00000659
_cell_angle_gamma   59.99987135
_symmetry_Int_Tables_number   1
_chemical_formula_structural   Al17BN18
_chemical_formula_sum   'Al34 B2 N36'
_cell_volume   745.59914843
_cell_formula_units_Z   2
loop_
 _symmetry_equiv_pos_site_id
 _symmetry_equiv_pos_as_xyz
  1  'x, y, z'
loop_
 _atom_site_type_symbol
 _atom_site_label
 _atom_site_symmetry_multiplicity
 _atom_site_fract_x
 _atom_site_fract_y
 _atom_site_fract_z
 _atom_site_occupancy
  Al  Al0  1  0.11138170  0.09432525  0.39607536  1
  Al  Al1  1  0.22619998  0.20016585  0.14554739  1
  Al  Al2  1  0.77928774  0.09155204  0.89039547  1
  Al  Al3  1  0.89030035  0.20016566  0.64554758  1
  Al  Al4  1  0.44582674  0.09155303  0.39039449  1
  Al  Al5  1  0.55853078  0.19909986  0.14572848  1
  Al  Al6  1  0.11096085  0.09432447  0.89607506  1
  Al  Al7  1  0.22341069  0.20492967  0.64634576  1
  Al  Al8  1  0.78038009  0.08875061  0.39827067  1
  Al  Al9  1  0.88832604  0.20493018  0.14634566  1
  Al  Al10  1  0.44753710  0.08875017  0.89827196  1
  Al  Al11  1  0.55903546  0.19909950  0.64572821  1
  Al  Al12  1  0.11085073  0.42763959  0.39556376  1
  Al  Al13  1  0.22172042  0.54000136  0.14676532  1
  Al  Al14  1  0.77817721  0.42763930  0.89556355  1
  Al  Al15  1  0.88983588  0.54420252  0.64580985  1
  Al  Al16  1  0.44511886  0.42744086  0.39584997  1
  Al  Al17  1  0.55717636  0.54275113  0.14554433  1
  Al  Al18  1  0.11118829  0.42823039  0.89646941  1
  Al  Al19  1  0.21673911  0.54275116  0.64554439  1
  Al  Al20  1  0.77724807  0.42823089  0.39646968  1
  Al  Al21  1  0.88262872  0.54420163  0.14581001  1
  Al  Al22  1  0.44410704  0.42744033  0.89584962  1
  Al  Al23  1  0.55494541  0.54000154  0.64676543  1
  Al  Al24  1  0.10567112  0.76402867  0.39771555  1
  Al  Al25  1  0.22566013  0.87327826  0.14571977  1
  Al  Al26  1  0.77409376  0.76507496  0.89259380  1
  Al  Al27  1  0.44588946  0.76216618  0.39069044  1
  Al  Al28  1  0.10861088  0.76216564  0.89069122  1
  Al  Al29  1  0.21772819  0.87327814  0.64571948  1
  Al  Al30  1  0.77749706  0.76507529  0.39259155  1
  Al  Al31  1  0.88349738  0.87351938  0.14299434  1
  Al  Al32  1  0.44696672  0.76402823  0.89771661  1
  Al  Al33  1  0.55964977  0.87351990  0.64299510  1
  B  B34  1  0.88835972  0.87212268  0.64427930  1
  B  B35  1  0.55618385  0.87212267  0.14428345  1
  N  N36  1  0.22203950  0.20555360  0.33532186  1
  N  N37  1  0.11034761  0.09464051  0.08638410  1
  N  N38  1  0.88907402  0.20555292  0.83532205  1
  N  N39  1  0.79051202  0.06844278  0.59226283  1
  N  N40  1  0.55774055  0.20438101  0.33693059  1
  N  N41  1  0.45771135  0.06844336  0.09226390  1
  N  N42  1  0.22411882  0.20475410  0.83838160  1
  N  N43  1  0.11167831  0.09464051  0.58638434  1
  N  N44  1  0.88779416  0.20475478  0.33838157  1
  N  N45  1  0.77873353  0.09363913  0.08193012  1
  N  N46  1  0.55454584  0.20438034  0.83693042  1
  N  N47  1  0.44429401  0.09363871  0.58192906  1
  N  N48  1  0.22153022  0.54062419  0.33831119  1
  N  N49  1  0.11055121  0.42799612  0.08762002  1
  N  N50  1  0.88841174  0.54061266  0.83713573  1
  N  N51  1  0.77811972  0.42799602  0.58762018  1
  N  N52  1  0.55569701  0.53870201  0.33553039  1
  N  N53  1  0.44498932  0.42697303  0.08733511  1
  N  N54  1  0.22226780  0.53870176  0.83553029  1
  N  N55  1  0.11117766  0.42695556  0.58615404  1
  N  N56  1  0.88764261  0.54061252  0.33713581  1
  N  N57  1  0.77853348  0.42695562  0.08615385  1
  N  N58  1  0.55451255  0.54062392  0.83831134  1
  N  N59  1  0.44470442  0.42697322  0.58733540  1
  N  N60  1  0.22125893  0.87144771  0.33691149  1
  N  N61  1  0.10986610  0.76212748  0.08316279  1
  N  N62  1  0.88826892  0.87137596  0.81792016  1
  N  N63  1  0.78974244  0.77436744  0.58852780  1
  N  N64  1  0.55702077  0.87137678  0.31791680  1
  N  N65  1  0.45718712  0.77428926  0.09197176  1
  N  N66  1  0.22396022  0.87144679  0.83691131  1
  N  N67  1  0.08518952  0.77428941  0.59197071  1
  N  N68  1  0.88897235  0.87229940  0.33055218  1
  N  N69  1  0.75255691  0.77436664  0.08852963  1
  N  N70  1  0.55539484  0.87229904  0.83055301  1
  N  N71  1  0.44467359  0.76212790  0.58316211  1
