# generated using pymatgen
data_Al17BN18
_symmetry_space_group_name_H-M   'P 1'
_cell_length_a   9.29830958
_cell_length_b   9.30054249
_cell_length_c   9.94034168
_cell_angle_alpha   90.03206891
_cell_angle_beta   89.99999468
_cell_angle_gamma   60.00794728
_symmetry_Int_Tables_number   1
_chemical_formula_structural   Al17BN18
_chemical_formula_sum   'Al34 B2 N36'
_cell_volume   744.52435648
_cell_formula_units_Z   2
loop_
 _symmetry_equiv_pos_site_id
 _symmetry_equiv_pos_as_xyz
  1  'x, y, z'
loop_
 _atom_site_type_symbol
 _atom_site_label
 _atom_site_symmetry_multiplicity
 _atom_site_fract_x
 _atom_site_fract_y
 _atom_site_fract_z
 _atom_site_occupancy
  Al  Al0  1  0.11109945  0.09413295  0.40888192  1
  Al  Al1  1  0.22549644  0.20042023  0.15878884  1
  Al  Al2  1  0.77893096  0.09174774  0.90181568  1
  Al  Al3  1  0.89074994  0.20042077  0.65878891  1
  Al  Al4  1  0.44598846  0.09174808  0.40181565  1
  Al  Al5  1  0.55886265  0.19944644  0.15851617  1
  Al  Al6  1  0.11143536  0.09413276  0.90888199  1
  Al  Al7  1  0.22436083  0.20433063  0.65872022  1
  Al  Al8  1  0.78047069  0.08883149  0.41316620  1
  Al  Al9  1  0.88797568  0.20433040  0.15872016  1
  Al  Al10  1  0.44736528  0.08883138  0.91316625  1
  Al  Al11  1  0.55835699  0.19944663  0.65851616  1
  Al  Al12  1  0.11073976  0.42780382  0.40857049  1
  Al  Al13  1  0.22091448  0.54062519  0.15919144  1
  Al  Al14  1  0.77812387  0.42780365  0.90857055  1
  Al  Al15  1  0.88987725  0.54415259  0.65889863  1
  Al  Al16  1  0.44489056  0.42768681  0.40861008  1
  Al  Al17  1  0.55711968  0.54233011  0.15869829  1
  Al  Al18  1  0.11137613  0.42774348  0.90938344  1
  Al  Al19  1  0.21721666  0.54233061  0.65869820  1
  Al  Al20  1  0.77754737  0.42774359  0.40938347  1
  Al  Al21  1  0.88263705  0.54415196  0.15889878  1
  Al  Al22  1  0.44408882  0.42768658  0.90861013  1
  Al  Al23  1  0.55512716  0.54062474  0.65919160  1
  Al  Al24  1  0.10543082  0.76407026  0.41267832  1
  Al  Al25  1  0.22436515  0.87294475  0.15842983  1
  Al  Al26  1  0.77388739  0.76504831  0.90647037  1
  Al  Al27  1  0.44588235  0.76227221  0.40191655  1
  Al  Al28  1  0.10851147  0.76227226  0.90191638  1
  Al  Al29  1  0.21935637  0.87294554  0.65842980  1
  Al  Al30  1  0.77773021  0.76504835  0.40647038  1
  Al  Al31  1  0.88333143  0.87362933  0.15705524  1
  Al  Al32  1  0.44716524  0.76406963  0.91267820  1
  Al  Al33  1  0.55970526  0.87362968  0.65705521  1
  B  B34  1  0.88806088  0.87232348  0.66136717  1
  B  B35  1  0.55628237  0.87232302  0.16136715  1
  N  N36  1  0.22162261  0.20560595  0.34883258  1
  N  N37  1  0.11024591  0.09433715  0.09964096  1
  N  N38  1  0.88943900  0.20560569  0.84883272  1
  N  N39  1  0.79025168  0.06921464  0.60731915  1
  N  N40  1  0.55844365  0.20446483  0.35028325  1
  N  N41  1  0.45720063  0.06921415  0.10731903  1
  N  N42  1  0.22474500  0.20431302  0.85153679  1
  N  N43  1  0.11208364  0.09433769  0.59964093  1
  N  N44  1  0.88760940  0.20431304  0.35153675  1
  N  N45  1  0.77880883  0.09273214  0.09391380  1
  N  N46  1  0.55375879  0.20446466  0.85028325  1
  N  N47  1  0.44512562  0.09273224  0.59391363  1
  N  N48  1  0.22106695  0.54119201  0.35153595  1
  N  N49  1  0.11040634  0.42771102  0.10098417  1
  N  N50  1  0.88846085  0.54078858  0.85080060  1
  N  N51  1  0.77854930  0.42771129  0.60098417  1
  N  N52  1  0.55603922  0.53834524  0.34894348  1
  N  N53  1  0.44464043  0.42723612  0.10058714  1
  N  N54  1  0.22228211  0.53834539  0.84894328  1
  N  N55  1  0.11148765  0.42670107  0.59961354  1
  N  N56  1  0.88741760  0.54078857  0.35080064  1
  N  N57  1  0.77847821  0.42670069  0.09961351  1
  N  N58  1  0.55440809  0.54119129  0.85153615  1
  N  N59  1  0.44478976  0.42723620  0.60058713  1
  N  N60  1  0.22065404  0.87119484  0.35021012  1
  N  N61  1  0.10838435  0.76244778  0.09501229  1
  N  N62  1  0.88775918  0.87132099  0.82878695  1
  N  N63  1  0.78916699  0.77424267  0.60262827  1
  N  N64  1  0.55758606  0.87132101  0.32878697  1
  N  N65  1  0.45656778  0.77393217  0.10703974  1
  N  N66  1  0.22481753  0.87119473  0.85021010  1
  N  N67  1  0.08616628  0.77393275  0.60703982  1
  N  N68  1  0.88895998  0.87262592  0.34524077  1
  N  N69  1  0.75325684  0.77424222  0.10262828  1
  N  N70  1  0.55508021  0.87262582  0.84524074  1
  N  N71  1  0.44583426  0.76244772  0.59501248  1
