# generated using pymatgen
data_Al17BN18
_symmetry_space_group_name_H-M   'P 1'
_cell_length_a   9.34656293
_cell_length_b   9.30116722
_cell_length_c   10.25893421
_cell_angle_alpha   89.57188654
_cell_angle_beta   90.14425972
_cell_angle_gamma   59.75304995
_symmetry_Int_Tables_number   1
_chemical_formula_structural   Al17BN18
_chemical_formula_sum   'Al34 B2 N36'
_cell_volume   770.39340606
_cell_formula_units_Z   2
loop_
 _symmetry_equiv_pos_site_id
 _symmetry_equiv_pos_as_xyz
  1  'x, y, z'
loop_
 _atom_site_type_symbol
 _atom_site_label
 _atom_site_symmetry_multiplicity
 _atom_site_fract_x
 _atom_site_fract_y
 _atom_site_fract_z
 _atom_site_occupancy
  Al  Al0  1  0.11159619  0.09633992  0.39014658  1
  Al  Al1  1  0.22968287  0.19538042  0.13784440  1
  Al  Al2  1  0.77606028  0.09863455  0.89721610  1
  Al  Al3  1  0.89407356  0.19312870  0.63861631  1
  Al  Al4  1  0.44183927  0.10031887  0.39661077  1
  Al  Al5  1  0.56200885  0.19222750  0.14348300  1
  Al  Al6  1  0.11030796  0.09325220  0.89270517  1
  Al  Al7  1  0.22325585  0.20200426  0.64401005  1
  Al  Al8  1  0.78212045  0.08365756  0.38803030  1
  Al  Al9  1  0.89272927  0.19949883  0.14495067  1
  Al  Al10  1  0.44994805  0.08464354  0.88646511  1
  Al  Al11  1  0.56260471  0.19219725  0.64390161  1
  Al  Al12  1  0.10706009  0.43575189  0.31726089  1
  Al  Al13  1  0.22465090  0.53927203  0.06609349  1
  Al  Al14  1  0.77642422  0.43205250  0.81783020  1
  Al  Al15  1  0.89168328  0.54463441  0.56601123  1
  Al  Al16  1  0.44163534  0.43368438  0.31933642  1
  Al  Al17  1  0.55950958  0.54002426  0.06868578  1
  Al  Al18  1  0.10716038  0.43311110  0.82245142  1
  Al  Al19  1  0.21537591  0.54307025  0.56978908  1
  Al  Al20  1  0.77355906  0.43482923  0.32143989  1
  Al  Al21  1  0.88017853  0.54424616  0.06744218  1
  Al  Al22  1  0.44163220  0.43124186  0.82029855  1
  Al  Al23  1  0.55854073  0.52807808  0.57100151  1
  Al  Al24  1  0.11045655  0.75854284  0.31215088  1
  Al  Al25  1  0.23731630  0.87468195  0.13932197  1
  Al  Al26  1  0.78321073  0.76428021  0.81804492  1
  Al  Al27  1  0.43968406  0.76676589  0.39850433  1
  Al  Al28  1  0.10018441  0.76283340  0.82913140  1
  Al  Al29  1  0.21329160  0.87825379  0.63855502  1
  Al  Al30  1  0.76542692  0.76678366  0.31699131  1
  Al  Al31  1  0.88555795  0.87181749  0.09669909  1
  Al  Al32  1  0.44688332  0.76309564  0.85265945  1
  Al  Al33  1  0.55960988  0.87562571  0.60444299  1
  B  B34  1  0.89152508  0.86900200  0.60657406  1
  B  B35  1  0.55540352  0.86821174  0.09849350  1
  N  N36  1  0.22640763  0.20049652  0.32560406  1
  N  N37  1  0.11017023  0.09613322  0.07788324  1
  N  N38  1  0.89225562  0.19658199  0.82632615  1
  N  N39  1  0.79320497  0.06248713  0.58258192  1
  N  N40  1  0.55878771  0.19888636  0.33091868  1
  N  N41  1  0.46138644  0.06356896  0.07958203  1
  N  N42  1  0.22531068  0.19868745  0.83370319  1
  N  N43  1  0.11056403  0.09776785  0.57611431  1
  N  N44  1  0.89080186  0.19933926  0.33390683  1
  N  N45  1  0.77363660  0.10627468  0.08059400  1
  N  N46  1  0.56013706  0.19663722  0.83135874  1
  N  N47  1  0.43538818  0.10906603  0.58085206  1
  N  N48  1  0.22190996  0.53984968  0.38366578  1
  N  N49  1  0.10607670  0.43692917  0.12732858  1
  N  N50  1  0.88615338  0.54033013  0.88111990  1
  N  N51  1  0.77730718  0.43424686  0.62953892  1
  N  N52  1  0.55765120  0.53264787  0.38417706  1
  N  N53  1  0.44325633  0.43263248  0.12998211  1
  N  N54  1  0.22316768  0.53726018  0.88037886  1
  N  N55  1  0.10619160  0.43521347  0.63366578  1
  N  N56  1  0.88823563  0.54096394  0.38013251  1
  N  N57  1  0.77577693  0.43367359  0.13315176  1
  N  N58  1  0.55845057  0.53310409  0.88076080  1
  N  N59  1  0.43986540  0.43142925  0.63260278  1
  N  N60  1  0.22696739  0.87488453  0.32950541  1
  N  N61  1  0.12143278  0.75749004  0.12299488  1
  N  N62  1  0.88902189  0.86503512  0.89530876  1
  N  N63  1  0.80094991  0.77462584  0.62556851  1
  N  N64  1  0.56238210  0.86943020  0.39467766  1
  N  N65  1  0.46070031  0.77915592  0.08439852  1
  N  N66  1  0.21998587  0.87419388  0.82680260  1
  N  N67  1  0.07775031  0.77660047  0.62896287  1
  N  N68  1  0.88596538  0.87231320  0.32268366  1
  N  N69  1  0.74115410  0.77495819  0.12325304  1
  N  N70  1  0.55492507  0.87406388  0.81040953  1
  N  N71  1  0.43561430  0.75960617  0.59287801  1
