# generated using pymatgen
data_Al17BN18
_symmetry_space_group_name_H-M   'P 1'
_cell_length_a   9.35760426
_cell_length_b   9.31705170
_cell_length_c   10.18480998
_cell_angle_alpha   89.43561777
_cell_angle_beta   89.99998263
_cell_angle_gamma   59.85585780
_symmetry_Int_Tables_number   1
_chemical_formula_structural   Al17BN18
_chemical_formula_sum   'Al34 B2 N36'
_cell_volume   767.83151297
_cell_formula_units_Z   2
loop_
 _symmetry_equiv_pos_site_id
 _symmetry_equiv_pos_as_xyz
  1  'x, y, z'
loop_
 _atom_site_type_symbol
 _atom_site_label
 _atom_site_symmetry_multiplicity
 _atom_site_fract_x
 _atom_site_fract_y
 _atom_site_fract_z
 _atom_site_occupancy
  Al  Al0  1  0.11294077  0.09195470  0.33967252  1
  Al  Al1  1  0.23043508  0.19727455  0.13608585  1
  Al  Al2  1  0.77576741  0.09769346  0.89862470  1
  Al  Al3  1  0.88895764  0.19727373  0.63608550  1
  Al  Al4  1  0.44320440  0.09769354  0.39862450  1
  Al  Al5  1  0.56113723  0.19145757  0.14513412  1
  Al  Al6  1  0.11176899  0.09195506  0.83967286  1
  Al  Al7  1  0.22787435  0.20374212  0.64388608  1
  Al  Al8  1  0.78215042  0.08238341  0.39002936  1
  Al  Al9  1  0.88504941  0.20374228  0.14388585  1
  Al  Al10  1  0.45213093  0.08238458  0.89002953  1
  Al  Al11  1  0.56407186  0.19145764  0.64513425  1
  Al  Al12  1  0.10795822  0.43645273  0.31878725  1
  Al  Al13  1  0.22474242  0.53906553  0.06653028  1
  Al  Al14  1  0.77225618  0.43645266  0.81878712  1
  Al  Al15  1  0.89287753  0.54407342  0.56803900  1
  Al  Al16  1  0.44147605  0.43181276  0.32154225  1
  Al  Al17  1  0.55711449  0.54202104  0.07162228  1
  Al  Al18  1  0.10745816  0.43570713  0.82444333  1
  Al  Al19  1  0.21753199  0.54202073  0.57162238  1
  Al  Al20  1  0.77350131  0.43570712  0.32444323  1
  Al  Al21  1  0.87971574  0.54407386  0.06803915  1
  Al  Al22  1  0.44337809  0.43181369  0.82154192  1
  Al  Al23  1  0.55285986  0.53906597  0.56653038  1
  Al  Al24  1  0.11408150  0.75959973  0.31318202  1
  Al  Al25  1  0.22884955  0.87331375  0.06877220  1
  Al  Al26  1  0.78252087  0.76584108  0.82126890  1
  Al  Al27  1  0.44636367  0.76621959  0.32678971  1
  Al  Al28  1  0.10408350  0.76621943  0.82678976  1
  Al  Al29  1  0.21450403  0.87331301  0.56877237  1
  Al  Al30  1  0.76830477  0.76584086  0.32126884  1
  Al  Al31  1  0.88652981  0.87124056  0.10082283  1
  Al  Al32  1  0.44298592  0.75960082  0.81318212  1
  Al  Al33  1  0.55889613  0.87124193  0.60082282  1
  B  B34  1  0.89266092  0.86889217  0.60900514  1
  B  B35  1  0.55511330  0.86889265  0.10900515  1
  N  N36  1  0.23013902  0.20291272  0.32864922  1
  N  N37  1  0.10965362  0.09307920  0.11696324  1
  N  N38  1  0.88361313  0.20291287  0.82864896  1
  N  N39  1  0.79435419  0.06068407  0.58399878  1
  N  N40  1  0.55953948  0.19741181  0.33362920  1
  N  N41  1  0.46162802  0.06068459  0.08399885  1
  N  N42  1  0.22854144  0.20339758  0.83976203  1
  N  N43  1  0.11393424  0.09307842  0.61696335  1
  N  N44  1  0.88472593  0.20339748  0.33976193  1
  N  N45  1  0.77203047  0.10476427  0.08268568  1
  N  N46  1  0.55971404  0.19741252  0.83362935  1
  N  N47  1  0.43987142  0.10476514  0.58268555  1
  N  N48  1  0.22193032  0.53995257  0.38428111  1
  N  N49  1  0.10522202  0.43791005  0.12743253  1
  N  N50  1  0.88632650  0.54097572  0.88110546  1
  N  N51  1  0.77353573  0.43790946  0.62743251  1
  N  N52  1  0.55310859  0.53985904  0.37952287  1
  N  N53  1  0.44296109  0.43030886  0.13079398  1
  N  N54  1  0.22369930  0.53985884  0.87952283  1
  N  N55  1  0.10755562  0.43532808  0.63425865  1
  N  N56  1  0.88936457  0.54097547  0.38110535  1
  N  N57  1  0.77378349  0.43532810  0.13425860  1
  N  N58  1  0.55478400  0.53995334  0.88428102  1
  N  N59  1  0.44339778  0.43030917  0.63079380  1
  N  N60  1  0.22301719  0.86752078  0.38093388  1
  N  N61  1  0.12472567  0.75659881  0.12680919  1
  N  N62  1  0.89229010  0.86457718  0.89577050  1
  N  N63  1  0.80173461  0.77449096  0.62582119  1
  N  N64  1  0.55979921  0.86457739  0.39577041  1
  N  N65  1  0.45731313  0.77795613  0.13038708  1
  N  N66  1  0.22612855  0.86752099  0.88093370  1
  N  N67  1  0.08139782  0.77795568  0.63038717  1
  N  N68  1  0.88767119  0.87239258  0.32123944  1
  N  N69  1  0.74044103  0.77449105  0.12582125  1
  N  N70  1  0.55660271  0.87239390  0.82123957  1
  N  N71  1  0.43534317  0.75659923  0.62680930  1
