# generated using pymatgen
data_Al17BN18
_symmetry_space_group_name_H-M   'P 1'
_cell_length_a   9.33066779
_cell_length_b   9.30749996
_cell_length_c   10.12890231
_cell_angle_alpha   89.76332536
_cell_angle_beta   90.03198887
_cell_angle_gamma   60.04824308
_symmetry_Int_Tables_number   1
_chemical_formula_structural   Al17BN18
_chemical_formula_sum   'Al34 B2 N36'
_cell_volume   762.15624126
_cell_formula_units_Z   2
loop_
 _symmetry_equiv_pos_site_id
 _symmetry_equiv_pos_as_xyz
  1  'x, y, z'
loop_
 _atom_site_type_symbol
 _atom_site_label
 _atom_site_symmetry_multiplicity
 _atom_site_fract_x
 _atom_site_fract_y
 _atom_site_fract_z
 _atom_site_occupancy
  Al  Al0  1  0.10986076  0.09470183  0.31039104  1
  Al  Al1  1  0.21856234  0.20442134  0.06228039  1
  Al  Al2  1  0.78650370  0.08681167  0.83263030  1
  Al  Al3  1  0.88846624  0.19803932  0.56129933  1
  Al  Al4  1  0.45049485  0.09338648  0.38630474  1
  Al  Al5  1  0.55242532  0.19701369  0.12256451  1
  Al  Al6  1  0.11364845  0.09546142  0.80874098  1
  Al  Al7  1  0.21266732  0.21185101  0.56022053  1
  Al  Al8  1  0.78419708  0.09009242  0.30463900  1
  Al  Al9  1  0.88915598  0.20990845  0.05806026  1
  Al  Al10  1  0.45438020  0.08077507  0.87567311  1
  Al  Al11  1  0.55935157  0.19521484  0.63602514  1
  Al  Al12  1  0.11011425  0.42960302  0.30917291  1
  Al  Al13  1  0.22258596  0.54053805  0.05586345  1
  Al  Al14  1  0.77671450  0.43050719  0.80780040  1
  Al  Al15  1  0.89111244  0.54483149  0.55740948  1
  Al  Al16  1  0.43983820  0.43258238  0.30793644  1
  Al  Al17  1  0.55756173  0.54412066  0.06034938  1
  Al  Al18  1  0.11173506  0.42731595  0.81010946  1
  Al  Al19  1  0.21694903  0.54261954  0.56106357  1
  Al  Al20  1  0.77767921  0.42712267  0.31099710  1
  Al  Al21  1  0.87997430  0.54508180  0.05871585  1
  Al  Al22  1  0.44203586  0.43501856  0.81306180  1
  Al  Al23  1  0.55348983  0.53739019  0.55550595  1
  Al  Al24  1  0.11309389  0.75947547  0.30518210  1
  Al  Al25  1  0.22786234  0.87559552  0.05916893  1
  Al  Al26  1  0.78393868  0.76169031  0.81067168  1
  Al  Al27  1  0.44626509  0.76540756  0.31719634  1
  Al  Al28  1  0.10741283  0.76481583  0.81656119  1
  Al  Al29  1  0.21364035  0.87450477  0.55783873  1
  Al  Al30  1  0.77091824  0.76397325  0.31333392  1
  Al  Al31  1  0.88597299  0.87167653  0.07961411  1
  Al  Al32  1  0.44247139  0.76002548  0.80242192  1
  Al  Al33  1  0.55940198  0.87188677  0.59243312  1
  B  B34  1  0.89287770  0.87059208  0.60548620  1
  B  B35  1  0.55495941  0.86969470  0.09876168  1
  N  N36  1  0.21598658  0.20861951  0.36852200  1
  N  N37  1  0.10937908  0.09549895  0.12193593  1
  N  N38  1  0.89178647  0.20837716  0.86943508  1
  N  N39  1  0.79875534  0.06014310  0.62413712  1
  N  N40  1  0.55254178  0.20100561  0.31552114  1
  N  N41  1  0.46178930  0.05789180  0.07222388  1
  N  N42  1  0.22063960  0.20755999  0.87275399  1
  N  N43  1  0.10992823  0.09494716  0.62090567  1
  N  N44  1  0.88695590  0.20416589  0.37236757  1
  N  N45  1  0.77949326  0.09990311  0.10869722  1
  N  N46  1  0.55628891  0.20306272  0.83017961  1
  N  N47  1  0.44135723  0.10312060  0.57516869  1
  N  N48  1  0.22184310  0.53920402  0.37256420  1
  N  N49  1  0.10870522  0.43168883  0.11910127  1
  N  N50  1  0.88880200  0.53979130  0.86991008  1
  N  N51  1  0.77677179  0.42920311  0.61808374  1
  N  N52  1  0.55466887  0.53792073  0.36676418  1
  N  N53  1  0.44144762  0.43393163  0.11530538  1
  N  N54  1  0.22129081  0.54017549  0.86791890  1
  N  N55  1  0.10912363  0.42951511  0.62212078  1
  N  N56  1  0.88839451  0.53912970  0.36915121  1
  N  N57  1  0.77778001  0.42881696  0.12170648  1
  N  N58  1  0.55631297  0.54166442  0.87224524  1
  N  N59  1  0.44215913  0.43106728  0.62114782  1
  N  N60  1  0.22114613  0.87197966  0.36915606  1
  N  N61  1  0.12168056  0.75848161  0.11591588  1
  N  N62  1  0.89179227  0.86615995  0.88590750  1
  N  N63  1  0.80341430  0.77202357  0.61670443  1
  N  N64  1  0.56079307  0.86307949  0.38475328  1
  N  N65  1  0.45767912  0.77756368  0.11942075  1
  N  N66  1  0.22408115  0.87330420  0.87009069  1
  N  N67  1  0.08393156  0.77575693  0.62111148  1
  N  N68  1  0.89067956  0.86767593  0.32756406  1
  N  N69  1  0.74201498  0.77447095  0.11506136  1
  N  N70  1  0.55758204  0.87200194  0.80837072  1
  N  N71  1  0.43533081  0.75605906  0.61491626  1
