# generated using pymatgen
data_Al17BN18
_symmetry_space_group_name_H-M   'P 1'
_cell_length_a   9.33316332
_cell_length_b   9.31795908
_cell_length_c   10.05952693
_cell_angle_alpha   89.73219609
_cell_angle_beta   90.00000233
_cell_angle_gamma   59.94597691
_symmetry_Int_Tables_number   1
_chemical_formula_structural   Al17BN18
_chemical_formula_sum   'Al34 B2 N36'
_cell_volume   757.20739461
_cell_formula_units_Z   2
loop_
 _symmetry_equiv_pos_site_id
 _symmetry_equiv_pos_as_xyz
  1  'x, y, z'
loop_
 _atom_site_type_symbol
 _atom_site_label
 _atom_site_symmetry_multiplicity
 _atom_site_fract_x
 _atom_site_fract_y
 _atom_site_fract_z
 _atom_site_occupancy
  Al  Al0  1  0.11295717  0.09446827  0.38726732  1
  Al  Al1  1  0.22727665  0.19860219  0.13490891  1
  Al  Al2  1  0.77671223  0.09668727  0.89246199  1
  Al  Al3  1  0.89078667  0.19860173  0.63490905  1
  Al  Al4  1  0.44326650  0.09668808  0.39246205  1
  Al  Al5  1  0.55783672  0.19930613  0.13819521  1
  Al  Al6  1  0.10924151  0.09446721  0.88726731  1
  Al  Al7  1  0.22052445  0.20712962  0.64073499  1
  Al  Al8  1  0.78107453  0.08562599  0.37913730  1
  Al  Al9  1  0.88901141  0.20712988  0.14073479  1
  Al  Al10  1  0.44996657  0.08562579  0.87913732  1
  Al  Al11  1  0.55952329  0.19930664  0.63819506  1
  Al  Al12  1  0.11404449  0.42583662  0.38317579  1
  Al  Al13  1  0.22602309  0.53786258  0.14033388  1
  Al  Al14  1  0.77678533  0.42583594  0.88317570  1
  Al  Al15  1  0.89061876  0.54417863  0.60149847  1
  Al  Al16  1  0.44647096  0.42662911  0.38718475  1
  Al  Al17  1  0.55682954  0.54287777  0.13466847  1
  Al  Al18  1  0.11296114  0.42846577  0.88487723  1
  Al  Al19  1  0.21695959  0.54287740  0.63466848  1
  Al  Al20  1  0.77523835  0.42846615  0.38487724  1
  Al  Al21  1  0.88186792  0.54417972  0.10149827  1
  Al  Al22  1  0.44356656  0.42662865  0.88718475  1
  Al  Al23  1  0.55278097  0.53786321  0.64033384  1
  Al  Al24  1  0.10485749  0.76432296  0.37770127  1
  Al  Al25  1  0.22927368  0.87482603  0.13835368  1
  Al  Al26  1  0.78378308  0.76670826  0.81502976  1
  Al  Al27  1  0.44321820  0.75885633  0.39308659  1
  Al  Al28  1  0.11459412  0.75885496  0.89308642  1
  Al  Al29  1  0.21256711  0.87482607  0.63835340  1
  Al  Al30  1  0.76617562  0.76670872  0.31502950  1
  Al  Al31  1  0.88580158  0.87560185  0.10423813  1
  Al  Al32  1  0.44748719  0.76432249  0.87770108  1
  Al  Al33  1  0.55526523  0.87560237  0.60423803  1
  B  B34  1  0.89115574  0.87125535  0.59361030  1
  B  B35  1  0.55425550  0.87125598  0.09361029  1
  N  N36  1  0.22523439  0.20345261  0.32361973  1
  N  N37  1  0.10957254  0.09584261  0.07700619  1
  N  N38  1  0.88797967  0.20345198  0.82361980  1
  N  N39  1  0.79307219  0.06316433  0.57682835  1
  N  N40  1  0.55548820  0.20405532  0.32761916  1
  N  N41  1  0.46042941  0.06316483  0.07682853  1
  N  N42  1  0.22273967  0.20482140  0.83040169  1
  N  N43  1  0.11125052  0.09584279  0.57700619  1
  N  N44  1  0.88910492  0.20482202  0.33040139  1
  N  N45  1  0.77334882  0.10674579  0.08063840  1
  N  N46  1  0.55712337  0.20405500  0.82761897  1
  N  N47  1  0.43657150  0.10674630  0.58063859  1
  N  N48  1  0.22451710  0.53837255  0.32945740  1
  N  N49  1  0.11505577  0.42741237  0.07708211  1
  N  N50  1  0.88820668  0.53926239  0.84319835  1
  N  N51  1  0.77419816  0.42741167  0.57708204  1
  N  N52  1  0.55389283  0.54058422  0.32377482  1
  N  N53  1  0.44537677  0.42551267  0.07739843  1
  N  N54  1  0.22218968  0.54058315  0.82377487  1
  N  N55  1  0.11538311  0.42532285  0.57452127  1
  N  N56  1  0.88919653  0.53926286  0.34319900  1
  N  N57  1  0.77596047  0.42532309  0.07452113  1
  N  N58  1  0.55377691  0.53837226  0.82945737  1
  N  N59  1  0.44577728  0.42551315  0.57739843  1
  N  N60  1  0.22394961  0.87245752  0.32774571  1
  N  N61  1  0.12613277  0.75640538  0.08195424  1
  N  N62  1  0.88715537  0.86896465  0.88758134  1
  N  N63  1  0.80109138  0.77774507  0.61757376  1
  N  N64  1  0.56054733  0.86896570  0.38758145  1
  N  N65  1  0.45863601  0.77718378  0.07567268  1
  N  N66  1  0.22026053  0.87245676  0.82774545  1
  N  N67  1  0.08084740  0.77718351  0.57567270  1
  N  N68  1  0.89099037  0.87232227  0.30974435  1
  N  N69  1  0.73783038  0.77774590  0.11757365  1
  N  N70  1  0.55335490  0.87232211  0.80974460  1
  N  N71  1  0.43412939  0.75640624  0.58195435  1
