# generated using pymatgen
data_Al17BN18
_symmetry_space_group_name_H-M   'P 1'
_cell_length_a   9.32689465
_cell_length_b   9.30295245
_cell_length_c   10.17005199
_cell_angle_alpha   89.49400084
_cell_angle_beta   89.99990826
_cell_angle_gamma   59.91487325
_symmetry_Int_Tables_number   1
_chemical_formula_structural   Al17BN18
_chemical_formula_sum   'Al34 B2 N36'
_cell_volume   763.51203380
_cell_formula_units_Z   2
loop_
 _symmetry_equiv_pos_site_id
 _symmetry_equiv_pos_as_xyz
  1  'x, y, z'
loop_
 _atom_site_type_symbol
 _atom_site_label
 _atom_site_symmetry_multiplicity
 _atom_site_fract_x
 _atom_site_fract_y
 _atom_site_fract_z
 _atom_site_occupancy
  Al  Al0  1  0.10778942  0.09560031  0.32222551  1
  Al  Al1  1  0.22061654  0.20427865  0.07470531  1
  Al  Al2  1  0.77589364  0.09349426  0.89910756  1
  Al  Al3  1  0.89176919  0.20427926  0.57470379  1
  Al  Al4  1  0.44727820  0.09349336  0.39910841  1
  Al  Al5  1  0.56065137  0.19167215  0.14558157  1
  Al  Al6  1  0.11327457  0.09560151  0.82222464  1
  Al  Al7  1  0.21251443  0.21275365  0.57316500  1
  Al  Al8  1  0.78023620  0.08038139  0.38748768  1
  Al  Al9  1  0.89139836  0.21275166  0.07316370  1
  Al  Al10  1  0.45605065  0.08038248  0.88748947  1
  Al  Al11  1  0.56434375  0.19167352  0.64558001  1
  Al  Al12  1  0.10917882  0.43032637  0.32071619  1
  Al  Al13  1  0.22503027  0.53876808  0.06750413  1
  Al  Al14  1  0.77715916  0.43032764  0.82071431  1
  Al  Al15  1  0.89060212  0.54604605  0.56930256  1
  Al  Al16  1  0.44028535  0.43251203  0.32215021  1
  Al  Al17  1  0.55710755  0.54253283  0.07309470  1
  Al  Al18  1  0.11225561  0.42736360  0.82272786  1
  Al  Al19  1  0.21702714  0.54253342  0.57309613  1
  Al  Al20  1  0.77704680  0.42736398  0.32272574  1
  Al  Al21  1  0.88001903  0.54604482  0.06930250  1
  Al  Al22  1  0.44386816  0.43251384  0.82214790  1
  Al  Al23  1  0.55286936  0.53877070  0.56750208  1
  Al  Al24  1  0.11498696  0.75918779  0.31517637  1
  Al  Al25  1  0.22833297  0.87541289  0.07029743  1
  Al  Al26  1  0.78492214  0.76298649  0.82219604  1
  Al  Al27  1  0.44511751  0.76618475  0.32854831  1
  Al  Al28  1  0.10536310  0.76618487  0.82854979  1
  Al  Al29  1  0.21292052  0.87541349  0.57029769  1
  Al  Al30  1  0.76875919  0.76298682  0.32219649  1
  Al  Al31  1  0.88641025  0.87244297  0.10607900  1
  Al  Al32  1  0.44249136  0.75919102  0.81517536  1
  Al  Al33  1  0.55781326  0.87244599  0.60607792  1
  B  B34  1  0.89216508  0.86960260  0.61111177  1
  B  B35  1  0.55490115  0.86960134  0.11111271  1
  N  N36  1  0.21409198  0.20943033  0.38125985  1
  N  N37  1  0.11079398  0.09507575  0.13495440  1
  N  N38  1  0.89314250  0.20943205  0.88125773  1
  N  N39  1  0.79436827  0.05871136  0.58624777  1
  N  N40  1  0.55740101  0.19813272  0.33360630  1
  N  N41  1  0.46358725  0.05871122  0.08624980  1
  N  N42  1  0.22210582  0.20683966  0.88580238  1
  N  N43  1  0.11079472  0.09507708  0.63495350  1
  N  N44  1  0.88772005  0.20684136  0.38580096  1
  N  N45  1  0.77246410  0.10342651  0.08674011  1
  N  N46  1  0.56113228  0.19813418  0.83360467  1
  N  N47  1  0.44077291  0.10342851  0.58673958  1
  N  N48  1  0.22070929  0.53968406  0.38514977  1
  N  N49  1  0.10871938  0.43205357  0.13129692  1
  N  N50  1  0.88891885  0.53999708  0.88157916  1
  N  N51  1  0.77589328  0.43205464  0.63129541  1
  N  N52  1  0.55425301  0.53872701  0.37960009  1
  N  N53  1  0.44321034  0.43043434  0.13132734  1
  N  N54  1  0.22368683  0.53872661  0.87960171  1
  N  N55  1  0.10867335  0.43027957  0.63480766  1
  N  N56  1  0.88774936  0.53999699  0.38157981  1
  N  N57  1  0.77771423  0.43027775  0.13480599  1
  N  N58  1  0.55627116  0.53968711  0.88514833  1
  N  N59  1  0.44302353  0.43043611  0.63132530  1
  N  N60  1  0.21967904  0.87270435  0.38220408  1
  N  N61  1  0.12571492  0.75649471  0.12786841  1
  N  N62  1  0.89317210  0.86336076  0.89625529  1
  N  N63  1  0.80216173  0.77319860  0.62697330  1
  N  N64  1  0.56013244  0.86336099  0.39625537  1
  N  N65  1  0.45731931  0.77743839  0.13151580  1
  N  N66  1  0.22428282  0.87270544  0.88220346  1
  N  N67  1  0.08190940  0.77743895  0.63151708  1
  N  N68  1  0.88771498  0.87131937  0.31992409  1
  N  N69  1  0.74130623  0.77319746  0.12697469  1
  N  N70  1  0.55763339  0.87132013  0.81992365  1
  N  N71  1  0.43445786  0.75649761  0.62786750  1
