# generated using pymatgen
data_Al17BN18
_symmetry_space_group_name_H-M   'P 1'
_cell_length_a   9.31732458
_cell_length_b   9.30960175
_cell_length_c   10.05541820
_cell_angle_alpha   89.77368450
_cell_angle_beta   90.00002411
_cell_angle_gamma   59.97253515
_symmetry_Int_Tables_number   1
_chemical_formula_structural   Al17BN18
_chemical_formula_sum   'Al34 B2 N36'
_cell_volume   755.14146292
_cell_formula_units_Z   2
loop_
 _symmetry_equiv_pos_site_id
 _symmetry_equiv_pos_as_xyz
  1  'x, y, z'
loop_
 _atom_site_type_symbol
 _atom_site_label
 _atom_site_symmetry_multiplicity
 _atom_site_fract_x
 _atom_site_fract_y
 _atom_site_fract_z
 _atom_site_occupancy
  Al  Al0  1  0.11280933  0.09448073  0.39736554  1
  Al  Al1  1  0.22748403  0.19869425  0.14495880  1
  Al  Al2  1  0.77724911  0.09715245  0.90145544  1
  Al  Al3  1  0.89048664  0.19869474  0.64495837  1
  Al  Al4  1  0.44226492  0.09715263  0.40145534  1
  Al  Al5  1  0.55792264  0.19890054  0.14801728  1
  Al  Al6  1  0.10937671  0.09447943  0.89736546  1
  Al  Al7  1  0.22042315  0.20719183  0.64996996  1
  Al  Al8  1  0.78026391  0.08818543  0.39023063  1
  Al  Al9  1  0.88905000  0.20719197  0.14997020  1
  Al  Al10  1  0.44821812  0.08818491  0.89023122  1
  Al  Al11  1  0.55984282  0.19890098  0.64801669  1
  Al  Al12  1  0.11159090  0.42680943  0.39552739  1
  Al  Al13  1  0.22504155  0.53774123  0.14988481  1
  Al  Al14  1  0.77826681  0.42680827  0.89552730  1
  Al  Al15  1  0.89245687  0.54104307  0.64349076  1
  Al  Al16  1  0.44599746  0.42689455  0.39706166  1
  Al  Al17  1  0.55778659  0.54282711  0.14457568  1
  Al  Al18  1  0.11111853  0.42945712  0.89703063  1
  Al  Al19  1  0.21605291  0.54282685  0.64457549  1
  Al  Al20  1  0.77609015  0.42945920  0.39703076  1
  Al  Al21  1  0.88316848  0.54104052  0.14348979  1
  Al  Al22  1  0.44377483  0.42689362  0.89706147  1
  Al  Al23  1  0.55388435  0.53774231  0.64988459  1
  Al  Al24  1  0.10607552  0.76420705  0.38918676  1
  Al  Al25  1  0.22947442  0.87430116  0.14818416  1
  Al  Al26  1  0.77682039  0.76610862  0.85755046  1
  Al  Al27  1  0.44282160  0.75902873  0.40211495  1
  Al  Al28  1  0.11481922  0.75902659  0.90211501  1
  Al  Al29  1  0.21289079  0.87430133  0.64818315  1
  Al  Al30  1  0.77373637  0.76611088  0.35754030  1
  Al  Al31  1  0.88492004  0.87453855  0.11935813  1
  Al  Al32  1  0.44638383  0.76420638  0.88918706  1
  Al  Al33  1  0.55721040  0.87453919  0.61936255  1
  B  B34  1  0.88936929  0.86914751  0.60333818  1
  B  B35  1  0.55814891  0.86914762  0.10333906  1
  N  N36  1  0.22345812  0.20522011  0.33409963  1
  N  N37  1  0.11007371  0.09527049  0.08703812  1
  N  N38  1  0.88798844  0.20521915  0.83409927  1
  N  N39  1  0.79258636  0.06346777  0.58668015  1
  N  N40  1  0.55514789  0.20458355  0.33750611  1
  N  N41  1  0.46061212  0.06346743  0.08668076  1
  N  N42  1  0.22168129  0.20613164  0.84021670  1
  N  N43  1  0.11132085  0.09527089  0.58703803  1
  N  N44  1  0.88885257  0.20613333  0.34021673  1
  N  N45  1  0.77424974  0.10510212  0.09017770  1
  N  N46  1  0.55693553  0.20458276  0.83750562  1
  N  N47  1  0.43731427  0.10510170  0.59017783  1
  N  N48  1  0.22303500  0.53852912  0.33972708  1
  N  N49  1  0.11147649  0.42872074  0.08717856  1
  N  N50  1  0.88984291  0.53664916  0.83474730  1
  N  N51  1  0.77646964  0.42872174  0.58717878  1
  N  N52  1  0.55474826  0.53997771  0.33426034  1
  N  N53  1  0.44545394  0.42570452  0.08750500  1
  N  N54  1  0.22194102  0.53997636  0.83426011  1
  N  N55  1  0.11109415  0.42691397  0.58481122  1
  N  N56  1  0.89017429  0.53665007  0.33474587  1
  N  N57  1  0.77865816  0.42691363  0.08481103  1
  N  N58  1  0.55510255  0.53852858  0.83972707  1
  N  N59  1  0.44550810  0.42570541  0.58750516  1
  N  N60  1  0.22322630  0.87256139  0.33763312  1
  N  N61  1  0.12413245  0.75688561  0.09156097  1
  N  N62  1  0.88981276  0.87151990  0.88701894  1
  N  N63  1  0.79901634  0.77491925  0.60858206  1
  N  N64  1  0.55533392  0.87152152  0.38701280  1
  N  N65  1  0.45896757  0.77651425  0.08592918  1
  N  N66  1  0.22087925  0.87256059  0.83763225  1
  N  N67  1  0.08118458  0.77651416  0.58592891  1
  N  N68  1  0.89072042  0.87307981  0.32073793  1
  N  N69  1  0.74273191  0.77491801  0.10858043  1
  N  N70  1  0.55286837  0.87307837  0.82074060  1
  N  N71  1  0.43564997  0.75688758  0.59156110  1
