# generated using pymatgen
data_Al17BN18
_symmetry_space_group_name_H-M   'P 1'
_cell_length_a   9.35625902
_cell_length_b   9.31620692
_cell_length_c   10.18397007
_cell_angle_alpha   89.43793333
_cell_angle_beta   89.99999658
_cell_angle_gamma   59.85769200
_symmetry_Int_Tables_number   1
_chemical_formula_structural   Al17BN18
_chemical_formula_sum   'Al34 B2 N36'
_cell_volume   767.60289339
_cell_formula_units_Z   2
loop_
 _symmetry_equiv_pos_site_id
 _symmetry_equiv_pos_as_xyz
  1  'x, y, z'
loop_
 _atom_site_type_symbol
 _atom_site_label
 _atom_site_symmetry_multiplicity
 _atom_site_fract_x
 _atom_site_fract_y
 _atom_site_fract_z
 _atom_site_occupancy
  Al  Al0  1  0.11214219  0.09388548  0.35060794  1
  Al  Al1  1  0.22994111  0.19670622  0.13641383  1
  Al  Al2  1  0.77573841  0.09765857  0.89861620  1
  Al  Al3  1  0.89001944  0.19670563  0.63641353  1
  Al  Al4  1  0.44326830  0.09765861  0.39861593  1
  Al  Al5  1  0.56116415  0.19148829  0.14503483  1
  Al  Al6  1  0.11063691  0.09388549  0.85060775  1
  Al  Al7  1  0.22728749  0.20310338  0.64409267  1
  Al  Al8  1  0.78207476  0.08232388  0.38997404  1
  Al  Al9  1  0.88627585  0.20310316  0.14409249  1
  Al  Al10  1  0.45226607  0.08232504  0.88997426  1
  Al  Al11  1  0.56401430  0.19148836  0.64503499  1
  Al  Al12  1  0.10790055  0.43656194  0.31858331  1
  Al  Al13  1  0.22472907  0.53895761  0.06651742  1
  Al  Al14  1  0.77220458  0.43656183  0.81858324  1
  Al  Al15  1  0.89291993  0.54396171  0.56807975  1
  Al  Al16  1  0.44144851  0.43187050  0.32150194  1
  Al  Al17  1  0.55729813  0.54182936  0.07160157  1
  Al  Al18  1  0.10747165  0.43580216  0.82417290  1
  Al  Al19  1  0.21754001  0.54182916  0.57160165  1
  Al  Al20  1  0.77339268  0.43580218  0.32417273  1
  Al  Al21  1  0.87978502  0.54396219  0.06807989  1
  Al  Al22  1  0.44334779  0.43187143  0.82150163  1
  Al  Al23  1  0.55298110  0.53895810  0.56651750  1
  Al  Al24  1  0.11404763  0.75963826  0.31306018  1
  Al  Al25  1  0.22930242  0.87253793  0.06894943  1
  Al  Al26  1  0.78257358  0.76579096  0.82124921  1
  Al  Al27  1  0.44632566  0.76624823  0.32663455  1
  Al  Al28  1  0.10409278  0.76624803  0.82663458  1
  Al  Al29  1  0.21482704  0.87253742  0.56894966  1
  Al  Al30  1  0.76830211  0.76579076  0.32124915  1
  Al  Al31  1  0.88646599  0.87132678  0.10079070  1
  Al  Al32  1  0.44298124  0.75963927  0.81306028  1
  Al  Al33  1  0.55887378  0.87132813  0.60079069  1
  B  B34  1  0.89259444  0.86895827  0.60895580  1
  B  B35  1  0.55511359  0.86895879  0.10895582  1
  N  N36  1  0.22994905  0.20252466  0.32805073  1
  N  N37  1  0.10878960  0.09476984  0.10847073  1
  N  N38  1  0.88419134  0.20252473  0.82805048  1
  N  N39  1  0.79435873  0.06075209  0.58397647  1
  N  N40  1  0.55947496  0.19745729  0.33359591  1
  N  N41  1  0.46155533  0.06075262  0.08397658  1
  N  N42  1  0.22857890  0.20313855  0.83888940  1
  N  N43  1  0.11310738  0.09476951  0.60847096  1
  N  N44  1  0.88494757  0.20313851  0.33888929  1
  N  N45  1  0.77213968  0.10489374  0.08268631  1
  N  N46  1  0.55973317  0.19745800  0.83359607  1
  N  N47  1  0.43963279  0.10489457  0.58268611  1
  N  N48  1  0.22191208  0.53986777  0.38425032  1
  N  N49  1  0.10529473  0.43781671  0.12748181  1
  N  N50  1  0.88643019  0.54083321  0.88110965  1
  N  N51  1  0.77355613  0.43781621  0.62748182  1
  N  N52  1  0.55317360  0.53980204  0.37951356  1
  N  N53  1  0.44294557  0.43035258  0.13077587  1
  N  N54  1  0.22369134  0.53980183  0.87951352  1
  N  N55  1  0.10759775  0.43519821  0.63426049  1
  N  N56  1  0.88940344  0.54083297  0.38110955  1
  N  N57  1  0.77387124  0.43519809  0.13426041  1
  N  N58  1  0.55488713  0.53986851  0.88425025  1
  N  N59  1  0.44336944  0.43035291  0.63077571  1
  N  N60  1  0.22330531  0.86691403  0.38042156  1
  N  N61  1  0.12463996  0.75654827  0.12678423  1
  N  N62  1  0.89231245  0.86458756  0.89573403  1
  N  N63  1  0.80172310  0.77448959  0.62579873  1
  N  N64  1  0.55976660  0.86458775  0.39573394  1
  N  N65  1  0.45738160  0.77791477  0.13039149  1
  N  N66  1  0.22644735  0.86691410  0.88042131  1
  N  N67  1  0.08137058  0.77791446  0.63039155  1
  N  N68  1  0.88763911  0.87235515  0.32125450  1
  N  N69  1  0.74045378  0.77448975  0.12579878  1
  N  N70  1  0.55667233  0.87235647  0.82125463  1
  N  N71  1  0.43547931  0.75654874  0.62678433  1
