# generated using pymatgen
data_Al17BN18
_symmetry_space_group_name_H-M   'P 1'
_cell_length_a   9.33043973
_cell_length_b   9.31248082
_cell_length_c   10.20624842
_cell_angle_alpha   89.44989298
_cell_angle_beta   89.96213906
_cell_angle_gamma   59.84493130
_symmetry_Int_Tables_number   1
_chemical_formula_structural   Al17BN18
_chemical_formula_sum   'Al34 B2 N36'
_cell_volume   766.75828825
_cell_formula_units_Z   2
loop_
 _symmetry_equiv_pos_site_id
 _symmetry_equiv_pos_as_xyz
  1  'x, y, z'
loop_
 _atom_site_type_symbol
 _atom_site_label
 _atom_site_symmetry_multiplicity
 _atom_site_fract_x
 _atom_site_fract_y
 _atom_site_fract_z
 _atom_site_occupancy
  Al  Al0  1  0.10532004  0.09166995  0.32134183  1
  Al  Al1  1  0.23123752  0.19801009  0.13785292  1
  Al  Al2  1  0.77353757  0.09334689  0.89888476  1
  Al  Al3  1  0.89373412  0.20461314  0.57359292  1
  Al  Al4  1  0.44032882  0.09838417  0.39919518  1
  Al  Al5  1  0.56190376  0.19197890  0.14626748  1
  Al  Al6  1  0.10779269  0.09116878  0.82371919  1
  Al  Al7  1  0.22853955  0.20453877  0.64612828  1
  Al  Al8  1  0.78005536  0.08019856  0.38829227  1
  Al  Al9  1  0.89043586  0.21325286  0.07132308  1
  Al  Al10  1  0.45014541  0.08311237  0.89044373  1
  Al  Al11  1  0.56600440  0.19083306  0.64516576  1
  Al  Al12  1  0.10746258  0.43573890  0.31998045  1
  Al  Al13  1  0.22508792  0.53907136  0.06679519  1
  Al  Al14  1  0.77603309  0.43096438  0.81951478  1
  Al  Al15  1  0.89229639  0.54477604  0.56853818  1
  Al  Al16  1  0.44144069  0.43216840  0.32198625  1
  Al  Al17  1  0.55679067  0.54262447  0.07231371  1
  Al  Al18  1  0.10713622  0.43538540  0.82557500  1
  Al  Al19  1  0.21764065  0.54208576  0.57212216  1
  Al  Al20  1  0.77741819  0.42754029  0.32195683  1
  Al  Al21  1  0.87909877  0.54653894  0.06841324  1
  Al  Al22  1  0.44393443  0.43198217  0.82141162  1
  Al  Al23  1  0.55359191  0.53854213  0.56702025  1
  Al  Al24  1  0.11539634  0.75884136  0.31406366  1
  Al  Al25  1  0.22795949  0.87467724  0.06849647  1
  Al  Al26  1  0.78219297  0.76514731  0.82134017  1
  Al  Al27  1  0.44569503  0.76658447  0.32824600  1
  Al  Al28  1  0.10504762  0.76546801  0.82727136  1
  Al  Al29  1  0.21353848  0.87465552  0.56944094  1
  Al  Al30  1  0.76781608  0.76456809  0.32188634  1
  Al  Al31  1  0.88685320  0.87208321  0.10520114  1
  Al  Al32  1  0.44282251  0.75975387  0.81416255  1
  Al  Al33  1  0.55887733  0.87173943  0.60111398  1
  B  B34  1  0.89258169  0.86926907  0.61063654  1
  B  B35  1  0.55454976  0.86941754  0.10964611  1
  N  N36  1  0.22729799  0.20261889  0.32961836  1
  N  N37  1  0.10732689  0.09157922  0.13125889  1
  N  N38  1  0.88960530  0.21043352  0.88054510  1
  N  N39  1  0.79492734  0.05857301  0.58554948  1
  N  N40  1  0.55809066  0.19783162  0.33402077  1
  N  N41  1  0.46098369  0.06106336  0.08438357  1
  N  N42  1  0.22713774  0.20333544  0.84057440  1
  N  N43  1  0.11018715  0.09154939  0.63387446  1
  N  N44  1  0.88809568  0.20727013  0.38585006  1
  N  N45  1  0.77202559  0.10294757  0.08552176  1
  N  N46  1  0.55953778  0.19754508  0.83289602  1
  N  N47  1  0.43945190  0.10512989  0.58293907  1
  N  N48  1  0.22170027  0.53980376  0.38503488  1
  N  N49  1  0.10504209  0.43802915  0.12801013  1
  N  N50  1  0.88545942  0.54200110  0.88170601  1
  N  N51  1  0.77666834  0.43198803  0.63068274  1
  N  N52  1  0.55479379  0.53903849  0.37940712  1
  N  N53  1  0.44325758  0.43053013  0.13164664  1
  N  N54  1  0.22423646  0.53933831  0.88017091  1
  N  N55  1  0.10721560  0.43528316  0.63465697  1
  N  N56  1  0.88788172  0.54018867  0.38134745  1
  N  N57  1  0.77736385  0.43036815  0.13452114  1
  N  N58  1  0.55548286  0.53994433  0.88463932  1
  N  N59  1  0.44385962  0.43005091  0.63097152  1
  N  N60  1  0.22042147  0.87115618  0.38220268  1
  N  N61  1  0.12594024  0.75617533  0.12764314  1
  N  N62  1  0.89295803  0.86301315  0.89539688  1
  N  N63  1  0.80152909  0.77371199  0.62639710  1
  N  N64  1  0.55923616  0.86525362  0.39651052  1
  N  N65  1  0.45681304  0.77828826  0.13112754  1
  N  N66  1  0.22450992  0.87013557  0.88184442  1
  N  N67  1  0.08235239  0.77691456  0.63096692  1
  N  N68  1  0.88799435  0.87153776  0.31954835  1
  N  N69  1  0.74006660  0.77451383  0.12684070  1
  N  N70  1  0.55580592  0.87332212  0.82169555  1
  N  N71  1  0.43557724  0.75654426  0.62722220  1
