# generated using pymatgen
data_Al17BN18
_symmetry_space_group_name_H-M   'P 1'
_cell_length_a   9.29831067
_cell_length_b   9.30054307
_cell_length_c   9.94034025
_cell_angle_alpha   89.96805172
_cell_angle_beta   90.00000636
_cell_angle_gamma   60.00794651
_symmetry_Int_Tables_number   1
_chemical_formula_structural   Al17BN18
_chemical_formula_sum   'Al34 B2 N36'
_cell_volume   744.52437882
_cell_formula_units_Z   2
loop_
 _symmetry_equiv_pos_site_id
 _symmetry_equiv_pos_as_xyz
  1  'x, y, z'
loop_
 _atom_site_type_symbol
 _atom_site_label
 _atom_site_symmetry_multiplicity
 _atom_site_fract_x
 _atom_site_fract_y
 _atom_site_fract_z
 _atom_site_occupancy
  Al  Al0  1  0.11140867  0.09418583  0.29889544  1
  Al  Al1  1  0.22546982  0.20047318  0.04898865  1
  Al  Al2  1  0.78044412  0.08888441  0.79461023  1
  Al  Al3  1  0.89072357  0.20047374  0.54898858  1
  Al  Al4  1  0.44733891  0.08888430  0.29461016  1
  Al  Al5  1  0.55883609  0.19949958  0.04926075  1
  Al  Al6  1  0.11107306  0.09418603  0.79889552  1
  Al  Al7  1  0.22433422  0.20438388  0.54905680  1
  Al  Al8  1  0.77890441  0.09180098  0.30596039  1
  Al  Al9  1  0.88794903  0.20438366  0.04905686  1
  Al  Al10  1  0.44596172  0.09180135  0.80596043  1
  Al  Al11  1  0.55833041  0.19949974  0.54926077  1
  Al  Al12  1  0.11134961  0.42779661  0.29839359  1
  Al  Al13  1  0.22088806  0.54067817  0.04858519  1
  Al  Al14  1  0.77752072  0.42779675  0.79839356  1
  Al  Al15  1  0.88985102  0.54420555  0.54887866  1
  Al  Al16  1  0.44406234  0.42773960  0.29916719  1
  Al  Al17  1  0.55709325  0.54238310  0.04907913  1
  Al  Al18  1  0.11071328  0.42785673  0.79920718  1
  Al  Al19  1  0.21719010  0.54238359  0.54907919  1
  Al  Al20  1  0.77809742  0.42785656  0.29920714  1
  Al  Al21  1  0.88261029  0.54420494  0.04887851  1
  Al  Al22  1  0.44486403  0.42773985  0.79916724  1
  Al  Al23  1  0.55510058  0.54067771  0.54858501  1
  Al  Al24  1  0.10848515  0.76232516  0.30585947  1
  Al  Al25  1  0.22433852  0.87299789  0.04934687  1
  Al  Al26  1  0.77770381  0.76510135  0.80130661  1
  Al  Al27  1  0.44713876  0.76412277  0.29509781  1
  Al  Al28  1  0.10540415  0.76412338  0.79509770  1
  Al  Al29  1  0.21932982  0.87299868  0.54934690  1
  Al  Al30  1  0.77386076  0.76510129  0.30130663  1
  Al  Al31  1  0.88330482  0.87368245  0.05072152  1
  Al  Al32  1  0.44585573  0.76232512  0.80585929  1
  Al  Al33  1  0.55967873  0.87368278  0.55072155  1
  B  B34  1  0.88803438  0.87237666  0.54640852  1
  B  B35  1  0.55625566  0.87237621  0.04640853  1
  N  N36  1  0.22471853  0.20436628  0.35623978  1
  N  N37  1  0.11021956  0.09439018  0.10813604  1
  N  N38  1  0.88758260  0.20436631  0.85623974  1
  N  N39  1  0.79022527  0.06926767  0.60045731  1
  N  N40  1  0.55373215  0.20451762  0.35749341  1
  N  N41  1  0.45717399  0.06926720  0.10045739  1
  N  N42  1  0.22159618  0.20565884  0.85894481  1
  N  N43  1  0.11205695  0.09439072  0.60813610  1
  N  N44  1  0.88941252  0.20565856  0.35894463  1
  N  N45  1  0.77878210  0.09278512  0.11386235  1
  N  N46  1  0.55841731  0.20451781  0.85749341  1
  N  N47  1  0.44509934  0.09278520  0.61386255  1
  N  N48  1  0.22225528  0.53839866  0.35883364  1
  N  N49  1  0.11037974  0.42776428  0.10679275  1
  N  N50  1  0.88739059  0.54084183  0.85697639  1
  N  N51  1  0.77852262  0.42776455  0.60679274  1
  N  N52  1  0.55438128  0.54124474  0.35624041  1
  N  N53  1  0.44461352  0.42728937  0.10718980  1
  N  N54  1  0.22104031  0.54124545  0.85624058  1
  N  N55  1  0.11146087  0.42675449  0.60816357  1
  N  N56  1  0.88843460  0.54084184  0.35697648  1
  N  N57  1  0.77845157  0.42675413  0.10816356  1
  N  N58  1  0.55601275  0.53839854  0.85883351  1
  N  N59  1  0.44476343  0.42728944  0.60718984  1
  N  N60  1  0.22479098  0.87124770  0.35756625  1
  N  N61  1  0.10835776  0.76250077  0.11276379  1
  N  N62  1  0.88893326  0.87267923  0.86253528  1
  N  N63  1  0.78914046  0.77429583  0.60514828  1
  N  N64  1  0.55505361  0.87267914  0.36253530  1
  N  N65  1  0.45654105  0.77398563  0.10073633  1
  N  N66  1  0.22062760  0.87124781  0.85756622  1
  N  N67  1  0.08613953  0.77398621  0.60073627  1
  N  N68  1  0.88773277  0.87137395  0.37898892  1
  N  N69  1  0.75323021  0.77429538  0.10514826  1
  N  N70  1  0.55755948  0.87137399  0.87898890  1
  N  N71  1  0.44580782  0.76250071  0.61276359  1
