# generated using pymatgen
data_Al17BN18
_symmetry_space_group_name_H-M   'P 1'
_cell_length_a   9.29829084
_cell_length_b   9.30051807
_cell_length_c   9.94038719
_cell_angle_alpha   90.03182016
_cell_angle_beta   89.99999522
_cell_angle_gamma   60.00792738
_symmetry_Int_Tables_number   1
_chemical_formula_structural   Al17BN18
_chemical_formula_sum   'Al34 B2 N36'
_cell_volume   744.52416289
_cell_formula_units_Z   2
loop_
 _symmetry_equiv_pos_site_id
 _symmetry_equiv_pos_as_xyz
  1  'x, y, z'
loop_
 _atom_site_type_symbol
 _atom_site_label
 _atom_site_symmetry_multiplicity
 _atom_site_fract_x
 _atom_site_fract_y
 _atom_site_fract_z
 _atom_site_occupancy
  Al  Al0  1  0.11109445  0.09414383  0.39803981  1
  Al  Al1  1  0.22549218  0.20043032  0.14794570  1
  Al  Al2  1  0.77892580  0.09175839  0.89097112  1
  Al  Al3  1  0.89074405  0.20043088  0.64794578  1
  Al  Al4  1  0.44598295  0.09175874  0.39097108  1
  Al  Al5  1  0.55885658  0.19945655  0.14767125  1
  Al  Al6  1  0.11142948  0.09414366  0.89803987  1
  Al  Al7  1  0.22435464  0.20434185  0.64787807  1
  Al  Al8  1  0.78046567  0.08884148  0.40231437  1
  Al  Al9  1  0.88797064  0.20434161  0.14787804  1
  Al  Al10  1  0.44736027  0.08884136  0.90231441  1
  Al  Al11  1  0.55835290  0.19945674  0.64767125  1
  Al  Al12  1  0.11073463  0.42781446  0.39772878  1
  Al  Al13  1  0.22090999  0.54063513  0.14834843  1
  Al  Al14  1  0.77811838  0.42781428  0.89772881  1
  Al  Al15  1  0.88987185  0.54416330  0.64805549  1
  Al  Al16  1  0.44488523  0.42769731  0.39776774  1
  Al  Al17  1  0.55711423  0.54234172  0.14785475  1
  Al  Al18  1  0.11137058  0.42775463  0.89854157  1
  Al  Al19  1  0.21721051  0.54234224  0.64785468  1
  Al  Al20  1  0.77754179  0.42775472  0.39854165  1
  Al  Al21  1  0.88263174  0.54416265  0.14805563  1
  Al  Al22  1  0.44408367  0.42769705  0.89776779  1
  Al  Al23  1  0.55512171  0.54063465  0.64834858  1
  Al  Al24  1  0.10542543  0.76408092  0.40182626  1
  Al  Al25  1  0.22436143  0.87295562  0.14758460  1
  Al  Al26  1  0.77388178  0.76505913  0.89562072  1
  Al  Al27  1  0.44587696  0.76228287  0.39107108  1
  Al  Al28  1  0.10850622  0.76228294  0.89107089  1
  Al  Al29  1  0.21934921  0.87295643  0.64758460  1
  Al  Al30  1  0.77772497  0.76505919  0.39562070  1
  Al  Al31  1  0.88332610  0.87363955  0.14620255  1
  Al  Al32  1  0.44716000  0.76408026  0.90182613  1
  Al  Al33  1  0.55970040  0.87363988  0.64620253  1
  B  B34  1  0.88805599  0.87233502  0.65051551  1
  B  B35  1  0.55627572  0.87233455  0.15051550  1
  N  N36  1  0.22161722  0.20561686  0.33798782  1
  N  N37  1  0.11024070  0.09434862  0.08879665  1
  N  N38  1  0.88943347  0.20561658  0.83798799  1
  N  N39  1  0.79024679  0.06922504  0.59646800  1
  N  N40  1  0.55843732  0.20447604  0.33943631  1
  N  N41  1  0.45719509  0.06922455  0.09646790  1
  N  N42  1  0.22473819  0.20432480  0.84069184  1
  N  N43  1  0.11207734  0.09434917  0.58879660  1
  N  N44  1  0.88760445  0.20432480  0.34069192  1
  N  N45  1  0.77880275  0.09274452  0.08306733  1
  N  N46  1  0.55375388  0.20447585  0.83943631  1
  N  N47  1  0.44511928  0.09274460  0.58306714  1
  N  N48  1  0.22106240  0.54120159  0.34069016  1
  N  N49  1  0.11040117  0.42772189  0.09013976  1
  N  N50  1  0.88845597  0.54079869  0.83995522  1
  N  N51  1  0.77854361  0.42772216  0.59013980  1
  N  N52  1  0.55603395  0.53835593  0.33809859  1
  N  N53  1  0.44463517  0.42724700  0.08974237  1
  N  N54  1  0.22227670  0.53835610  0.83809845  1
  N  N55  1  0.11148168  0.42671250  0.58876991  1
  N  N56  1  0.88741241  0.54079864  0.33995530  1
  N  N57  1  0.77847277  0.42671212  0.08876990  1
  N  N58  1  0.55440307  0.54120083  0.84069033  1
  N  N59  1  0.44478413  0.42724708  0.58974232  1
  N  N60  1  0.22064917  0.87120659  0.33936299  1
  N  N61  1  0.10838079  0.76245779  0.08416500  1
  N  N62  1  0.88775437  0.87133205  0.81793793  1
  N  N63  1  0.78916245  0.77425298  0.59177773  1
  N  N64  1  0.55757981  0.87133208  0.31793795  1
  N  N65  1  0.45656265  0.77394328  0.09618856  1
  N  N66  1  0.22481069  0.87120648  0.83936298  1
  N  N67  1  0.08616028  0.77394390  0.59618864  1
  N  N68  1  0.88895442  0.87263638  0.33438811  1
  N  N69  1  0.75325110  0.77425251  0.09177776  1
  N  N70  1  0.55507533  0.87263627  0.83438812  1
  N  N71  1  0.44582779  0.76245774  0.58416522  1
