# generated using pymatgen
data_Al17BN18
_symmetry_space_group_name_H-M   'P 1'
_cell_length_a   9.34002679
_cell_length_b   9.34199236
_cell_length_c   10.19863500
_cell_angle_alpha   89.69994784
_cell_angle_beta   89.97054272
_cell_angle_gamma   59.90430925
_symmetry_Int_Tables_number   1
_chemical_formula_structural   Al17BN18
_chemical_formula_sum   'Al34 B2 N36'
_cell_volume   769.89852431
_cell_formula_units_Z   2
loop_
 _symmetry_equiv_pos_site_id
 _symmetry_equiv_pos_as_xyz
  1  'x, y, z'
loop_
 _atom_site_type_symbol
 _atom_site_label
 _atom_site_symmetry_multiplicity
 _atom_site_fract_x
 _atom_site_fract_y
 _atom_site_fract_z
 _atom_site_occupancy
  Al  Al0  1  0.11167685  0.09490978  0.39052724  1
  Al  Al1  1  0.23026372  0.19341060  0.13615822  1
  Al  Al2  1  0.77724979  0.09768809  0.89544819  1
  Al  Al3  1  0.89317227  0.19298983  0.63667078  1
  Al  Al4  1  0.44237762  0.09679152  0.39559561  1
  Al  Al5  1  0.55936602  0.19708347  0.14155591  1
  Al  Al6  1  0.10839650  0.09588691  0.89074388  1
  Al  Al7  1  0.22306054  0.19890208  0.64227628  1
  Al  Al8  1  0.78098045  0.08489971  0.38218776  1
  Al  Al9  1  0.89329765  0.20050573  0.14342575  1
  Al  Al10  1  0.45068366  0.08535460  0.88305637  1
  Al  Al11  1  0.55979799  0.19650037  0.64235501  1
  Al  Al12  1  0.10464162  0.43111656  0.31923596  1
  Al  Al13  1  0.22679376  0.53988137  0.12783374  1
  Al  Al14  1  0.77471305  0.43465497  0.81560784  1
  Al  Al15  1  0.89114011  0.54524181  0.56327801  1
  Al  Al16  1  0.44514441  0.41966889  0.38868398  1
  Al  Al17  1  0.56411316  0.53909971  0.06949281  1
  Al  Al18  1  0.10612682  0.43348715  0.81992711  1
  Al  Al19  1  0.21758058  0.54346909  0.61718695  1
  Al  Al20  1  0.77307021  0.43541653  0.31993201  1
  Al  Al21  1  0.88083436  0.54506364  0.06398496  1
  Al  Al22  1  0.44234427  0.42289263  0.88623702  1
  Al  Al23  1  0.56069036  0.53387882  0.57164985  1
  Al  Al24  1  0.10355476  0.76662310  0.37836720  1
  Al  Al25  1  0.23217925  0.87391553  0.14104736  1
  Al  Al26  1  0.78606128  0.76577336  0.81503563  1
  Al  Al27  1  0.43900738  0.76752896  0.39539579  1
  Al  Al28  1  0.11360504  0.76106552  0.89506578  1
  Al  Al29  1  0.21197495  0.87364256  0.64219823  1
  Al  Al30  1  0.76584568  0.76598838  0.31347592  1
  Al  Al31  1  0.88472098  0.87550242  0.10628251  1
  Al  Al32  1  0.44457248  0.76961396  0.87462406  1
  Al  Al33  1  0.55671243  0.87487654  0.60943887  1
  B  B34  1  0.89029346  0.87032354  0.59570575  1
  B  B35  1  0.55565713  0.87062715  0.09609335  1
  N  N36  1  0.22655117  0.19817116  0.32577761  1
  N  N37  1  0.11067774  0.09466266  0.07770119  1
  N  N38  1  0.89022393  0.20003719  0.82538319  1
  N  N39  1  0.79172634  0.06219281  0.57824205  1
  N  N40  1  0.55624512  0.20098698  0.32813532  1
  N  N41  1  0.46260543  0.06280829  0.07820107  1
  N  N42  1  0.22522611  0.20014969  0.83346975  1
  N  N43  1  0.11128110  0.09325903  0.57744012  1
  N  N44  1  0.89070656  0.20069175  0.33360665  1
  N  N45  1  0.77381665  0.10704369  0.08125347  1
  N  N46  1  0.55855088  0.20185801  0.82881576  1
  N  N47  1  0.43701288  0.10518829  0.58139845  1
  N  N48  1  0.22239793  0.53973580  0.34642149  1
  N  N49  1  0.10404113  0.43290558  0.12551352  1
  N  N50  1  0.88592807  0.54258890  0.87775152  1
  N  N51  1  0.77836199  0.43372753  0.62701795  1
  N  N52  1  0.55804950  0.53697361  0.37756609  1
  N  N53  1  0.44639771  0.41932214  0.07991945  1
  N  N54  1  0.22329794  0.54433075  0.83237857  1
  N  N55  1  0.10432312  0.42895265  0.62694101  1
  N  N56  1  0.88612838  0.54336189  0.37769545  1
  N  N57  1  0.77827258  0.43297962  0.13153471  1
  N  N58  1  0.55939159  0.53793151  0.87869312  1
  N  N59  1  0.44711302  0.41764878  0.58067002  1
  N  N60  1  0.22333304  0.87332644  0.32800371  1
  N  N61  1  0.12524097  0.76013838  0.08328395  1
  N  N62  1  0.88596753  0.86986567  0.88969767  1
  N  N63  1  0.80251313  0.77452227  0.62139635  1
  N  N64  1  0.56139387  0.87004873  0.38733630  1
  N  N65  1  0.45769962  0.78181627  0.07677583  1
  N  N66  1  0.21833720  0.87461874  0.82878467  1
  N  N67  1  0.07912892  0.77951529  0.57557305  1
  N  N68  1  0.89014162  0.87239076  0.31033632  1
  N  N69  1  0.74033380  0.77489462  0.12052603  1
  N  N70  1  0.55513028  0.87288981  0.81075579  1
  N  N71  1  0.43188343  0.76192870  0.58678423  1
