# generated using pymatgen
data_Al17BN18
_symmetry_space_group_name_H-M   'P 1'
_cell_length_a   9.32621687
_cell_length_b   9.32564782
_cell_length_c   9.98881292
_cell_angle_alpha   89.95554364
_cell_angle_beta   89.96040142
_cell_angle_gamma   60.01991261
_symmetry_Int_Tables_number   1
_chemical_formula_structural   Al17BN18
_chemical_formula_sum   'Al34 B2 N36'
_cell_volume   752.51642131
_cell_formula_units_Z   2
loop_
 _symmetry_equiv_pos_site_id
 _symmetry_equiv_pos_as_xyz
  1  'x, y, z'
loop_
 _atom_site_type_symbol
 _atom_site_label
 _atom_site_symmetry_multiplicity
 _atom_site_fract_x
 _atom_site_fract_y
 _atom_site_fract_z
 _atom_site_occupancy
  Al  Al0  1  0.10987929  0.09514638  0.30930749  1
  Al  Al1  1  0.22827081  0.19762389  0.06109944  1
  Al  Al2  1  0.78342315  0.08699757  0.80779450  1
  Al  Al3  1  0.89089559  0.20139965  0.56193631  1
  Al  Al4  1  0.44441118  0.08812709  0.32957618  1
  Al  Al5  1  0.55828793  0.19755823  0.10699780  1
  Al  Al6  1  0.11299356  0.09323888  0.81186047  1
  Al  Al7  1  0.21744953  0.20843197  0.56015727  1
  Al  Al8  1  0.78374698  0.09009767  0.32265486  1
  Al  Al9  1  0.88872291  0.20440818  0.05967472  1
  Al  Al10  1  0.44532906  0.09176308  0.80724894  1
  Al  Al11  1  0.55971162  0.20230938  0.58834740  1
  Al  Al12  1  0.11082094  0.42832966  0.30896860  1
  Al  Al13  1  0.22096157  0.54058547  0.05893839  1
  Al  Al14  1  0.77688877  0.42929600  0.81124370  1
  Al  Al15  1  0.89104215  0.54290346  0.56010022  1
  Al  Al16  1  0.44080198  0.43297870  0.31403454  1
  Al  Al17  1  0.55834439  0.54319469  0.06089893  1
  Al  Al18  1  0.11154381  0.42727070  0.81259838  1
  Al  Al19  1  0.21497154  0.54396407  0.56099057  1
  Al  Al20  1  0.77855699  0.42741976  0.31062459  1
  Al  Al21  1  0.88174082  0.54447538  0.06109316  1
  Al  Al22  1  0.44424589  0.43013876  0.81099816  1
  Al  Al23  1  0.55441738  0.54017593  0.55837932  1
  Al  Al24  1  0.10833678  0.76224162  0.31547851  1
  Al  Al25  1  0.22525660  0.87341023  0.06156850  1
  Al  Al26  1  0.78096654  0.76372482  0.80526659  1
  Al  Al27  1  0.44634068  0.76375048  0.31678827  1
  Al  Al28  1  0.10611812  0.76402309  0.80768451  1
  Al  Al29  1  0.21543855  0.87400800  0.55933622  1
  Al  Al30  1  0.77491917  0.76470691  0.32381692  1
  Al  Al31  1  0.88184834  0.87400083  0.06252244  1
  Al  Al32  1  0.44475320  0.76100691  0.80822370  1
  Al  Al33  1  0.55964180  0.87089755  0.57748170  1
  B  B34  1  0.89198432  0.86884323  0.55738052  1
  B  B35  1  0.55564507  0.87190600  0.10518295  1
  N  N36  1  0.21835674  0.20737320  0.36922855  1
  N  N37  1  0.11065968  0.09444372  0.11949082  1
  N  N38  1  0.88900635  0.20461946  0.86859952  1
  N  N39  1  0.79484686  0.06699502  0.61125243  1
  N  N40  1  0.55480799  0.20603118  0.35172417  1
  N  N41  1  0.45793831  0.06173623  0.12437401  1
  N  N42  1  0.22464591  0.20418172  0.87170158  1
  N  N43  1  0.11110078  0.09443868  0.62147641  1
  N  N44  1  0.89018753  0.20693469  0.37231452  1
  N  N45  1  0.78548251  0.08968019  0.12842841  1
  N  N46  1  0.55843647  0.20454533  0.84272562  1
  N  N47  1  0.43761054  0.09877723  0.61203357  1
  N  N48  1  0.21975118  0.53982167  0.37107068  1
  N  N49  1  0.11143391  0.42689319  0.11817263  1
  N  N50  1  0.88820719  0.54139317  0.87045273  1
  N  N51  1  0.77709062  0.42926856  0.61953025  1
  N  N52  1  0.55604131  0.53990576  0.36780587  1
  N  N53  1  0.44262642  0.43189676  0.12066333  1
  N  N54  1  0.22110144  0.54154397  0.86826985  1
  N  N55  1  0.11019934  0.42792168  0.62184416  1
  N  N56  1  0.88951182  0.53883068  0.36885278  1
  N  N57  1  0.77879931  0.42636489  0.12019567  1
  N  N58  1  0.55508342  0.54039354  0.87195881  1
  N  N59  1  0.44058431  0.43362233  0.61706161  1
  N  N60  1  0.22163615  0.87308828  0.36799850  1
  N  N61  1  0.10845788  0.76190008  0.12357469  1
  N  N62  1  0.88983741  0.87063639  0.87549561  1
  N  N63  1  0.79733120  0.77116204  0.61118708  1
  N  N64  1  0.55680741  0.86857238  0.38409634  1
  N  N65  1  0.45961659  0.77562761  0.12038497  1
  N  N66  1  0.22239757  0.87002383  0.87079229  1
  N  N67  1  0.08613479  0.77414229  0.61312979  1
  N  N68  1  0.89078213  0.87062021  0.39086339  1
  N  N69  1  0.74827794  0.77678613  0.12513945  1
  N  N70  1  0.55900661  0.86917124  0.83726400  1
  N  N71  1  0.43814334  0.75901090  0.61691556  1
