# generated using pymatgen
data_Al17BN18
_symmetry_space_group_name_H-M   'P 1'
_cell_length_a   9.31731943
_cell_length_b   9.31005218
_cell_length_c   10.05741183
_cell_angle_alpha   89.76352218
_cell_angle_beta   90.00002601
_cell_angle_gamma   59.97417055
_symmetry_Int_Tables_number   1
_chemical_formula_structural   Al17BN18
_chemical_formula_sum   'Al34 B2 N36'
_cell_volume   755.33904716
_cell_formula_units_Z   2
loop_
 _symmetry_equiv_pos_site_id
 _symmetry_equiv_pos_as_xyz
  1  'x, y, z'
loop_
 _atom_site_type_symbol
 _atom_site_label
 _atom_site_symmetry_multiplicity
 _atom_site_fract_x
 _atom_site_fract_y
 _atom_site_fract_z
 _atom_site_occupancy
  Al  Al0  1  0.11280417  0.09447970  0.39738329  1
  Al  Al1  1  0.22752490  0.19865034  0.14497340  1
  Al  Al2  1  0.77714813  0.09729227  0.90163334  1
  Al  Al3  1  0.89048973  0.19865084  0.64497295  1
  Al  Al4  1  0.44222595  0.09729257  0.40163328  1
  Al  Al5  1  0.55792809  0.19892851  0.14806440  1
  Al  Al6  1  0.10938294  0.09447840  0.89738323  1
  Al  Al7  1  0.22042895  0.20717999  0.65004822  1
  Al  Al8  1  0.78033374  0.08806814  0.39029674  1
  Al  Al9  1  0.88905608  0.20718015  0.15004847  1
  Al  Al10  1  0.44826557  0.08806760  0.89029732  1
  Al  Al11  1  0.55980940  0.19892896  0.64806381  1
  Al  Al12  1  0.11155557  0.42686725  0.39552204  1
  Al  Al13  1  0.22509351  0.53772774  0.14994477  1
  Al  Al14  1  0.77824431  0.42686603  0.89552197  1
  Al  Al15  1  0.89268735  0.54047902  0.64330586  1
  Al  Al16  1  0.44601602  0.42688750  0.39707871  1
  Al  Al17  1  0.55778554  0.54281603  0.14457524  1
  Al  Al18  1  0.11107081  0.42946075  0.89703820  1
  Al  Al19  1  0.21606514  0.54281574  0.64457503  1
  Al  Al20  1  0.77613425  0.42946290  0.39703832  1
  Al  Al21  1  0.88350216  0.54047651  0.14330501  1
  Al  Al22  1  0.44376336  0.42688656  0.89707854  1
  Al  Al23  1  0.55384591  0.53772885  0.64994454  1
  Al  Al24  1  0.10598554  0.76420610  0.38924959  1
  Al  Al25  1  0.22950193  0.87429692  0.14824684  1
  Al  Al26  1  0.77774660  0.76668877  0.85118098  1
  Al  Al27  1  0.44279119  0.75895503  0.40229034  1
  Al  Al28  1  0.11492326  0.75895289  0.90229036  1
  Al  Al29  1  0.21286760  0.87429709  0.64824581  1
  Al  Al30  1  0.77222933  0.76669144  0.35117112  1
  Al  Al31  1  0.88501742  0.87459243  0.11863879  1
  Al  Al32  1  0.44647473  0.76420540  0.88924990  1
  Al  Al33  1  0.55705915  0.87459307  0.61864295  1
  B  B34  1  0.88937943  0.86918384  0.60355667  1
  B  B35  1  0.55810240  0.86918401  0.10355745  1
  N  N36  1  0.22352422  0.20517515  0.33409499  1
  N  N37  1  0.11007314  0.09527269  0.08705629  1
  N  N38  1  0.88796734  0.20517416  0.83409464  1
  N  N39  1  0.79257815  0.06342704  0.58673336  1
  N  N40  1  0.55517211  0.20455267  0.33752810  1
  N  N41  1  0.46066103  0.06342672  0.08673393  1
  N  N42  1  0.22167923  0.20614274  0.84025666  1
  N  N43  1  0.11131926  0.09527309  0.58705618  1
  N  N44  1  0.88884356  0.20614447  0.34025671  1
  N  N45  1  0.77416407  0.10530236  0.09025615  1
  N  N46  1  0.55694218  0.20455186  0.83752761  1
  N  N47  1  0.43719967  0.10530199  0.59025634  1
  N  N48  1  0.22306843  0.53852247  0.33974996  1
  N  N49  1  0.11159715  0.42865310  0.08714932  1
  N  N50  1  0.88994806  0.53636440  0.83476538  1
  N  N51  1  0.77641661  0.42865413  0.58714956  1
  N  N52  1  0.55476886  0.54002258  0.33424762  1
  N  N53  1  0.44545640  0.42569429  0.08750661  1
  N  N54  1  0.22187561  0.54002120  0.83424739  1
  N  N55  1  0.11116164  0.42688068  0.58474703  1
  N  N56  1  0.89035380  0.53636555  0.33476406  1
  N  N57  1  0.77862399  0.42688038  0.08474683  1
  N  N58  1  0.55507582  0.53852195  0.83974996  1
  N  N59  1  0.44551592  0.42569516  0.58750675  1
  N  N60  1  0.22329171  0.87255622  0.33767468  1
  N  N61  1  0.12437566  0.75679108  0.09164126  1
  N  N62  1  0.88958604  0.87137762  0.88862641  1
  N  N63  1  0.79911879  0.77521483  0.61274877  1
  N  N64  1  0.55570282  0.87137936  0.38862066  1
  N  N65  1  0.45903331  0.77651904  0.08598825  1
  N  N66  1  0.22081903  0.87255543  0.83767382  1
  N  N67  1  0.08111403  0.77651897  0.58598800  1
  N  N68  1  0.89092138  0.87323058  0.32091264  1
  N  N69  1  0.74233390  0.77521372  0.11274746  1
  N  N70  1  0.55251648  0.87322917  0.82091521  1
  N  N71  1  0.43550127  0.75679301  0.59164142  1
