# generated using pymatgen
data_Al17BN18
_symmetry_space_group_name_H-M   'P 1'
_cell_length_a   9.33471500
_cell_length_b   9.31450534
_cell_length_c   10.08153617
_cell_angle_alpha   89.74730987
_cell_angle_beta   89.98503547
_cell_angle_gamma   59.91473756
_symmetry_Int_Tables_number   1
_chemical_formula_structural   Al17BN18
_chemical_formula_sum   'Al34 B2 N36'
_cell_volume   758.47122123
_cell_formula_units_Z   2
loop_
 _symmetry_equiv_pos_site_id
 _symmetry_equiv_pos_as_xyz
  1  'x, y, z'
loop_
 _atom_site_type_symbol
 _atom_site_label
 _atom_site_symmetry_multiplicity
 _atom_site_fract_x
 _atom_site_fract_y
 _atom_site_fract_z
 _atom_site_occupancy
  Al  Al0  1  0.11296273  0.09436340  0.38756624  1
  Al  Al1  1  0.22689287  0.19905597  0.13501298  1
  Al  Al2  1  0.77656617  0.09618080  0.89268412  1
  Al  Al3  1  0.89071547  0.19924084  0.63546655  1
  Al  Al4  1  0.44376701  0.09616946  0.39261721  1
  Al  Al5  1  0.55784245  0.19939874  0.13819612  1
  Al  Al6  1  0.10912406  0.09441624  0.88757660  1
  Al  Al7  1  0.22022144  0.20750804  0.64076127  1
  Al  Al8  1  0.78114235  0.08513713  0.37924640  1
  Al  Al9  1  0.88886854  0.20767747  0.14101355  1
  Al  Al10  1  0.45035192  0.08505465  0.87911040  1
  Al  Al11  1  0.55947534  0.19932484  0.63821614  1
  Al  Al12  1  0.11753641  0.42397951  0.38313957  1
  Al  Al13  1  0.22603874  0.53780867  0.14035186  1
  Al  Al14  1  0.77483592  0.42394583  0.88446064  1
  Al  Al15  1  0.88844274  0.54963172  0.57030282  1
  Al  Al16  1  0.44657284  0.42661805  0.38750388  1
  Al  Al17  1  0.55725384  0.54274185  0.13533062  1
  Al  Al18  1  0.11583773  0.42698716  0.88512469  1
  Al  Al19  1  0.21697545  0.54268266  0.63499373  1
  Al  Al20  1  0.77363808  0.42680421  0.38609686  1
  Al  Al21  1  0.87905927  0.54966697  0.07043630  1
  Al  Al22  1  0.44336054  0.42668917  0.88751050  1
  Al  Al23  1  0.55324210  0.53758606  0.64071025  1
  Al  Al24  1  0.10486794  0.76443994  0.37774160  1
  Al  Al25  1  0.22919204  0.87492915  0.13834700  1
  Al  Al26  1  0.78499653  0.76466868  0.81336212  1
  Al  Al27  1  0.44324880  0.75899457  0.39334442  1
  Al  Al28  1  0.11416457  0.75921025  0.89321683  1
  Al  Al29  1  0.21264409  0.87485225  0.63833606  1
  Al  Al30  1  0.76679738  0.76468801  0.31345165  1
  Al  Al31  1  0.88591497  0.87564945  0.10501174  1
  Al  Al32  1  0.44728592  0.76441304  0.87772827  1
  Al  Al33  1  0.55520686  0.87548932  0.60478419  1
  B  B34  1  0.89144766  0.87121924  0.59418561  1
  B  B35  1  0.55418437  0.87111743  0.09415032  1
  N  N36  1  0.22545436  0.20290236  0.32350238  1
  N  N37  1  0.10951881  0.09594973  0.07696785  1
  N  N38  1  0.88796765  0.20323443  0.82388646  1
  N  N39  1  0.79322465  0.06289537  0.57692971  1
  N  N40  1  0.55553262  0.20401096  0.32752509  1
  N  N41  1  0.46076244  0.06277014  0.07674677  1
  N  N42  1  0.22270052  0.20448900  0.83021545  1
  N  N43  1  0.11115917  0.09590054  0.57698523  1
  N  N44  1  0.88925533  0.20462232  0.33037494  1
  N  N45  1  0.77348913  0.10663341  0.08062767  1
  N  N46  1  0.55694704  0.20406080  0.82755375  1
  N  N47  1  0.43672858  0.10651058  0.58054440  1
  N  N48  1  0.22489146  0.53852228  0.32920741  1
  N  N49  1  0.11633026  0.42683568  0.07864821  1
  N  N50  1  0.88565132  0.54338928  0.86739080  1
  N  N51  1  0.77378362  0.42679004  0.57867485  1
  N  N52  1  0.55384233  0.54062901  0.32397483  1
  N  N53  1  0.44549555  0.42569337  0.07739279  1
  N  N54  1  0.22212892  0.54084173  0.82374839  1
  N  N55  1  0.11676894  0.42482765  0.57603916  1
  N  N56  1  0.88729547  0.54331896  0.36726882  1
  N  N57  1  0.77527476  0.42494289  0.07621746  1
  N  N58  1  0.55334812  0.53841579  0.82949070  1
  N  N59  1  0.44591748  0.42557647  0.57739328  1
  N  N60  1  0.22404317  0.87240843  0.32759314  1
  N  N61  1  0.12602228  0.75659069  0.08177157  1
  N  N62  1  0.88674097  0.86860663  0.88721157  1
  N  N63  1  0.80185499  0.77650180  0.61913722  1
  N  N64  1  0.56108580  0.86855603  0.38731209  1
  N  N65  1  0.45879154  0.77708761  0.07562417  1
  N  N66  1  0.22008149  0.87249820  0.82756592  1
  N  N67  1  0.08090362  0.77713176  0.57555147  1
  N  N68  1  0.89107708  0.87176146  0.30968654  1
  N  N69  1  0.73845207  0.77647645  0.11927333  1
  N  N70  1  0.55367606  0.87172802  0.80953320  1
  N  N71  1  0.43425816  0.75628819  0.58190737  1
