# generated using pymatgen
data_Al17BN18
_symmetry_space_group_name_H-M   'P 1'
_cell_length_a   9.34389000
_cell_length_b   9.34201679
_cell_length_c   10.20392774
_cell_angle_alpha   89.71462026
_cell_angle_beta   89.97028701
_cell_angle_gamma   59.92295106
_symmetry_Int_Tables_number   1
_chemical_formula_structural   Al17BN18
_chemical_formula_sum   'Al34 B2 N36'
_cell_volume   770.76526904
_cell_formula_units_Z   2
loop_
 _symmetry_equiv_pos_site_id
 _symmetry_equiv_pos_as_xyz
  1  'x, y, z'
loop_
 _atom_site_type_symbol
 _atom_site_label
 _atom_site_symmetry_multiplicity
 _atom_site_fract_x
 _atom_site_fract_y
 _atom_site_fract_z
 _atom_site_occupancy
  Al  Al0  1  0.11165242  0.09530621  0.39069789  1
  Al  Al1  1  0.23058105  0.19290912  0.13673726  1
  Al  Al2  1  0.77726018  0.09768287  0.89557470  1
  Al  Al3  1  0.89317113  0.19289457  0.63671988  1
  Al  Al4  1  0.44223097  0.09680882  0.39570496  1
  Al  Al5  1  0.55980099  0.19674358  0.14196989  1
  Al  Al6  1  0.10844998  0.09619776  0.89069143  1
  Al  Al7  1  0.22308752  0.19895474  0.64277032  1
  Al  Al8  1  0.78096583  0.08490251  0.38257189  1
  Al  Al9  1  0.89338459  0.20041447  0.14348442  1
  Al  Al10  1  0.45047031  0.08541701  0.88303456  1
  Al  Al11  1  0.55996134  0.19641968  0.64264031  1
  Al  Al12  1  0.10570922  0.43260231  0.31884545  1
  Al  Al13  1  0.22445051  0.53759296  0.09927070  1
  Al  Al14  1  0.77513102  0.43460802  0.81566305  1
  Al  Al15  1  0.89084858  0.54531687  0.56356918  1
  Al  Al16  1  0.44722800  0.41873156  0.38800748  1
  Al  Al17  1  0.56447933  0.53913435  0.06989573  1
  Al  Al18  1  0.10702478  0.43459931  0.81926606  1
  Al  Al19  1  0.21545565  0.54072250  0.58832041  1
  Al  Al20  1  0.77347833  0.43534666  0.32004081  1
  Al  Al21  1  0.88025565  0.54537425  0.06391161  1
  Al  Al22  1  0.44500824  0.42142115  0.88545950  1
  Al  Al23  1  0.56082834  0.53391618  0.57214442  1
  Al  Al24  1  0.10267736  0.76827904  0.37723966  1
  Al  Al25  1  0.23235810  0.87395143  0.14140252  1
  Al  Al26  1  0.78611663  0.76558781  0.81495797  1
  Al  Al27  1  0.43907260  0.76754152  0.39562100  1
  Al  Al28  1  0.11210034  0.76363401  0.89485503  1
  Al  Al29  1  0.21187931  0.87320706  0.64223871  1
  Al  Al30  1  0.76580359  0.76578871  0.31368409  1
  Al  Al31  1  0.88432570  0.87589062  0.10685428  1
  Al  Al32  1  0.44464866  0.76954844  0.87464926  1
  Al  Al33  1  0.55663634  0.87501018  0.60950647  1
  B  B34  1  0.89024768  0.87067474  0.59611768  1
  B  B35  1  0.55560942  0.87068585  0.09614426  1
  N  N36  1  0.22645795  0.19865195  0.32574942  1
  N  N37  1  0.11077209  0.09481546  0.07773209  1
  N  N38  1  0.89026774  0.19995873  0.82543514  1
  N  N39  1  0.79136903  0.06252848  0.57827038  1
  N  N40  1  0.55644574  0.20057126  0.32823422  1
  N  N41  1  0.46256218  0.06294819  0.07829945  1
  N  N42  1  0.22515332  0.20023006  0.83338145  1
  N  N43  1  0.11131232  0.09342587  0.57752167  1
  N  N44  1  0.89076406  0.20056623  0.33360974  1
  N  N45  1  0.77392764  0.10700156  0.08131183  1
  N  N46  1  0.55905616  0.20108841  0.82891958  1
  N  N47  1  0.43679590  0.10545245  0.58139492  1
  N  N48  1  0.21978579  0.53848600  0.36902977  1
  N  N49  1  0.10394623  0.43355348  0.12737411  1
  N  N50  1  0.88618013  0.54238470  0.87787604  1
  N  N51  1  0.77860409  0.43374771  0.62711806  1
  N  N52  1  0.55831460  0.53704872  0.37753367  1
  N  N53  1  0.44926413  0.41824897  0.08195635  1
  N  N54  1  0.22197858  0.54142217  0.85389571  1
  N  N55  1  0.10441435  0.42999774  0.62872810  1
  N  N56  1  0.88652613  0.54311234  0.37777266  1
  N  N57  1  0.77862644  0.43290588  0.13168224  1
  N  N58  1  0.55986128  0.53790640  0.87883735  1
  N  N59  1  0.44914386  0.41682964  0.58249255  1
  N  N60  1  0.22355336  0.87345230  0.32809060  1
  N  N61  1  0.12374458  0.76236848  0.08509601  1
  N  N62  1  0.88540654  0.87024124  0.88964004  1
  N  N63  1  0.80224695  0.77466541  0.62141180  1
  N  N64  1  0.56131050  0.87012907  0.38722644  1
  N  N65  1  0.45770207  0.78182556  0.07682146  1
  N  N66  1  0.21850938  0.87459793  0.82875084  1
  N  N67  1  0.07789293  0.78129551  0.57666072  1
  N  N68  1  0.88965764  0.87260989  0.31026228  1
  N  N69  1  0.74022352  0.77496886  0.12063847  1
  N  N70  1  0.55511543  0.87285768  0.81080646  1
  N  N71  1  0.43184856  0.76202767  0.58673863  1
