# generated using pymatgen
data_Al17BN18
_symmetry_space_group_name_H-M   'P 1'
_cell_length_a   9.33641210
_cell_length_b   9.31059259
_cell_length_c   10.13670085
_cell_angle_alpha   89.65238932
_cell_angle_beta   90.03461323
_cell_angle_gamma   59.96634357
_symmetry_Int_Tables_number   1
_chemical_formula_structural   Al17BN18
_chemical_formula_sum   'Al34 B2 N36'
_cell_volume   762.82580453
_cell_formula_units_Z   2
loop_
 _symmetry_equiv_pos_site_id
 _symmetry_equiv_pos_as_xyz
  1  'x, y, z'
loop_
 _atom_site_type_symbol
 _atom_site_label
 _atom_site_symmetry_multiplicity
 _atom_site_fract_x
 _atom_site_fract_y
 _atom_site_fract_z
 _atom_site_occupancy
  Al  Al0  1  0.11088531  0.09486976  0.30997987  1
  Al  Al1  1  0.21951201  0.20467346  0.06159591  1
  Al  Al2  1  0.77606026  0.09334234  0.88683381  1
  Al  Al3  1  0.89000076  0.19987840  0.56102516  1
  Al  Al4  1  0.44934277  0.09355166  0.38748349  1
  Al  Al5  1  0.55524439  0.19461228  0.12675992  1
  Al  Al6  1  0.11175878  0.09580142  0.80890911  1
  Al  Al7  1  0.21323071  0.21205722  0.56127689  1
  Al  Al8  1  0.78127795  0.08593853  0.34576100  1
  Al  Al9  1  0.89193574  0.21328391  0.06155045  1
  Al  Al10  1  0.45386510  0.08061799  0.87408846  1
  Al  Al11  1  0.56674573  0.19041806  0.63564455  1
  Al  Al12  1  0.10999151  0.42998841  0.30882368  1
  Al  Al13  1  0.22383895  0.53977163  0.05449530  1
  Al  Al14  1  0.77683996  0.42970488  0.80761379  1
  Al  Al15  1  0.89086477  0.54549413  0.55772558  1
  Al  Al16  1  0.43995644  0.43319098  0.30794136  1
  Al  Al17  1  0.55696794  0.54381999  0.06009130  1
  Al  Al18  1  0.11135452  0.42773937  0.80989910  1
  Al  Al19  1  0.21760382  0.54220383  0.56154855  1
  Al  Al20  1  0.77727965  0.42868860  0.31047556  1
  Al  Al21  1  0.87949623  0.54613994  0.05690930  1
  Al  Al22  1  0.44263297  0.43358867  0.81101627  1
  Al  Al23  1  0.55336785  0.53736131  0.55561133  1
  Al  Al24  1  0.11652108  0.75820288  0.30303056  1
  Al  Al25  1  0.22856235  0.87549123  0.05778199  1
  Al  Al26  1  0.78440212  0.76303781  0.81011388  1
  Al  Al27  1  0.44579693  0.76594888  0.31688186  1
  Al  Al28  1  0.10460324  0.76674832  0.81605078  1
  Al  Al29  1  0.21317736  0.87470144  0.55835932  1
  Al  Al30  1  0.76915583  0.76259543  0.31068010  1
  Al  Al31  1  0.88766873  0.86949728  0.09150374  1
  Al  Al32  1  0.44216958  0.75952852  0.80226400  1
  Al  Al33  1  0.55895568  0.87212621  0.59359138  1
  B  B34  1  0.89113986  0.87242259  0.60070544  1
  B  B35  1  0.55433730  0.86954015  0.09819282  1
  N  N36  1  0.21609267  0.20913315  0.36888303  1
  N  N37  1  0.11113819  0.09506172  0.12245840  1
  N  N38  1  0.89225968  0.20947698  0.87044229  1
  N  N39  1  0.79574091  0.05880663  0.58505781  1
  N  N40  1  0.55477505  0.19947330  0.31623450  1
  N  N41  1  0.46200241  0.05832554  0.07231056  1
  N  N42  1  0.22039795  0.20740617  0.87232940  1
  N  N43  1  0.11005477  0.09515999  0.62112569  1
  N  N44  1  0.88881261  0.20645448  0.37029554  1
  N  N45  1  0.77401329  0.10265928  0.08144423  1
  N  N46  1  0.55907335  0.19995606  0.82647220  1
  N  N47  1  0.44171994  0.10356068  0.57572788  1
  N  N48  1  0.22177935  0.53931954  0.37264850  1
  N  N49  1  0.10840431  0.43233296  0.11870185  1
  N  N50  1  0.88826835  0.53994792  0.86880872  1
  N  N51  1  0.77678615  0.42960828  0.61771743  1
  N  N52  1  0.55462575  0.53819717  0.36675831  1
  N  N53  1  0.44227174  0.43212249  0.11632496  1
  N  N54  1  0.22200651  0.53978203  0.86676271  1
  N  N55  1  0.10898300  0.42988023  0.62195164  1
  N  N56  1  0.88852824  0.53984686  0.36931462  1
  N  N57  1  0.77713120  0.43093362  0.12229825  1
  N  N58  1  0.55605658  0.54057819  0.87209242  1
  N  N59  1  0.44364304  0.42928383  0.62004015  1
  N  N60  1  0.22048928  0.87248694  0.36960913  1
  N  N61  1  0.12632365  0.75661458  0.11518635  1
  N  N62  1  0.89268112  0.86326858  0.88686903  1
  N  N63  1  0.80276797  0.77271725  0.61553434  1
  N  N64  1  0.56067361  0.86356353  0.38427228  1
  N  N65  1  0.45702997  0.77766435  0.11918716  1
  N  N66  1  0.22376581  0.87328679  0.86928036  1
  N  N67  1  0.08265381  0.77679357  0.61974386  1
  N  N68  1  0.89016183  0.86781598  0.30724286  1
  N  N69  1  0.74038893  0.77336489  0.11447173  1
  N  N70  1  0.55744588  0.87127732  0.80783175  1
  N  N71  1  0.43515490  0.75597006  0.61467915  1
