# generated using pymatgen
data_Al17BN18
_symmetry_space_group_name_H-M   'P 1'
_cell_length_a   9.31160498
_cell_length_b   9.30233493
_cell_length_c   10.09730781
_cell_angle_alpha   89.62942630
_cell_angle_beta   90.00000672
_cell_angle_gamma   59.96703147
_symmetry_Int_Tables_number   1
_chemical_formula_structural   Al17BN18
_chemical_formula_sum   'Al34 B2 N36'
_cell_volume   757.17497021
_cell_formula_units_Z   2
loop_
 _symmetry_equiv_pos_site_id
 _symmetry_equiv_pos_as_xyz
  1  'x, y, z'
loop_
 _atom_site_type_symbol
 _atom_site_label
 _atom_site_symmetry_multiplicity
 _atom_site_fract_x
 _atom_site_fract_y
 _atom_site_fract_z
 _atom_site_occupancy
  Al  Al0  1  0.11306448  0.09451637  0.39068339  1
  Al  Al1  1  0.22747281  0.19861163  0.13809857  1
  Al  Al2  1  0.77638731  0.09762030  0.89636588  1
  Al  Al3  1  0.89058094  0.19861195  0.63809858  1
  Al  Al4  1  0.44265868  0.09762076  0.39636577  1
  Al  Al5  1  0.55778915  0.19909173  0.14172246  1
  Al  Al6  1  0.10908576  0.09451552  0.89068341  1
  Al  Al7  1  0.22045391  0.20722904  0.64372044  1
  Al  Al8  1  0.78122772  0.08676369  0.38287836  1
  Al  Al9  1  0.88898250  0.20722909  0.14372038  1
  Al  Al10  1  0.44867546  0.08676360  0.88287855  1
  Al  Al11  1  0.55978541  0.19909215  0.64172231  1
  Al  Al12  1  0.11110244  0.42743348  0.38803303  1
  Al  Al13  1  0.22551983  0.53744871  0.14355856  1
  Al  Al14  1  0.77813179  0.42743331  0.88803310  1
  Al  Al15  1  0.89433068  0.53702637  0.63579004  1
  Al  Al16  1  0.44652265  0.42675537  0.39034118  1
  Al  Al17  1  0.55762240  0.54271942  0.13742834  1
  Al  Al18  1  0.10998028  0.42997154  0.88965005  1
  Al  Al19  1  0.21632582  0.54271891  0.63742836  1
  Al  Al20  1  0.77671487  0.42997244  0.38965010  1
  Al  Al21  1  0.88531116  0.53702579  0.13578980  1
  Al  Al22  1  0.44338945  0.42675486  0.89034109  1
  Al  Al23  1  0.55369910  0.53744939  0.64355853  1
  Al  Al24  1  0.10538766  0.76431674  0.38151084  1
  Al  Al25  1  0.22947980  0.87449922  0.14190287  1
  Al  Al26  1  0.78134387  0.77041572  0.81947953  1
  Al  Al27  1  0.44332527  0.75843044  0.39696146  1
  Al  Al28  1  0.11491194  0.75842919  0.89696130  1
  Al  Al29  1  0.21268699  0.87449939  0.64190258  1
  Al  Al30  1  0.76490614  0.77041516  0.31947884  1
  Al  Al31  1  0.88528329  0.87454878  0.10645867  1
  Al  Al32  1  0.44696181  0.76431635  0.88151077  1
  Al  Al33  1  0.55683438  0.87455013  0.60645879  1
  B  B34  1  0.89099921  0.87018262  0.59659395  1
  B  B35  1  0.55548445  0.87018262  0.09659374  1
  N  N36  1  0.22461662  0.20455905  0.32682305  1
  N  N37  1  0.10977846  0.09556326  0.08001090  1
  N  N38  1  0.88749087  0.20455884  0.82682307  1
  N  N39  1  0.79298174  0.06331812  0.57978996  1
  N  N40  1  0.55547765  0.20420175  0.33059400  1
  N  N41  1  0.46036635  0.06331809  0.07979015  1
  N  N42  1  0.22138567  0.20625324  0.83330809  1
  N  N43  1  0.11132380  0.09556352  0.58001085  1
  N  N44  1  0.88902702  0.20625393  0.33330798  1
  N  N45  1  0.77335088  0.10679201  0.08389210  1
  N  N46  1  0.55698747  0.20420134  0.83059386  1
  N  N47  1  0.43652279  0.10679299  0.58389209  1
  N  N48  1  0.22371951  0.53825362  0.33265837  1
  N  N49  1  0.11205364  0.42860038  0.07940705  1
  N  N50  1  0.88977136  0.53601829  0.82659627  1
  N  N51  1  0.77601334  0.42860091  0.57940709  1
  N  N52  1  0.55498004  0.54052171  0.32674382  1
  N  N53  1  0.44535596  0.42550369  0.08033188  1
  N  N54  1  0.22116586  0.54052071  0.82674378  1
  N  N55  1  0.11159007  0.42686179  0.57672958  1
  N  N56  1  0.89087779  0.53601814  0.32659605  1
  N  N57  1  0.77821537  0.42686181  0.07672967  1
  N  N58  1  0.55469431  0.53825331  0.83265840  1
  N  N59  1  0.44580782  0.42550410  0.58033195  1
  N  N60  1  0.22434353  0.87259218  0.33080793  1
  N  N61  1  0.12625946  0.75613603  0.08527601  1
  N  N62  1  0.88682980  0.86891790  0.89308641  1
  N  N63  1  0.80164007  0.77693093  0.62184668  1
  N  N64  1  0.56091880  0.86891870  0.39308640  1
  N  N65  1  0.45847712  0.77686860  0.07862866  1
  N  N66  1  0.21973083  0.87259163  0.83080766  1
  N  N67  1  0.08132058  0.77686842  0.57862873  1
  N  N68  1  0.89134732  0.87325013  0.31380522  1
  N  N69  1  0.73809548  0.77693045  0.12184628  1
  N  N70  1  0.55206813  0.87325046  0.81380538  1
  N  N71  1  0.43427105  0.75613696  0.58527615  1
