# generated using pymatgen
data_Al17BN18
_symmetry_space_group_name_H-M   'P 1'
_cell_length_a   9.33411126
_cell_length_b   9.31643910
_cell_length_c   10.09747166
_cell_angle_alpha   89.78805310
_cell_angle_beta   90.04170206
_cell_angle_gamma   59.97757442
_symmetry_Int_Tables_number   1
_chemical_formula_structural   Al17BN18
_chemical_formula_sum   'Al34 B2 N36'
_cell_volume   760.26170566
_cell_formula_units_Z   2
loop_
 _symmetry_equiv_pos_site_id
 _symmetry_equiv_pos_as_xyz
  1  'x, y, z'
loop_
 _atom_site_type_symbol
 _atom_site_label
 _atom_site_symmetry_multiplicity
 _atom_site_fract_x
 _atom_site_fract_y
 _atom_site_fract_z
 _atom_site_occupancy
  Al  Al0  1  0.11391405  0.09335440  0.38843582  1
  Al  Al1  1  0.22623974  0.19979917  0.13556760  1
  Al  Al2  1  0.77702717  0.09612256  0.89350587  1
  Al  Al3  1  0.89144436  0.19759228  0.63334037  1
  Al  Al4  1  0.44375687  0.09606425  0.39316604  1
  Al  Al5  1  0.55809452  0.19944143  0.13880320  1
  Al  Al6  1  0.11055948  0.09331595  0.88840273  1
  Al  Al7  1  0.21955322  0.20809526  0.64112903  1
  Al  Al8  1  0.78086247  0.08425942  0.38000374  1
  Al  Al9  1  0.89031626  0.20575230  0.14036410  1
  Al  Al10  1  0.45094831  0.08493882  0.87986221  1
  Al  Al11  1  0.55903046  0.19953718  0.63878705  1
  Al  Al12  1  0.11850238  0.42353550  0.38437377  1
  Al  Al13  1  0.22540983  0.53754772  0.14085710  1
  Al  Al14  1  0.77779034  0.42543646  0.86177448  1
  Al  Al15  1  0.88601685  0.55005923  0.56528478  1
  Al  Al16  1  0.44590762  0.42659156  0.38841735  1
  Al  Al17  1  0.55601546  0.54339891  0.13464803  1
  Al  Al18  1  0.11811551  0.42607364  0.88685406  1
  Al  Al19  1  0.21539474  0.54278709  0.63592408  1
  Al  Al20  1  0.77498821  0.42798932  0.36876485  1
  Al  Al21  1  0.87630149  0.54977417  0.06494029  1
  Al  Al22  1  0.44403734  0.42636728  0.88844886  1
  Al  Al23  1  0.55036092  0.53926765  0.63916978  1
  Al  Al24  1  0.10474828  0.76426546  0.37822658  1
  Al  Al25  1  0.22959864  0.87448526  0.13911053  1
  Al  Al26  1  0.78591064  0.76544390  0.81237837  1
  Al  Al27  1  0.44248767  0.76005546  0.39407944  1
  Al  Al28  1  0.11485114  0.75895750  0.89404003  1
  Al  Al29  1  0.21223105  0.87485742  0.63926991  1
  Al  Al30  1  0.76620869  0.76534931  0.31199095  1
  Al  Al31  1  0.88615995  0.87496562  0.10525007  1
  Al  Al32  1  0.44752917  0.76483555  0.87886422  1
  Al  Al33  1  0.55496989  0.87567040  0.60604437  1
  B  B34  1  0.89104870  0.87062412  0.59447014  1
  B  B35  1  0.55428226  0.87144888  0.09447538  1
  N  N36  1  0.22507700  0.20310595  0.32401662  1
  N  N37  1  0.11072246  0.09476419  0.07712561  1
  N  N38  1  0.89074369  0.19961483  0.82286777  1
  N  N39  1  0.79263850  0.06219280  0.57689821  1
  N  N40  1  0.55545038  0.20416521  0.32802553  1
  N  N41  1  0.46066318  0.06309040  0.07720267  1
  N  N42  1  0.22304685  0.20440639  0.83053928  1
  N  N43  1  0.11200107  0.09501845  0.57708849  1
  N  N44  1  0.89087499  0.20157384  0.33121710  1
  N  N45  1  0.77365394  0.10581156  0.08084617  1
  N  N46  1  0.55754240  0.20407260  0.82791118  1
  N  N47  1  0.43636334  0.10643563  0.58097322  1
  N  N48  1  0.22450519  0.53850361  0.32950110  1
  N  N49  1  0.11565596  0.42704510  0.07891672  1
  N  N50  1  0.88639076  0.54510985  0.87049957  1
  N  N51  1  0.77456974  0.42839564  0.58962970  1
  N  N52  1  0.55034780  0.54259131  0.32455482  1
  N  N53  1  0.44500133  0.42545794  0.07772832  1
  N  N54  1  0.22263257  0.54067662  0.82441350  1
  N  N55  1  0.11537234  0.42519816  0.57648527  1
  N  N56  1  0.88677788  0.54553082  0.37092056  1
  N  N57  1  0.77687528  0.42596093  0.08929241  1
  N  N58  1  0.55143394  0.53986965  0.82915058  1
  N  N59  1  0.44432440  0.42570053  0.57774271  1
  N  N60  1  0.22388562  0.87225174  0.32793008  1
  N  N61  1  0.12625834  0.75624397  0.08227970  1
  N  N62  1  0.88761083  0.86864957  0.88707322  1
  N  N63  1  0.80176315  0.77569667  0.61944148  1
  N  N64  1  0.56108973  0.86876266  0.38671250  1
  N  N65  1  0.45854098  0.77755052  0.07574191  1
  N  N66  1  0.22090963  0.87193798  0.82811531  1
  N  N67  1  0.08044960  0.77703088  0.57603125  1
  N  N68  1  0.89116672  0.87140601  0.30981663  1
  N  N69  1  0.73864456  0.77649369  0.11876840  1
  N  N70  1  0.55447321  0.87150937  0.81015665  1
  N  N71  1  0.43305985  0.75785337  0.58192368  1
