# generated using pymatgen
data_Al17BN18
_symmetry_space_group_name_H-M   'P 1'
_cell_length_a   9.30047939
_cell_length_b   9.29259967
_cell_length_c   10.04890470
_cell_angle_alpha   89.90597694
_cell_angle_beta   89.99999465
_cell_angle_gamma   59.97198496
_symmetry_Int_Tables_number   1
_chemical_formula_structural   Al17BN18
_chemical_formula_sum   'Al34 B2 N36'
_cell_volume   751.91452056
_cell_formula_units_Z   2
loop_
 _symmetry_equiv_pos_site_id
 _symmetry_equiv_pos_as_xyz
  1  'x, y, z'
loop_
 _atom_site_type_symbol
 _atom_site_label
 _atom_site_symmetry_multiplicity
 _atom_site_fract_x
 _atom_site_fract_y
 _atom_site_fract_z
 _atom_site_occupancy
  Al  Al0  1  0.11254838  0.09445289  0.39680888  1
  Al  Al1  1  0.22672716  0.19942350  0.14538182  1
  Al  Al2  1  0.77928271  0.09279577  0.89768501  1
  Al  Al3  1  0.89051544  0.19942342  0.64538169  1
  Al  Al4  1  0.44458800  0.09279600  0.39768405  1
  Al  Al5  1  0.55801643  0.19881178  0.14731147  1
  Al  Al6  1  0.10966628  0.09445186  0.89680872  1
  Al  Al7  1  0.22127152  0.20668054  0.64863363  1
  Al  Al8  1  0.77969783  0.08890533  0.39150310  1
  Al  Al9  1  0.88871378  0.20668092  0.14863366  1
  Al  Al10  1  0.44806477  0.08890472  0.89150445  1
  Al  Al11  1  0.55983798  0.19881183  0.64731091  1
  Al  Al12  1  0.11112709  0.42704454  0.39567004  1
  Al  Al13  1  0.22376653  0.53840572  0.14887583  1
  Al  Al14  1  0.77849585  0.42704437  0.89566999  1
  Al  Al15  1  0.89109873  0.54376656  0.64649665  1
  Al  Al16  1  0.44560964  0.42706512  0.39659979  1
  Al  Al17  1  0.55766524  0.54279430  0.14534452  1
  Al  Al18  1  0.11063217  0.42969614  0.89691261  1
  Al  Al19  1  0.21620755  0.54279374  0.64534453  1
  Al  Al20  1  0.77633777  0.42969735  0.39691273  1
  Al  Al21  1  0.88180166  0.54376589  0.14649671  1
  Al  Al22  1  0.44399213  0.42706465  0.89659950  1
  Al  Al23  1  0.55449531  0.53840661  0.64887582  1
  Al  Al24  1  0.10666465  0.76384696  0.39064935  1
  Al  Al25  1  0.22803103  0.87425832  0.14734315  1
  Al  Al26  1  0.77426065  0.76444328  0.89135004  1
  Al  Al27  1  0.44509093  0.76108040  0.39834679  1
  Al  Al28  1  0.11049557  0.76107928  0.89834758  1
  Al  Al29  1  0.21437785  0.87425787  0.64734255  1
  Al  Al30  1  0.77796100  0.76444418  0.39134745  1
  Al  Al31  1  0.88405989  0.87413778  0.13406517  1
  Al  Al32  1  0.44615488  0.76384672  0.89065045  1
  Al  Al33  1  0.55846857  0.87413901  0.63406781  1
  B  B34  1  0.88982305  0.87067147  0.61054683  1
  B  B35  1  0.55617151  0.87067142  0.11055159  1
  N  N36  1  0.22306661  0.20544060  0.33442053  1
  N  N37  1  0.11013935  0.09513430  0.08646300  1
  N  N38  1  0.88815992  0.20544009  0.83442045  1
  N  N39  1  0.79234968  0.06457027  0.58706837  1
  N  N40  1  0.55539386  0.20471660  0.33694818  1
  N  N41  1  0.45974621  0.06457068  0.08706924  1
  N  N42  1  0.22231387  0.20581236  0.83922607  1
  N  N43  1  0.11139256  0.09513420  0.58646298  1
  N  N44  1  0.88854054  0.20581353  0.33922610  1
  N  N45  1  0.77629169  0.09987451  0.08774895  1
  N  N46  1  0.55655674  0.20471608  0.83694764  1
  N  N47  1  0.44050027  0.09987399  0.58774807  1
  N  N48  1  0.22263883  0.53887531  0.33892947  1
  N  N49  1  0.11040820  0.42897141  0.08745043  1
  N  N50  1  0.88829053  0.53983476  0.83622226  1
  N  N51  1  0.77728728  0.42897159  0.58745045  1
  N  N52  1  0.55475083  0.53947517  0.33467228  1
  N  N53  1  0.44530133  0.42616264  0.08722011  1
  N  N54  1  0.22244104  0.53947437  0.83467216  1
  N  N55  1  0.11065281  0.42739190  0.58556210  1
  N  N56  1  0.88854183  0.53983484  0.33622235  1
  N  N57  1  0.77862177  0.42739197  0.08556199  1
  N  N58  1  0.55515307  0.53887530  0.83892949  1
  N  N59  1  0.44520304  0.42616326  0.58722033  1
  N  N60  1  0.22281656  0.87203604  0.33698363  1
  N  N61  1  0.11781509  0.75928886  0.08915584  1
  N  N62  1  0.88953443  0.87115932  0.85749823  1
  N  N63  1  0.79618726  0.77415823  0.58822359  1
  N  N64  1  0.55597180  0.87116021  0.35749086  1
  N  N65  1  0.45852487  0.77604897  0.08654106  1
  N  N66  1  0.22181447  0.87203500  0.83698306  1
  N  N67  1  0.08209207  0.77604887  0.58654040  1
  N  N68  1  0.88901555  0.87122848  0.32484590  1
  N  N69  1  0.74632068  0.77415705  0.08822486  1
  N  N70  1  0.55642285  0.87122815  0.82484713  1
  N  N71  1  0.43956384  0.75928998  0.58915511  1
