# generated using pymatgen
data_Al17BN18
_symmetry_space_group_name_H-M   'P 1'
_cell_length_a   9.33736586
_cell_length_b   9.34105981
_cell_length_c   10.15708314
_cell_angle_alpha   89.72593130
_cell_angle_beta   90.04055412
_cell_angle_gamma   59.89109881
_symmetry_Int_Tables_number   1
_chemical_formula_structural   Al17BN18
_chemical_formula_sum   'Al34 B2 N36'
_cell_volume   766.36343076
_cell_formula_units_Z   2
loop_
 _symmetry_equiv_pos_site_id
 _symmetry_equiv_pos_as_xyz
  1  'x, y, z'
loop_
 _atom_site_type_symbol
 _atom_site_label
 _atom_site_symmetry_multiplicity
 _atom_site_fract_x
 _atom_site_fract_y
 _atom_site_fract_z
 _atom_site_occupancy
  Al  Al0  1  0.11206717  0.09414196  0.38971187  1
  Al  Al1  1  0.23013418  0.19405394  0.13414425  1
  Al  Al2  1  0.77712641  0.09704139  0.89486633  1
  Al  Al3  1  0.89277299  0.19361155  0.63562893  1
  Al  Al4  1  0.44231145  0.09698539  0.39462797  1
  Al  Al5  1  0.55890164  0.19771708  0.14121231  1
  Al  Al6  1  0.10970839  0.09372504  0.89033765  1
  Al  Al7  1  0.22280237  0.20027555  0.64157785  1
  Al  Al8  1  0.78070243  0.08512072  0.38119104  1
  Al  Al9  1  0.89430094  0.19925096  0.14182182  1
  Al  Al10  1  0.45161071  0.08472911  0.88181672  1
  Al  Al11  1  0.55931753  0.19772057  0.64070647  1
  Al  Al12  1  0.10437565  0.42961092  0.31823334  1
  Al  Al13  1  0.22861451  0.54149645  0.14157571  1
  Al  Al14  1  0.77884113  0.43146892  0.81970946  1
  Al  Al15  1  0.89170483  0.54464721  0.56314402  1
  Al  Al16  1  0.44540093  0.42525013  0.38811761  1
  Al  Al17  1  0.55736563  0.54244954  0.10182389  1
  Al  Al18  1  0.10596201  0.43175089  0.82248460  1
  Al  Al19  1  0.21728666  0.54659638  0.63495735  1
  Al  Al20  1  0.77374203  0.43438897  0.31890795  1
  Al  Al21  1  0.88244017  0.54463174  0.06352868  1
  Al  Al22  1  0.44228362  0.42430044  0.88880433  1
  Al  Al23  1  0.55077904  0.53922448  0.61914991  1
  Al  Al24  1  0.10483603  0.76458875  0.37962557  1
  Al  Al25  1  0.23148194  0.87391023  0.14173188  1
  Al  Al26  1  0.78560172  0.76621159  0.81407543  1
  Al  Al27  1  0.44204335  0.76088335  0.39407515  1
  Al  Al28  1  0.11501355  0.75984494  0.89580955  1
  Al  Al29  1  0.21096327  0.87538355  0.64114095  1
  Al  Al30  1  0.76553258  0.76611007  0.31406662  1
  Al  Al31  1  0.88606863  0.87418036  0.10613313  1
  Al  Al32  1  0.44590720  0.76813356  0.87724400  1
  Al  Al33  1  0.55743666  0.87509675  0.60580204  1
  B  B34  1  0.89084051  0.86981162  0.59515019  1
  B  B35  1  0.55659147  0.87040515  0.09525930  1
  N  N36  1  0.22660555  0.19760120  0.32490915  1
  N  N37  1  0.11183958  0.09312010  0.07739086  1
  N  N38  1  0.89139736  0.19840125  0.82549182  1
  N  N39  1  0.79219103  0.06196918  0.57791781  1
  N  N40  1  0.55507071  0.20294618  0.32876659  1
  N  N41  1  0.46322837  0.06210757  0.07776734  1
  N  N42  1  0.22555812  0.19950104  0.83401592  1
  N  N43  1  0.11110117  0.09431851  0.57719040  1
  N  N44  1  0.89057767  0.20070276  0.33312255  1
  N  N45  1  0.77374019  0.10597363  0.08131083  1
  N  N46  1  0.55772744  0.20319538  0.82810700  1
  N  N47  1  0.43670187  0.10620157  0.58102210  1
  N  N48  1  0.22401169  0.54035246  0.33294837  1
  N  N49  1  0.10609079  0.43239748  0.12272745  1
  N  N50  1  0.88601250  0.54369797  0.87733565  1
  N  N51  1  0.77876885  0.43314880  0.62575851  1
  N  N52  1  0.54854432  0.54274839  0.33858348  1
  N  N53  1  0.44458451  0.42081709  0.07770617  1
  N  N54  1  0.22409761  0.54515185  0.82579860  1
  N  N55  1  0.10501651  0.42971755  0.62713214  1
  N  N56  1  0.88616184  0.54281327  0.37696973  1
  N  N57  1  0.78299469  0.42930703  0.12582766  1
  N  N58  1  0.55434593  0.53928144  0.85566506  1
  N  N59  1  0.44444277  0.42269768  0.57870825  1
  N  N60  1  0.22291156  0.87319363  0.32910814  1
  N  N61  1  0.12727459  0.75803901  0.08278524  1
  N  N62  1  0.88704487  0.86887670  0.88926097  1
  N  N63  1  0.80294977  0.77435669  0.62035567  1
  N  N64  1  0.56133013  0.86913369  0.38954240  1
  N  N65  1  0.45814904  0.78089404  0.07530844  1
  N  N66  1  0.21939812  0.87342584  0.82828166  1
  N  N67  1  0.08046514  0.77776341  0.57600163  1
  N  N68  1  0.89082789  0.87143347  0.31097962  1
  N  N69  1  0.74056398  0.77434327  0.12052298  1
  N  N70  1  0.55494360  0.87238301  0.80985893  1
  N  N71  1  0.43159178  0.76097747  0.58419010  1
