# generated using pymatgen
data_Al17BN18
_symmetry_space_group_name_H-M   'P 1'
_cell_length_a   9.31356514
_cell_length_b   9.30184523
_cell_length_c   10.10205962
_cell_angle_alpha   89.76368858
_cell_angle_beta   89.99093678
_cell_angle_gamma   60.09957153
_symmetry_Int_Tables_number   1
_chemical_formula_structural   Al17BN18
_chemical_formula_sum   'Al34 B2 N36'
_cell_volume   758.67498509
_cell_formula_units_Z   2
loop_
 _symmetry_equiv_pos_site_id
 _symmetry_equiv_pos_as_xyz
  1  'x, y, z'
loop_
 _atom_site_type_symbol
 _atom_site_label
 _atom_site_symmetry_multiplicity
 _atom_site_fract_x
 _atom_site_fract_y
 _atom_site_fract_z
 _atom_site_occupancy
  Al  Al0  1  0.10954856  0.09516852  0.30970143  1
  Al  Al1  1  0.21961978  0.20348775  0.06212128  1
  Al  Al2  1  0.78973334  0.08493532  0.81306355  1
  Al  Al3  1  0.88812498  0.19989652  0.56087425  1
  Al  Al4  1  0.44846417  0.09388885  0.38633651  1
  Al  Al5  1  0.55525647  0.19570137  0.12613138  1
  Al  Al6  1  0.11451181  0.09436018  0.80986078  1
  Al  Al7  1  0.21185049  0.21175164  0.56095774  1
  Al  Al8  1  0.78453034  0.08830003  0.31538712  1
  Al  Al9  1  0.88827875  0.20631609  0.05855795  1
  Al  Al10  1  0.45686233  0.08085717  0.87496887  1
  Al  Al11  1  0.55684199  0.19800858  0.63163551  1
  Al  Al12  1  0.11043000  0.42843549  0.30888753  1
  Al  Al13  1  0.22060600  0.54183932  0.05765749  1
  Al  Al14  1  0.77731057  0.43000575  0.80889159  1
  Al  Al15  1  0.89047718  0.54385772  0.55742668  1
  Al  Al16  1  0.43925659  0.43361120  0.30889978  1
  Al  Al17  1  0.55823422  0.54392611  0.05985965  1
  Al  Al18  1  0.11213404  0.42725202  0.81080021  1
  Al  Al19  1  0.21650699  0.54307816  0.56050017  1
  Al  Al20  1  0.77771575  0.42725796  0.31023529  1
  Al  Al21  1  0.88095408  0.54511417  0.06002779  1
  Al  Al22  1  0.44228797  0.43451712  0.81304444  1
  Al  Al23  1  0.55339447  0.53795568  0.55607625  1
  Al  Al24  1  0.10812463  0.76216315  0.31315508  1
  Al  Al25  1  0.22577579  0.87480043  0.06085358  1
  Al  Al26  1  0.78535553  0.76113262  0.80296281  1
  Al  Al27  1  0.44670221  0.76507325  0.31655870  1
  Al  Al28  1  0.10740711  0.76421769  0.80852454  1
  Al  Al29  1  0.21446941  0.87391592  0.55720577  1
  Al  Al30  1  0.77315791  0.76575638  0.32127803  1
  Al  Al31  1  0.88341574  0.87379201  0.06314945  1
  Al  Al32  1  0.44283821  0.76020000  0.80311817  1
  Al  Al33  1  0.55964180  0.87106668  0.59119452  1
  B  B34  1  0.89216759  0.86895003  0.56659091  1
  B  B35  1  0.55652367  0.87125837  0.10143617  1
  N  N36  1  0.21520801  0.20870284  0.36843029  1
  N  N37  1  0.10956595  0.09493462  0.12120991  1
  N  N38  1  0.89085864  0.20616746  0.86919292  1
  N  N39  1  0.79588354  0.06416370  0.61729567  1
  N  N40  1  0.55198544  0.20203297  0.31877149  1
  N  N41  1  0.46390597  0.05803484  0.07367432  1
  N  N42  1  0.22215794  0.20680149  0.87291811  1
  N  N43  1  0.10983172  0.09430509  0.62158996  1
  N  N44  1  0.88782555  0.20575490  0.37244932  1
  N  N45  1  0.78558457  0.09095253  0.12126704  1
  N  N46  1  0.55855949  0.20265309  0.82775345  1
  N  N47  1  0.44021571  0.10251080  0.57508581  1
  N  N48  1  0.22077837  0.53913582  0.37163919  1
  N  N49  1  0.10957159  0.42998869  0.11916837  1
  N  N50  1  0.88865460  0.54109490  0.87066574  1
  N  N51  1  0.77660952  0.42920985  0.61877532  1
  N  N52  1  0.55486345  0.53832653  0.36684783  1
  N  N53  1  0.44143507  0.43422480  0.11589860  1
  N  N54  1  0.22068170  0.54174304  0.86895824  1
  N  N55  1  0.10897510  0.42927985  0.62242072  1
  N  N56  1  0.88889283  0.53897510  0.36828872  1
  N  N57  1  0.77832964  0.42730144  0.12070344  1
  N  N58  1  0.55638343  0.54158690  0.87215147  1
  N  N59  1  0.44042814  0.43286389  0.62048472  1
  N  N60  1  0.22141862  0.87256187  0.36774419  1
  N  N61  1  0.11049442  0.76204099  0.12228148  1
  N  N62  1  0.89111849  0.86861026  0.87760598  1
  N  N63  1  0.80150001  0.76965033  0.61222647  1
  N  N64  1  0.55930715  0.86449672  0.38322381  1
  N  N65  1  0.45959990  0.77734217  0.11903276  1
  N  N66  1  0.22352144  0.87139322  0.87120453  1
  N  N67  1  0.08606847  0.77414478  0.61528879  1
  N  N68  1  0.89034224  0.87096465  0.38367114  1
  N  N69  1  0.74731301  0.77703328  0.12163822  1
  N  N70  1  0.55867180  0.87138153  0.80982475  1
  N  N71  1  0.43559398  0.75649424  0.61501096  1
