# generated using pymatgen
data_Al17BN18
_symmetry_space_group_name_H-M   'P 1'
_cell_length_a   9.35241378
_cell_length_b   9.32639832
_cell_length_c   10.15855334
_cell_angle_alpha   89.46586822
_cell_angle_beta   89.99547357
_cell_angle_gamma   59.84917229
_symmetry_Int_Tables_number   1
_chemical_formula_structural   Al17BN18
_chemical_formula_sum   'Al34 B2 N36'
_cell_volume   766.14871423
_cell_formula_units_Z   2
loop_
 _symmetry_equiv_pos_site_id
 _symmetry_equiv_pos_as_xyz
  1  'x, y, z'
loop_
 _atom_site_type_symbol
 _atom_site_label
 _atom_site_symmetry_multiplicity
 _atom_site_fract_x
 _atom_site_fract_y
 _atom_site_fract_z
 _atom_site_occupancy
  Al  Al0  1  0.10835221  0.09182198  0.32640561  1
  Al  Al1  1  0.23115491  0.19811433  0.13704274  1
  Al  Al2  1  0.77472787  0.09480222  0.89670817  1
  Al  Al3  1  0.89168866  0.20368707  0.58643487  1
  Al  Al4  1  0.44227170  0.09785724  0.39885491  1
  Al  Al5  1  0.56068141  0.19179871  0.14560390  1
  Al  Al6  1  0.10895843  0.09023185  0.82193509  1
  Al  Al7  1  0.22932932  0.20500425  0.64438830  1
  Al  Al8  1  0.78118483  0.08105277  0.38933386  1
  Al  Al9  1  0.88734024  0.21048924  0.09289689  1
  Al  Al10  1  0.45013008  0.08266152  0.88992302  1
  Al  Al11  1  0.56552125  0.19103776  0.64581971  1
  Al  Al12  1  0.10811545  0.43601730  0.32002951  1
  Al  Al13  1  0.22483654  0.53901829  0.06661182  1
  Al  Al14  1  0.77483702  0.43171087  0.81806271  1
  Al  Al15  1  0.89274140  0.54581605  0.56826441  1
  Al  Al16  1  0.44167649  0.43195403  0.32212728  1
  Al  Al17  1  0.55612210  0.54280512  0.07234719  1
  Al  Al18  1  0.10702343  0.43473315  0.82579873  1
  Al  Al19  1  0.21785761  0.54236916  0.57237547  1
  Al  Al20  1  0.77679349  0.42986319  0.32626809  1
  Al  Al21  1  0.87915605  0.54544088  0.06842271  1
  Al  Al22  1  0.44377762  0.43160519  0.82217799  1
  Al  Al23  1  0.55256317  0.53962824  0.56682494  1
  Al  Al24  1  0.11485946  0.75949315  0.31373976  1
  Al  Al25  1  0.22789563  0.87443229  0.06836682  1
  Al  Al26  1  0.78219370  0.76487563  0.82191180  1
  Al  Al27  1  0.44608453  0.76662175  0.32774659  1
  Al  Al28  1  0.10434174  0.76588849  0.82754641  1
  Al  Al29  1  0.21442624  0.87376434  0.56875838  1
  Al  Al30  1  0.76812051  0.76566615  0.32157075  1
  Al  Al31  1  0.88682972  0.87077492  0.10254351  1
  Al  Al32  1  0.44273883  0.75950157  0.81427710  1
  Al  Al33  1  0.55901144  0.87146841  0.60180953  1
  B  B34  1  0.89252196  0.86913291  0.61058251  1
  B  B35  1  0.55461111  0.86890748  0.10914762  1
  N  N36  1  0.22900675  0.20320643  0.33005316  1
  N  N37  1  0.10858855  0.09073651  0.13244810  1
  N  N38  1  0.88647275  0.20697046  0.85980327  1
  N  N39  1  0.79435709  0.05852190  0.58639111  1
  N  N40  1  0.55920393  0.19776643  0.33403536  1
  N  N41  1  0.46095689  0.06044364  0.08458078  1
  N  N42  1  0.22698596  0.20297488  0.84099003  1
  N  N43  1  0.11419572  0.09069593  0.62965506  1
  N  N44  1  0.88810718  0.20719360  0.38303566  1
  N  N45  1  0.77108759  0.10259004  0.08468026  1
  N  N46  1  0.55851737  0.19751922  0.83424918  1
  N  N47  1  0.44064717  0.10461412  0.58321799  1
  N  N48  1  0.22197748  0.54029076  0.38454304  1
  N  N49  1  0.10498586  0.43770648  0.12739818  1
  N  N50  1  0.88528872  0.54117770  0.88137425  1
  N  N51  1  0.77483834  0.43657381  0.62812840  1
  N  N52  1  0.55365796  0.53999030  0.37906127  1
  N  N53  1  0.44307348  0.43006245  0.13089509  1
  N  N54  1  0.22364713  0.53953839  0.87948734  1
  N  N55  1  0.10759506  0.43539713  0.63417818  1
  N  N56  1  0.88882810  0.54164302  0.38079632  1
  N  N57  1  0.77555268  0.43227100  0.13654943  1
  N  N58  1  0.55523468  0.53992596  0.88453896  1
  N  N59  1  0.44422961  0.42987936  0.63084774  1
  N  N60  1  0.22176532  0.86982846  0.38140368  1
  N  N61  1  0.12553335  0.75626421  0.12673490  1
  N  N62  1  0.89237494  0.86316334  0.89619552  1
  N  N63  1  0.80188643  0.77395151  0.62641430  1
  N  N64  1  0.55970461  0.86505920  0.39606779  1
  N  N65  1  0.45673959  0.77822297  0.13030233  1
  N  N66  1  0.22457189  0.86990307  0.88130314  1
  N  N67  1  0.08192771  0.77762590  0.63062893  1
  N  N68  1  0.88789402  0.87249570  0.31952540  1
  N  N69  1  0.73988732  0.77410545  0.12595136  1
  N  N70  1  0.55608451  0.87262083  0.82142274  1
  N  N71  1  0.43524901  0.75676121  0.62701610  1
