# generated using pymatgen
data_Al17BN18
_symmetry_space_group_name_H-M   'P 1'
_cell_length_a   9.35780621
_cell_length_b   9.29876675
_cell_length_c   10.24772826
_cell_angle_alpha   89.46670614
_cell_angle_beta   90.07105779
_cell_angle_gamma   59.74402981
_symmetry_Int_Tables_number   1
_chemical_formula_structural   Al17BN18
_chemical_formula_sum   'Al34 B2 N36'
_cell_volume   770.19839680
_cell_formula_units_Z   2
loop_
 _symmetry_equiv_pos_site_id
 _symmetry_equiv_pos_as_xyz
  1  'x, y, z'
loop_
 _atom_site_type_symbol
 _atom_site_label
 _atom_site_symmetry_multiplicity
 _atom_site_fract_x
 _atom_site_fract_y
 _atom_site_fract_z
 _atom_site_occupancy
  Al  Al0  1  0.11051314  0.09736023  0.39067170  1
  Al  Al1  1  0.22993034  0.19483336  0.13758395  1
  Al  Al2  1  0.77586661  0.09888273  0.89706686  1
  Al  Al3  1  0.89310066  0.19427648  0.63917763  1
  Al  Al4  1  0.44132147  0.10120967  0.39689523  1
  Al  Al5  1  0.56187708  0.19247619  0.14299560  1
  Al  Al6  1  0.11145589  0.09182723  0.89229149  1
  Al  Al7  1  0.22373214  0.20167657  0.64477264  1
  Al  Al8  1  0.78192208  0.08418406  0.38854355  1
  Al  Al9  1  0.89208661  0.19991048  0.14411719  1
  Al  Al10  1  0.45047757  0.08270153  0.88807898  1
  Al  Al11  1  0.56230330  0.19258928  0.64469045  1
  Al  Al12  1  0.10737138  0.43501275  0.31721063  1
  Al  Al13  1  0.22482695  0.53921371  0.06618101  1
  Al  Al14  1  0.77611728  0.43253384  0.81894412  1
  Al  Al15  1  0.89209335  0.54407818  0.56657923  1
  Al  Al16  1  0.44124850  0.43328101  0.31881678  1
  Al  Al17  1  0.55706979  0.54576925  0.06886795  1
  Al  Al18  1  0.10758479  0.43275491  0.82293852  1
  Al  Al19  1  0.21570453  0.54234468  0.56998809  1
  Al  Al20  1  0.77441287  0.43430103  0.32063412  1
  Al  Al21  1  0.88029680  0.54437567  0.06763253  1
  Al  Al22  1  0.44202410  0.43159529  0.82136985  1
  Al  Al23  1  0.55771807  0.52999212  0.56952303  1
  Al  Al24  1  0.10923102  0.75805910  0.31334945  1
  Al  Al25  1  0.23451781  0.87569934  0.14011195  1
  Al  Al26  1  0.78310740  0.76448349  0.81864790  1
  Al  Al27  1  0.44466457  0.76509240  0.37441746  1
  Al  Al28  1  0.10047443  0.76309613  0.82902717  1
  Al  Al29  1  0.20886412  0.88007813  0.63502877  1
  Al  Al30  1  0.76718379  0.76613715  0.31794551  1
  Al  Al31  1  0.88542540  0.87149490  0.09547110  1
  Al  Al32  1  0.44868613  0.75689377  0.81331717  1
  Al  Al33  1  0.56137745  0.87577182  0.60128196  1
  B  B34  1  0.89125018  0.86883072  0.60592072  1
  B  B35  1  0.55520408  0.86736982  0.10470507  1
  N  N36  1  0.22675491  0.19951006  0.32568221  1
  N  N37  1  0.10988435  0.09610836  0.07783686  1
  N  N38  1  0.89217739  0.19711271  0.82684241  1
  N  N39  1  0.79291930  0.06294356  0.58312395  1
  N  N40  1  0.55894145  0.19875667  0.33100949  1
  N  N41  1  0.46133498  0.06311167  0.08110717  1
  N  N42  1  0.22595453  0.19825715  0.83428002  1
  N  N43  1  0.10944268  0.09956238  0.57604894  1
  N  N44  1  0.89042560  0.19961992  0.33368127  1
  N  N45  1  0.77365001  0.10591375  0.08071788  1
  N  N46  1  0.55965779  0.19694618  0.83220560  1
  N  N47  1  0.43540662  0.10943230  0.58085031  1
  N  N48  1  0.22220688  0.53879554  0.38369486  1
  N  N49  1  0.10630839  0.43653782  0.12740094  1
  N  N50  1  0.88682190  0.54012363  0.88120672  1
  N  N51  1  0.77634803  0.43498839  0.62944818  1
  N  N52  1  0.55734014  0.53327057  0.38380931  1
  N  N53  1  0.44343265  0.43324663  0.12965172  1
  N  N54  1  0.22313985  0.53737429  0.88034492  1
  N  N55  1  0.10641519  0.43482933  0.63388216  1
  N  N56  1  0.88863851  0.54018503  0.38039549  1
  N  N57  1  0.77532156  0.43385559  0.13234397  1
  N  N58  1  0.55655097  0.53756704  0.88069651  1
  N  N59  1  0.44016017  0.43203165  0.63247557  1
  N  N60  1  0.22325860  0.87559859  0.33302172  1
  N  N61  1  0.12051907  0.75740321  0.12393175  1
  N  N62  1  0.88941174  0.86509764  0.89508083  1
  N  N63  1  0.80117578  0.77432689  0.62520780  1
  N  N64  1  0.56331563  0.86843945  0.39789891  1
  N  N65  1  0.46292544  0.77743747  0.11194949  1
  N  N66  1  0.21909192  0.87458959  0.82551269  1
  N  N67  1  0.07725091  0.77610927  0.62768885  1
  N  N68  1  0.88577633  0.87247029  0.32517808  1
  N  N69  1  0.74260351  0.77483669  0.12484456  1
  N  N70  1  0.55650651  0.87397693  0.81303532  1
  N  N71  1  0.43901988  0.75718559  0.60968130  1
