# generated using pymatgen
data_Al17BN18
_symmetry_space_group_name_H-M   'P 1'
_cell_length_a   9.35873306
_cell_length_b   9.29636326
_cell_length_c   10.24865757
_cell_angle_alpha   89.44444708
_cell_angle_beta   90.05565065
_cell_angle_gamma   59.74280509
_symmetry_Int_Tables_number   1
_chemical_formula_structural   Al17BN18
_chemical_formula_sum   'Al34 B2 N36'
_cell_volume   770.13341761
_cell_formula_units_Z   2
loop_
 _symmetry_equiv_pos_site_id
 _symmetry_equiv_pos_as_xyz
  1  'x, y, z'
loop_
 _atom_site_type_symbol
 _atom_site_label
 _atom_site_symmetry_multiplicity
 _atom_site_fract_x
 _atom_site_fract_y
 _atom_site_fract_z
 _atom_site_occupancy
  Al  Al0  1  0.11096935  0.09671487  0.39098873  1
  Al  Al1  1  0.22971475  0.19489826  0.13772026  1
  Al  Al2  1  0.77574198  0.09905623  0.89693566  1
  Al  Al3  1  0.89289851  0.19453326  0.63910274  1
  Al  Al4  1  0.44134959  0.10097303  0.39706303  1
  Al  Al5  1  0.56193935  0.19243344  0.14319299  1
  Al  Al6  1  0.11114708  0.09213842  0.89194648  1
  Al  Al7  1  0.22392624  0.20143673  0.64484173  1
  Al  Al8  1  0.78199860  0.08418588  0.38878638  1
  Al  Al9  1  0.89193418  0.19997910  0.14418431  1
  Al  Al10  1  0.45053182  0.08280187  0.88820880  1
  Al  Al11  1  0.56225001  0.19267726  0.64465135  1
  Al  Al12  1  0.10754844  0.43480396  0.31735366  1
  Al  Al13  1  0.22484590  0.53897074  0.06600491  1
  Al  Al14  1  0.77557745  0.43303877  0.81878204  1
  Al  Al15  1  0.89204384  0.54397878  0.56681760  1
  Al  Al16  1  0.44122139  0.43305667  0.31913177  1
  Al  Al17  1  0.55725698  0.54512401  0.06942422  1
  Al  Al18  1  0.10761301  0.43279563  0.82283363  1
  Al  Al19  1  0.21583279  0.54239728  0.57012412  1
  Al  Al20  1  0.77502499  0.43371426  0.32098312  1
  Al  Al21  1  0.88047352  0.54412160  0.06752278  1
  Al  Al22  1  0.44210110  0.43208197  0.82118477  1
  Al  Al23  1  0.55629134  0.53286617  0.56844595  1
  Al  Al24  1  0.10928353  0.75789204  0.31355303  1
  Al  Al25  1  0.23194463  0.87676853  0.13952744  1
  Al  Al26  1  0.78281430  0.76470812  0.81877160  1
  Al  Al27  1  0.44801937  0.76438900  0.35713338  1
  Al  Al28  1  0.10041592  0.76327806  0.82910787  1
  Al  Al29  1  0.20967681  0.87961129  0.63501102  1
  Al  Al30  1  0.76797469  0.76595215  0.31861056  1
  Al  Al31  1  0.88529419  0.87151102  0.09511603  1
  Al  Al32  1  0.44877594  0.75680383  0.81161726  1
  Al  Al33  1  0.56070833  0.87470047  0.60011903  1
  B  B34  1  0.89109805  0.86890510  0.60606625  1
  B  B35  1  0.55571981  0.86788110  0.10621236  1
  N  N36  1  0.22689429  0.19921764  0.32569950  1
  N  N37  1  0.10955243  0.09658485  0.07751583  1
  N  N38  1  0.89183341  0.19752423  0.82676560  1
  N  N39  1  0.79287837  0.06297593  0.58317590  1
  N  N40  1  0.55904961  0.19853682  0.33113373  1
  N  N41  1  0.46131388  0.06262731  0.08164216  1
  N  N42  1  0.22604830  0.19833191  0.83439761  1
  N  N43  1  0.10947725  0.09945867  0.57621860  1
  N  N44  1  0.89073490  0.19931148  0.33374375  1
  N  N45  1  0.77355236  0.10598335  0.08071009  1
  N  N46  1  0.55947606  0.19730547  0.83226837  1
  N  N47  1  0.43571648  0.10888167  0.58089687  1
  N  N48  1  0.22220702  0.53862635  0.38376151  1
  N  N49  1  0.10630554  0.43644722  0.12748867  1
  N  N50  1  0.88692361  0.54004961  0.88121517  1
  N  N51  1  0.77576453  0.43529689  0.62909518  1
  N  N52  1  0.55710814  0.53405502  0.38279409  1
  N  N53  1  0.44322822  0.43315253  0.12991895  1
  N  N54  1  0.22318908  0.53734052  0.88029546  1
  N  N55  1  0.10651176  0.43472624  0.63385202  1
  N  N56  1  0.88890256  0.54000255  0.38051583  1
  N  N57  1  0.77543350  0.43386737  0.13258749  1
  N  N58  1  0.55626531  0.53821822  0.88189210  1
  N  N59  1  0.44049075  0.43229936  0.63210295  1
  N  N60  1  0.22261669  0.87572449  0.33256561  1
  N  N61  1  0.12010158  0.75710545  0.12381881  1
  N  N62  1  0.88933690  0.86516240  0.89516921  1
  N  N63  1  0.80072565  0.77448026  0.62520059  1
  N  N64  1  0.56313536  0.86778849  0.39760947  1
  N  N65  1  0.46328500  0.77671035  0.12018242  1
  N  N66  1  0.21879660  0.87473541  0.82658801  1
  N  N67  1  0.07716761  0.77618172  0.62783727  1
  N  N68  1  0.88590742  0.87256519  0.32526780  1
  N  N69  1  0.74255308  0.77487241  0.12508342  1
  N  N70  1  0.55677579  0.87377147  0.81554893  1
  N  N71  1  0.43991413  0.75664109  0.61492730  1
