# generated using pymatgen
data_Al17BN18
_symmetry_space_group_name_H-M   'P 1'
_cell_length_a   9.33685346
_cell_length_b   9.34437027
_cell_length_c   10.16560649
_cell_angle_alpha   89.73360509
_cell_angle_beta   90.03938402
_cell_angle_gamma   59.88307461
_symmetry_Int_Tables_number   1
_chemical_formula_structural   Al17BN18
_chemical_formula_sum   'Al34 B2 N36'
_cell_volume   767.17468858
_cell_formula_units_Z   2
loop_
 _symmetry_equiv_pos_site_id
 _symmetry_equiv_pos_as_xyz
  1  'x, y, z'
loop_
 _atom_site_type_symbol
 _atom_site_label
 _atom_site_symmetry_multiplicity
 _atom_site_fract_x
 _atom_site_fract_y
 _atom_site_fract_z
 _atom_site_occupancy
  Al  Al0  1  0.11183170  0.09435630  0.38971409  1
  Al  Al1  1  0.23019446  0.19401718  0.13418395  1
  Al  Al2  1  0.77720573  0.09704080  0.89495316  1
  Al  Al3  1  0.89285335  0.19336669  0.63601123  1
  Al  Al4  1  0.44232938  0.09696409  0.39473619  1
  Al  Al5  1  0.55884133  0.19772557  0.14132902  1
  Al  Al6  1  0.10942000  0.09403263  0.89046348  1
  Al  Al7  1  0.22280459  0.20025925  0.64163602  1
  Al  Al8  1  0.78080599  0.08512288  0.38121548  1
  Al  Al9  1  0.89407948  0.19947206  0.14215173  1
  Al  Al10  1  0.45162013  0.08473165  0.88210087  1
  Al  Al11  1  0.55922032  0.19757651  0.64100066  1
  Al  Al12  1  0.10417755  0.42962297  0.31809973  1
  Al  Al13  1  0.22868339  0.54152777  0.14165875  1
  Al  Al14  1  0.77686974  0.43260484  0.81896157  1
  Al  Al15  1  0.89195344  0.54482069  0.56315478  1
  Al  Al16  1  0.44441967  0.42384434  0.38820565  1
  Al  Al17  1  0.56047876  0.54062968  0.08294215  1
  Al  Al18  1  0.10572362  0.43171543  0.82252166  1
  Al  Al19  1  0.21737551  0.54659688  0.63539494  1
  Al  Al20  1  0.77265004  0.43499628  0.31859037  1
  Al  Al21  1  0.88237477  0.54465669  0.06379353  1
  Al  Al22  1  0.44164135  0.42364348  0.88871974  1
  Al  Al23  1  0.55405071  0.53751899  0.59759137  1
  Al  Al24  1  0.10480898  0.76457104  0.37969527  1
  Al  Al25  1  0.23180382  0.87371372  0.14163099  1
  Al  Al26  1  0.78576542  0.76605939  0.81422065  1
  Al  Al27  1  0.44105225  0.76308919  0.39411216  1
  Al  Al28  1  0.11494963  0.75988695  0.89600891  1
  Al  Al29  1  0.21088619  0.87542368  0.64140396  1
  Al  Al30  1  0.76567707  0.76598734  0.31396954  1
  Al  Al31  1  0.88604430  0.87424491  0.10615874  1
  Al  Al32  1  0.44539738  0.76912026  0.87641908  1
  Al  Al33  1  0.55739679  0.87528612  0.60628867  1
  B  B34  1  0.89086089  0.86981800  0.59519189  1
  B  B35  1  0.55636475  0.87052386  0.09554448  1
  N  N36  1  0.22662496  0.19759142  0.32493519  1
  N  N37  1  0.11161303  0.09332656  0.07742308  1
  N  N38  1  0.89103770  0.19882751  0.82547581  1
  N  N39  1  0.79215734  0.06200945  0.57796143  1
  N  N40  1  0.55521741  0.20252574  0.32872206  1
  N  N41  1  0.46324637  0.06227361  0.07776711  1
  N  N42  1  0.22559127  0.19945050  0.83399366  1
  N  N43  1  0.11095547  0.09440823  0.57718396  1
  N  N44  1  0.89055140  0.20075136  0.33307081  1
  N  N45  1  0.77376344  0.10607439  0.08127717  1
  N  N46  1  0.55779806  0.20306767  0.82815939  1
  N  N47  1  0.43671044  0.10608185  0.58102730  1
  N  N48  1  0.22383725  0.54047977  0.33280001  1
  N  N49  1  0.10590727  0.43241662  0.12285255  1
  N  N50  1  0.88576616  0.54350949  0.87746465  1
  N  N51  1  0.77833822  0.43358102  0.62700607  1
  N  N52  1  0.55165522  0.54058366  0.35505929  1
  N  N53  1  0.44419645  0.42017896  0.07862590  1
  N  N54  1  0.22396707  0.54527554  0.82589710  1
  N  N55  1  0.10495073  0.42973223  0.62736826  1
  N  N56  1  0.88617078  0.54273678  0.37712371  1
  N  N57  1  0.78154232  0.43035481  0.12746001  1
  N  N58  1  0.55659226  0.53859630  0.87011383  1
  N  N59  1  0.44342615  0.42159899  0.57959910  1
  N  N60  1  0.22284401  0.87317378  0.32897620  1
  N  N61  1  0.12726168  0.75805174  0.08279190  1
  N  N62  1  0.88702034  0.86894339  0.88920248  1
  N  N63  1  0.80296990  0.77438603  0.62047391  1
  N  N64  1  0.56148966  0.86938689  0.38941690  1
  N  N65  1  0.45787771  0.78173034  0.07617297  1
  N  N66  1  0.21911928  0.87356523  0.82835583  1
  N  N67  1  0.08056411  0.77769458  0.57603926  1
  N  N68  1  0.89086685  0.87145449  0.31103618  1
  N  N69  1  0.74067670  0.77442580  0.12057172  1
  N  N70  1  0.55509791  0.87253501  0.80988069  1
  N  N71  1  0.43111349  0.76239105  0.58550315  1
