# generated using pymatgen
data_Al17BN18
_symmetry_space_group_name_H-M   'P 1'
_cell_length_a   9.29696252
_cell_length_b   9.29692621
_cell_length_c   9.97508916
_cell_angle_alpha   89.96625011
_cell_angle_beta   89.98366765
_cell_angle_gamma   60.01428974
_symmetry_Int_Tables_number   1
_chemical_formula_structural   Al17BN18
_chemical_formula_sum   'Al34 B2 N36'
_cell_volume   746.77595174
_cell_formula_units_Z   2
loop_
 _symmetry_equiv_pos_site_id
 _symmetry_equiv_pos_as_xyz
  1  'x, y, z'
loop_
 _atom_site_type_symbol
 _atom_site_label
 _atom_site_symmetry_multiplicity
 _atom_site_fract_x
 _atom_site_fract_y
 _atom_site_fract_z
 _atom_site_occupancy
  Al  Al0  1  0.11052130  0.09478743  0.31077126  1
  Al  Al1  1  0.22683017  0.19914090  0.06166423  1
  Al  Al2  1  0.78015966  0.08853329  0.80775550  1
  Al  Al3  1  0.89027816  0.20086738  0.56221565  1
  Al  Al4  1  0.44678667  0.08952585  0.31361109  1
  Al  Al5  1  0.55925032  0.19827882  0.06280098  1
  Al  Al6  1  0.11210308  0.09369764  0.81183392  1
  Al  Al7  1  0.22220504  0.20588164  0.56102571  1
  Al  Al8  1  0.77943452  0.09202807  0.31859646  1
  Al  Al9  1  0.88812865  0.20436408  0.06083135  1
  Al  Al10  1  0.44656180  0.09130516  0.81372963  1
  Al  Al11  1  0.55867023  0.20060623  0.56141204  1
  Al  Al12  1  0.11123435  0.42813211  0.31025734  1
  Al  Al13  1  0.22119291  0.54047234  0.06030281  1
  Al  Al14  1  0.77727415  0.42872196  0.81140327  1
  Al  Al15  1  0.89053382  0.54323636  0.56102998  1
  Al  Al16  1  0.44373554  0.42796062  0.31130938  1
  Al  Al17  1  0.55752869  0.54312299  0.06164136  1
  Al  Al18  1  0.11122209  0.42738669  0.81234230  1
  Al  Al19  1  0.21705660  0.54241809  0.56199907  1
  Al  Al20  1  0.77823405  0.42758220  0.31136382  1
  Al  Al21  1  0.88198833  0.54475157  0.06140783  1
  Al  Al22  1  0.44531158  0.42733776  0.81227759  1
  Al  Al23  1  0.55482801  0.53950861  0.56044416  1
  Al  Al24  1  0.10849220  0.76210250  0.31732831  1
  Al  Al25  1  0.22537598  0.87313056  0.06186767  1
  Al  Al26  1  0.77836518  0.76475704  0.80974637  1
  Al  Al27  1  0.44665042  0.76388970  0.31317028  1
  Al  Al28  1  0.10573310  0.76411079  0.80811345  1
  Al  Al29  1  0.21696207  0.87368621  0.56076697  1
  Al  Al30  1  0.77431205  0.76514727  0.31962950  1
  Al  Al31  1  0.88243574  0.87387869  0.06333395  1
  Al  Al32  1  0.44596569  0.76213649  0.81337303  1
  Al  Al33  1  0.55895632  0.87370942  0.56797723  1
  B  B34  1  0.88915977  0.87121200  0.55885586  1
  B  B35  1  0.55650819  0.87205589  0.08186033  1
  N  N36  1  0.22276512  0.20544103  0.36904941  1
  N  N37  1  0.11030443  0.09442313  0.12057227  1
  N  N38  1  0.88780639  0.20441662  0.86881911  1
  N  N39  1  0.79000473  0.06948310  0.61368632  1
  N  N40  1  0.55448335  0.20534335  0.37032837  1
  N  N41  1  0.45871993  0.06625311  0.11875010  1
  N  N42  1  0.22328646  0.20492288  0.87217031  1
  N  N43  1  0.11164809  0.09459600  0.62129138  1
  N  N44  1  0.88931873  0.20604478  0.37218569  1
  N  N45  1  0.77926587  0.09267238  0.12686803  1
  N  N46  1  0.55789092  0.20404798  0.87124532  1
  N  N47  1  0.44281679  0.09654216  0.62235732  1
  N  N48  1  0.22209598  0.53850103  0.37175935  1
  N  N49  1  0.11067767  0.42759832  0.11924049  1
  N  N50  1  0.88799670  0.54117533  0.87029671  1
  N  N51  1  0.77789231  0.42856513  0.61997746  1
  N  N52  1  0.55494314  0.53990016  0.36891763  1
  N  N53  1  0.44468881  0.42742655  0.11992609  1
  N  N54  1  0.22140474  0.54106067  0.86885831  1
  N  N55  1  0.11102272  0.42712708  0.62159068  1
  N  N56  1  0.88900243  0.53975465  0.36981513  1
  N  N57  1  0.77865000  0.42669684  0.12081142  1
  N  N58  1  0.55542680  0.53925310  0.87199523  1
  N  N59  1  0.44457835  0.42722572  0.62052346  1
  N  N60  1  0.22292857  0.87225913  0.36969680  1
  N  N61  1  0.10851165  0.76228978  0.12485730  1
  N  N62  1  0.88906857  0.87180520  0.87563523  1
  N  N63  1  0.79210403  0.77312234  0.61462941  1
  N  N64  1  0.55502170  0.87242170  0.37934741  1
  N  N65  1  0.45831705  0.77521655  0.11826181  1
  N  N66  1  0.22181798  0.87046267  0.87076870  1
  N  N67  1  0.08587191  0.77405730  0.61373019  1
  N  N68  1  0.88881093  0.87193263  0.39163331  1
  N  N69  1  0.75068458  0.77558768  0.12263636  1
  N  N70  1  0.55835672  0.87051886  0.87084969  1
  N  N71  1  0.44247542  0.76109915  0.62119294  1
