# generated using pymatgen
data_Al17BN18
_symmetry_space_group_name_H-M   'P 1'
_cell_length_a   9.35715652
_cell_length_b   9.32747707
_cell_length_c   10.16064323
_cell_angle_alpha   89.47169235
_cell_angle_beta   89.99961009
_cell_angle_gamma   59.85725311
_symmetry_Int_Tables_number   1
_chemical_formula_structural   Al17BN18
_chemical_formula_sum   'Al34 B2 N36'
_cell_volume   766.84705619
_cell_formula_units_Z   2
loop_
 _symmetry_equiv_pos_site_id
 _symmetry_equiv_pos_as_xyz
  1  'x, y, z'
loop_
 _atom_site_type_symbol
 _atom_site_label
 _atom_site_symmetry_multiplicity
 _atom_site_fract_x
 _atom_site_fract_y
 _atom_site_fract_z
 _atom_site_occupancy
  Al  Al0  1  0.11186833  0.09036872  0.32782636  1
  Al  Al1  1  0.23119918  0.19823913  0.13652195  1
  Al  Al2  1  0.77603634  0.09649265  0.89655488  1
  Al  Al3  1  0.88885559  0.20106792  0.61629986  1
  Al  Al4  1  0.44284890  0.09774045  0.39869863  1
  Al  Al5  1  0.56063706  0.19168415  0.14521493  1
  Al  Al6  1  0.11108591  0.08913078  0.82229139  1
  Al  Al7  1  0.22947778  0.20515777  0.64362173  1
  Al  Al8  1  0.78196068  0.08178692  0.38994748  1
  Al  Al9  1  0.88443363  0.20720813  0.12806032  1
  Al  Al10  1  0.45049866  0.08256457  0.88989233  1
  Al  Al11  1  0.56503330  0.19110670  0.64585815  1
  Al  Al12  1  0.10821973  0.43606415  0.31985317  1
  Al  Al13  1  0.22482671  0.53906567  0.06664641  1
  Al  Al14  1  0.77359749  0.43358709  0.81780312  1
  Al  Al15  1  0.89287880  0.54576355  0.56793370  1
  Al  Al16  1  0.44174981  0.43173937  0.32202433  1
  Al  Al17  1  0.55622336  0.54278888  0.07209095  1
  Al  Al18  1  0.10712072  0.43472532  0.82563262  1
  Al  Al19  1  0.21791819  0.54238364  0.57228478  1
  Al  Al20  1  0.77527820  0.43311431  0.32715639  1
  Al  Al21  1  0.87930810  0.54495519  0.06824933  1
  Al  Al22  1  0.44375949  0.43138220  0.82219152  1
  Al  Al23  1  0.55231980  0.53990480  0.56651806  1
  Al  Al24  1  0.11461192  0.75955088  0.31356136  1
  Al  Al25  1  0.22795653  0.87447056  0.06816149  1
  Al  Al26  1  0.78218569  0.76519958  0.82194361  1
  Al  Al27  1  0.44618924  0.76650423  0.32743778  1
  Al  Al28  1  0.10412248  0.76592582  0.82756640  1
  Al  Al29  1  0.21463178  0.87366230  0.56823075  1
  Al  Al30  1  0.76814655  0.76604310  0.32136404  1
  Al  Al31  1  0.88681434  0.87076621  0.10179409  1
  Al  Al32  1  0.44277438  0.75940718  0.81402761  1
  Al  Al33  1  0.55896189  0.87130187  0.60168360  1
  B  B34  1  0.89269916  0.86883789  0.61007268  1
  B  B35  1  0.55470775  0.86883701  0.10903699  1
  N  N36  1  0.22976334  0.20333320  0.32990803  1
  N  N37  1  0.11031883  0.09028655  0.13037337  1
  N  N38  1  0.88356673  0.20374358  0.83332134  1
  N  N39  1  0.79425995  0.05897931  0.58487541  1
  N  N40  1  0.55951505  0.19749422  0.33374356  1
  N  N41  1  0.46124004  0.06045242  0.08441137  1
  N  N42  1  0.22705983  0.20298408  0.84091193  1
  N  N43  1  0.11653869  0.09013453  0.62672699  1
  N  N44  1  0.88654602  0.20561161  0.36082180  1
  N  N45  1  0.77168644  0.10390647  0.08289206  1
  N  N46  1  0.55873007  0.19728940  0.83443456  1
  N  N47  1  0.44093549  0.10447944  0.58308600  1
  N  N48  1  0.22202706  0.54029425  0.38450634  1
  N  N49  1  0.10502587  0.43778841  0.12734818  1
  N  N50  1  0.88546846  0.54085209  0.88125067  1
  N  N51  1  0.77368438  0.43921585  0.62637523  1
  N  N52  1  0.55297140  0.54037309  0.37913439  1
  N  N53  1  0.44313082  0.43001121  0.13076870  1
  N  N54  1  0.22360987  0.53956267  0.87946625  1
  N  N55  1  0.10762841  0.43556949  0.63421002  1
  N  N56  1  0.88919647  0.54210544  0.38078421  1
  N  N57  1  0.77413296  0.43480320  0.13582869  1
  N  N58  1  0.55512075  0.53982802  0.88446418  1
  N  N59  1  0.44429080  0.42984484  0.63088917  1
  N  N60  1  0.22238539  0.86889267  0.38122680  1
  N  N61  1  0.12542055  0.75642515  0.12659135  1
  N  N62  1  0.89217394  0.86369608  0.89632692  1
  N  N63  1  0.80192575  0.77426292  0.62635911  1
  N  N64  1  0.55977374  0.86488043  0.39600162  1
  N  N65  1  0.45674342  0.77829152  0.13014116  1
  N  N66  1  0.22474672  0.86948945  0.88116585  1
  N  N67  1  0.08171828  0.77797341  0.63056930  1
  N  N68  1  0.88770910  0.87276809  0.31948928  1
  N  N69  1  0.73991910  0.77435375  0.12573486  1
  N  N70  1  0.55615058  0.87245480  0.82135576  1
  N  N71  1  0.43507907  0.75677854  0.62701589  1
