# generated using pymatgen
data_Al17BN18
_symmetry_space_group_name_H-M   'P 1'
_cell_length_a   9.34207021
_cell_length_b   9.34253117
_cell_length_c   10.19932852
_cell_angle_alpha   89.70375131
_cell_angle_beta   89.96913939
_cell_angle_gamma   59.91100518
_symmetry_Int_Tables_number   1
_chemical_formula_structural   Al17BN18
_chemical_formula_sum   'Al34 B2 N36'
_cell_volume   770.21629858
_cell_formula_units_Z   2
loop_
 _symmetry_equiv_pos_site_id
 _symmetry_equiv_pos_as_xyz
  1  'x, y, z'
loop_
 _atom_site_type_symbol
 _atom_site_label
 _atom_site_symmetry_multiplicity
 _atom_site_fract_x
 _atom_site_fract_y
 _atom_site_fract_z
 _atom_site_occupancy
  Al  Al0  1  0.11166760  0.09505361  0.39058791  1
  Al  Al1  1  0.23041006  0.19314971  0.13638774  1
  Al  Al2  1  0.77725784  0.09768591  0.89548113  1
  Al  Al3  1  0.89317610  0.19295802  0.63669221  1
  Al  Al4  1  0.44231015  0.09681802  0.39563071  1
  Al  Al5  1  0.55958034  0.19686083  0.14172707  1
  Al  Al6  1  0.10841911  0.09600734  0.89070526  1
  Al  Al7  1  0.22307504  0.19884322  0.64246796  1
  Al  Al8  1  0.78097108  0.08490171  0.38231811  1
  Al  Al9  1  0.89333206  0.20047564  0.14345345  1
  Al  Al10  1  0.45058998  0.08539863  0.88302291  1
  Al  Al11  1  0.55990255  0.19640474  0.64250601  1
  Al  Al12  1  0.10502595  0.43163084  0.31924625  1
  Al  Al13  1  0.22602642  0.53912580  0.11878427  1
  Al  Al14  1  0.77487990  0.43463142  0.81564411  1
  Al  Al15  1  0.89095120  0.54527737  0.56333146  1
  Al  Al16  1  0.44592277  0.41931164  0.38847227  1
  Al  Al17  1  0.56431011  0.53913768  0.06960030  1
  Al  Al18  1  0.10653082  0.43396102  0.81961900  1
  Al  Al19  1  0.21682974  0.54254239  0.60713080  1
  Al  Al20  1  0.77321603  0.43539164  0.31998351  1
  Al  Al21  1  0.88056202  0.54521010  0.06390622  1
  Al  Al22  1  0.44310830  0.42248831  0.88584967  1
  Al  Al23  1  0.56078766  0.53390425  0.57182415  1
  Al  Al24  1  0.10320777  0.76724334  0.37797535  1
  Al  Al25  1  0.23227821  0.87398509  0.14119636  1
  Al  Al26  1  0.78610949  0.76569845  0.81503161  1
  Al  Al27  1  0.43902267  0.76752692  0.39546427  1
  Al  Al28  1  0.11315796  0.76176321  0.89488424  1
  Al  Al29  1  0.21194921  0.87349131  0.64227984  1
  Al  Al30  1  0.76583107  0.76591526  0.31356827  1
  Al  Al31  1  0.88447140  0.87570633  0.10645379  1
  Al  Al32  1  0.44458743  0.76957756  0.87460137  1
  Al  Al33  1  0.55667697  0.87493128  0.60946621  1
  B  B34  1  0.89020891  0.87050451  0.59585957  1
  B  B35  1  0.55563506  0.87064572  0.09611650  1
  N  N36  1  0.22650770  0.19832738  0.32574724  1
  N  N37  1  0.11070298  0.09472238  0.07771949  1
  N  N38  1  0.89024083  0.20001105  0.82540758  1
  N  N39  1  0.79158562  0.06232068  0.57826074  1
  N  N40  1  0.55634407  0.20081158  0.32816227  1
  N  N41  1  0.46258902  0.06285508  0.07824747  1
  N  N42  1  0.22518443  0.20019246  0.83343052  1
  N  N43  1  0.11129256  0.09328109  0.57747653  1
  N  N44  1  0.89072636  0.20064755  0.33361847  1
  N  N45  1  0.77385002  0.10706347  0.08128257  1
  N  N46  1  0.55876558  0.20155963  0.82888749  1
  N  N47  1  0.43692899  0.10529601  0.58140845  1
  N  N48  1  0.22142273  0.53927110  0.35462641  1
  N  N49  1  0.10393313  0.43307563  0.12613393  1
  N  N50  1  0.88604578  0.54249463  0.87777228  1
  N  N51  1  0.77844556  0.43372965  0.62705417  1
  N  N52  1  0.55816726  0.53700749  0.37754483  1
  N  N53  1  0.44749819  0.41888324  0.08057730  1
  N  N54  1  0.22291430  0.54343551  0.83893905  1
  N  N55  1  0.10419400  0.42913964  0.62741088  1
  N  N56  1  0.88621492  0.54328171  0.37768760  1
  N  N57  1  0.77842035  0.43294036  0.13158158  1
  N  N58  1  0.55960061  0.53790481  0.87877897  1
  N  N59  1  0.44810512  0.41718875  0.58125650  1
  N  N60  1  0.22339993  0.87340035  0.32802772  1
  N  N61  1  0.12465631  0.76102582  0.08387812  1
  N  N62  1  0.88576388  0.87001109  0.88974580  1
  N  N63  1  0.80243101  0.77457189  0.62139446  1
  N  N64  1  0.56134864  0.87008837  0.38730492  1
  N  N65  1  0.45769698  0.78182093  0.07681236  1
  N  N66  1  0.21838543  0.87465965  0.82882157  1
  N  N67  1  0.07858440  0.78031430  0.57590847  1
  N  N68  1  0.88993431  0.87250353  0.31027428  1
  N  N69  1  0.74027885  0.77492000  0.12055897  1
  N  N70  1  0.55513890  0.87286859  0.81077730  1
  N  N71  1  0.43185316  0.76195464  0.58677694  1
