# generated using pymatgen
data_Al17BN18
_symmetry_space_group_name_H-M   'P 1'
_cell_length_a   9.32678592
_cell_length_b   9.30292114
_cell_length_c   10.17025255
_cell_angle_alpha   89.49348943
_cell_angle_beta   90.00000001
_cell_angle_gamma   59.91511401
_symmetry_Int_Tables_number   1
_chemical_formula_structural   Al17BN18
_chemical_formula_sum   'Al34 B2 N36'
_cell_volume   763.51739190
_cell_formula_units_Z   2
loop_
 _symmetry_equiv_pos_site_id
 _symmetry_equiv_pos_as_xyz
  1  'x, y, z'
loop_
 _atom_site_type_symbol
 _atom_site_label
 _atom_site_symmetry_multiplicity
 _atom_site_fract_x
 _atom_site_fract_y
 _atom_site_fract_z
 _atom_site_occupancy
  Al  Al0  1  0.10776887  0.09561329  0.31989623  1
  Al  Al1  1  0.22062699  0.20428614  0.07238438  1
  Al  Al2  1  0.77590320  0.09350370  0.89676549  1
  Al  Al3  1  0.89175195  0.20428605  0.57238487  1
  Al  Al4  1  0.44726096  0.09350270  0.39676564  1
  Al  Al5  1  0.56067975  0.19165812  0.14325648  1
  Al  Al6  1  0.11328398  0.09561359  0.81989625  1
  Al  Al7  1  0.21249753  0.21275719  0.57082594  1
  Al  Al8  1  0.78022857  0.08037707  0.38517720  1
  Al  Al9  1  0.89141039  0.21275701  0.07082657  1
  Al  Al10  1  0.45606311  0.08037701  0.88517800  1
  Al  Al11  1  0.56432794  0.19165849  0.64325631  1
  Al  Al12  1  0.10916304  0.43034190  0.31838417  1
  Al  Al13  1  0.22504314  0.53876756  0.06517022  1
  Al  Al14  1  0.77716132  0.43034285  0.81838441  1
  Al  Al15  1  0.89059095  0.54604441  0.56696653  1
  Al  Al16  1  0.44027940  0.43251158  0.31980989  1
  Al  Al17  1  0.55711341  0.54252968  0.07075836  1
  Al  Al18  1  0.11226472  0.42737003  0.82039219  1
  Al  Al19  1  0.21702342  0.54252914  0.57075809  1
  Al  Al20  1  0.77703154  0.42737101  0.32039229  1
  Al  Al21  1  0.88003020  0.54604448  0.06696677  1
  Al  Al22  1  0.44387543  0.43251296  0.81980940  1
  Al  Al23  1  0.55285567  0.53876872  0.56517046  1
  Al  Al24  1  0.11498001  0.75919444  0.31284284  1
  Al  Al25  1  0.22833715  0.87541867  0.06796302  1
  Al  Al26  1  0.78492177  0.76299471  0.81985390  1
  Al  Al27  1  0.44510370  0.76619026  0.32620814  1
  Al  Al28  1  0.10537270  0.76618993  0.82620789  1
  Al  Al29  1  0.21290995  0.87541858  0.56796346  1
  Al  Al30  1  0.76875156  0.76299565  0.31985418  1
  Al  Al31  1  0.88642205  0.87244049  0.10372586  1
  Al  Al32  1  0.44249317  0.75919611  0.81284327  1
  Al  Al33  1  0.55780366  0.87244193  0.60372650  1
  B  B34  1  0.89215813  0.86959378  0.60877917  1
  B  B35  1  0.55491399  0.86959407  0.10877962  1
  N  N36  1  0.21406992  0.20944572  0.37892682  1
  N  N37  1  0.11080255  0.09507989  0.13262772  1
  N  N38  1  0.89315080  0.20944676  0.87892735  1
  N  N39  1  0.79435557  0.05870479  0.58392335  1
  N  N40  1  0.55740054  0.19812957  0.33127414  1
  N  N41  1  0.46360544  0.05870502  0.08392368  1
  N  N42  1  0.22211582  0.20684980  0.88348295  1
  N  N43  1  0.11078279  0.09508005  0.63262774  1
  N  N44  1  0.88770124  0.20685082  0.38348328  1
  N  N45  1  0.77248107  0.10342051  0.08439525  1
  N  N46  1  0.56113681  0.19813068  0.83127393  1
  N  N47  1  0.44076365  0.10342147  0.58439525  1
  N  N48  1  0.22070403  0.53968942  0.38281530  1
  N  N49  1  0.10872580  0.43206118  0.12896933  1
  N  N50  1  0.88892745  0.54000864  0.87924692  1
  N  N51  1  0.77587901  0.43206128  0.62896966  1
  N  N52  1  0.55423661  0.53873530  0.37726905  1
  N  N53  1  0.44322376  0.43042287  0.12899307  1
  N  N54  1  0.22369478  0.53873505  0.87726882  1
  N  N55  1  0.10866542  0.43027872  0.63247360  1
  N  N56  1  0.88773094  0.54000888  0.37924673  1
  N  N57  1  0.77772167  0.43027872  0.13247382  1
  N  N58  1  0.55627287  0.53969069  0.88281552  1
  N  N59  1  0.44301973  0.43042354  0.62899280  1
  N  N60  1  0.21966625  0.87271595  0.37987334  1
  N  N61  1  0.12572290  0.75649435  0.12553650  1
  N  N62  1  0.89317785  0.86336991  0.89390787  1
  N  N63  1  0.80215107  0.77319434  0.62463547  1
  N  N64  1  0.56011986  0.86336938  0.39390784  1
  N  N65  1  0.45732684  0.77743469  0.12918137  1
  N  N66  1  0.22428450  0.87271605  0.87987294  1
  N  N67  1  0.08190465  0.77743426  0.62918123  1
  N  N68  1  0.88770542  0.87132915  0.31759250  1
  N  N69  1  0.74132078  0.77319443  0.12463581  1
  N  N70  1  0.55763431  0.87132945  0.81759267  1
  N  N71  1  0.43444905  0.75649561  0.62553692  1
