# generated using pymatgen
data_Al17BN18
_symmetry_space_group_name_H-M   'P 1'
_cell_length_a   9.29830244
_cell_length_b   9.30053402
_cell_length_c   9.94035403
_cell_angle_alpha   89.96805116
_cell_angle_beta   90.00000653
_cell_angle_gamma   60.00794427
_symmetry_Int_Tables_number   1
_chemical_formula_structural   Al17BN18
_chemical_formula_sum   'Al34 B2 N36'
_cell_volume   744.52401068
_cell_formula_units_Z   2
loop_
 _symmetry_equiv_pos_site_id
 _symmetry_equiv_pos_as_xyz
  1  'x, y, z'
loop_
 _atom_site_type_symbol
 _atom_site_label
 _atom_site_symmetry_multiplicity
 _atom_site_fract_x
 _atom_site_fract_y
 _atom_site_fract_z
 _atom_site_occupancy
  Al  Al0  1  0.11140970  0.09418392  0.30093080  1
  Al  Al1  1  0.22547105  0.20047123  0.05102421  1
  Al  Al2  1  0.78044530  0.08888244  0.79665157  1
  Al  Al3  1  0.89072429  0.20047181  0.55102412  1
  Al  Al4  1  0.44733967  0.08888234  0.29665154  1
  Al  Al5  1  0.55883677  0.19949742  0.05129833  1
  Al  Al6  1  0.11107396  0.09418409  0.80093087  1
  Al  Al7  1  0.22433524  0.20438180  0.55109304  1
  Al  Al8  1  0.77890536  0.09179889  0.30799964  1
  Al  Al9  1  0.88795012  0.20438153  0.05109309  1
  Al  Al10  1  0.44596288  0.09179924  0.80799968  1
  Al  Al11  1  0.55833185  0.19949761  0.55129831  1
  Al  Al12  1  0.11135037  0.42779465  0.30042976  1
  Al  Al13  1  0.22088902  0.54067605  0.05062275  1
  Al  Al14  1  0.77752196  0.42779475  0.80042970  1
  Al  Al15  1  0.88985163  0.54420368  0.55091458  1
  Al  Al16  1  0.44406352  0.42773771  0.30120299  1
  Al  Al17  1  0.55709391  0.54238162  0.05111504  1
  Al  Al18  1  0.11071433  0.42785514  0.80124176  1
  Al  Al19  1  0.21719091  0.54238215  0.55111511  1
  Al  Al20  1  0.77809798  0.42785497  0.30124170  1
  Al  Al21  1  0.88261156  0.54420304  0.05091445  1
  Al  Al22  1  0.44486471  0.42773794  0.80120304  1
  Al  Al23  1  0.55510174  0.54067558  0.55062259  1
  Al  Al24  1  0.10848580  0.76232355  0.30789961  1
  Al  Al25  1  0.22434001  0.87299584  0.05138488  1
  Al  Al26  1  0.77770481  0.76509952  0.80334567  1
  Al  Al27  1  0.44713976  0.76412044  0.29714008  1
  Al  Al28  1  0.10540545  0.76412108  0.79713996  1
  Al  Al29  1  0.21933038  0.87299667  0.55138488  1
  Al  Al30  1  0.77386157  0.76509948  0.30334567  1
  Al  Al31  1  0.88330574  0.87368035  0.05276277  1
  Al  Al32  1  0.44585673  0.76232347  0.80789944  1
  Al  Al33  1  0.55967990  0.87368069  0.55276278  1
  B  B34  1  0.88803552  0.87237498  0.54845029  1
  B  B35  1  0.55625622  0.87237452  0.04845032  1
  N  N36  1  0.22471876  0.20436463  0.35827767  1
  N  N37  1  0.11022061  0.09438852  0.11017285  1
  N  N38  1  0.88758405  0.20436463  0.85827760  1
  N  N39  1  0.79022648  0.06926583  0.60249792  1
  N  N40  1  0.55373300  0.20451620  0.35953225  1
  N  N41  1  0.45717462  0.06926533  0.10249804  1
  N  N42  1  0.22159665  0.20565737  0.86098122  1
  N  N43  1  0.11205754  0.09438909  0.61017289  1
  N  N44  1  0.88941353  0.20565710  0.36098104  1
  N  N45  1  0.77878273  0.09278374  0.11590182  1
  N  N46  1  0.55841787  0.20451638  0.85953227  1
  N  N47  1  0.44510009  0.09278382  0.61590200  1
  N  N48  1  0.22225648  0.53839639  0.36087068  1
  N  N49  1  0.11038072  0.42776209  0.10883020  1
  N  N50  1  0.88739206  0.54083953  0.85901367  1
  N  N51  1  0.77852383  0.42776238  0.60883016  1
  N  N52  1  0.55438270  0.54124185  0.35827914  1
  N  N53  1  0.44461470  0.42728751  0.10922723  1
  N  N54  1  0.22104175  0.54124259  0.85827931  1
  N  N55  1  0.11146175  0.42675277  0.61019953  1
  N  N56  1  0.88843542  0.54083957  0.35901375  1
  N  N57  1  0.77845242  0.42675238  0.11019952  1
  N  N58  1  0.55601386  0.53839621  0.86087054  1
  N  N59  1  0.44476408  0.42728758  0.60922728  1
  N  N60  1  0.22479133  0.87124643  0.35960557  1
  N  N61  1  0.10835920  0.76249860  0.11480400  1
  N  N62  1  0.88893421  0.87267705  0.86457662  1
  N  N63  1  0.78914186  0.77429360  0.60718838  1
  N  N64  1  0.55505484  0.87267694  0.36457663  1
  N  N65  1  0.45654214  0.77398340  0.10277752  1
  N  N66  1  0.22062854  0.87124653  0.85960557  1
  N  N67  1  0.08614068  0.77398401  0.60277744  1
  N  N68  1  0.88773368  0.87137214  0.38102969  1
  N  N69  1  0.75323104  0.77429314  0.10718838  1
  N  N70  1  0.55756037  0.87137218  0.88102969  1
  N  N71  1  0.44580854  0.76249855  0.61480379  1
