# generated using pymatgen
data_Al17BN18
_symmetry_space_group_name_H-M   'P 1'
_cell_length_a   9.31675513
_cell_length_b   9.31021042
_cell_length_c   10.06292475
_cell_angle_alpha   89.74038745
_cell_angle_beta   90.00002036
_cell_angle_gamma   59.97674218
_symmetry_Int_Tables_number   1
_chemical_formula_structural   Al17BN18
_chemical_formula_sum   'Al34 B2 N36'
_cell_volume   755.73799577
_cell_formula_units_Z   2
loop_
 _symmetry_equiv_pos_site_id
 _symmetry_equiv_pos_as_xyz
  1  'x, y, z'
loop_
 _atom_site_type_symbol
 _atom_site_label
 _atom_site_symmetry_multiplicity
 _atom_site_fract_x
 _atom_site_fract_y
 _atom_site_fract_z
 _atom_site_occupancy
  Al  Al0  1  0.11280180  0.09448082  0.39742035  1
  Al  Al1  1  0.22758733  0.19857267  0.14501637  1
  Al  Al2  1  0.77697220  0.09746098  0.90201508  1
  Al  Al3  1  0.89050497  0.19857319  0.64501595  1
  Al  Al4  1  0.44223317  0.09746124  0.40201495  1
  Al  Al5  1  0.55795208  0.19901519  0.14819965  1
  Al  Al6  1  0.10938415  0.09447954  0.89742030  1
  Al  Al7  1  0.22043790  0.20715834  0.65023881  1
  Al  Al8  1  0.78052509  0.08769758  0.39032232  1
  Al  Al9  1  0.88906878  0.20715853  0.15023905  1
  Al  Al10  1  0.44844461  0.08769714  0.89032291  1
  Al  Al11  1  0.55969865  0.19901566  0.64819908  1
  Al  Al12  1  0.11135952  0.42707087  0.39543510  1
  Al  Al13  1  0.22521820  0.53768940  0.15010167  1
  Al  Al14  1  0.77823674  0.42706976  0.89543512  1
  Al  Al15  1  0.89323075  0.53910179  0.64303268  1
  Al  Al16  1  0.44606892  0.42687276  0.39712110  1
  Al  Al17  1  0.55779838  0.54274826  0.14458680  1
  Al  Al18  1  0.11083103  0.42956772  0.89698209  1
  Al  Al19  1  0.21612017  0.54274792  0.64458660  1
  Al  Al20  1  0.77626712  0.42956982  0.39698213  1
  Al  Al21  1  0.88433589  0.53909977  0.14303181  1
  Al  Al22  1  0.44372524  0.42687181  0.89712096  1
  Al  Al23  1  0.55375954  0.53769049  0.65010144  1
  Al  Al24  1  0.10569770  0.76423057  0.38924937  1
  Al  Al25  1  0.22953569  0.87430884  0.14840869  1
  Al  Al26  1  0.77955818  0.76811903  0.83895487  1
  Al  Al27  1  0.44282762  0.75882432  0.40266360  1
  Al  Al28  1  0.11501755  0.75882216  0.90266367  1
  Al  Al29  1  0.21282192  0.87430901  0.64840771  1
  Al  Al30  1  0.76898818  0.76812074  0.33894760  1
  Al  Al31  1  0.88531069  0.87471224  0.11708302  1
  Al  Al32  1  0.44673813  0.76422980  0.88924972  1
  Al  Al33  1  0.55664572  0.87471297  0.61708650  1
  B  B34  1  0.88960565  0.86942248  0.60398290  1
  B  B35  1  0.55763785  0.86942251  0.10398333  1
  N  N36  1  0.22370841  0.20505490  0.33407000  1
  N  N37  1  0.11007107  0.09528262  0.08708848  1
  N  N38  1  0.88790335  0.20505399  0.83406966  1
  N  N39  1  0.79259564  0.06326801  0.58687357  1
  N  N40  1  0.55522251  0.20448499  0.33757737  1
  N  N41  1  0.46080249  0.06326778  0.08687410  1
  N  N42  1  0.22168122  0.20616542  0.84035150  1
  N  N43  1  0.11131139  0.09528302  0.58708838  1
  N  N44  1  0.88881889  0.20616704  0.34035155  1
  N  N45  1  0.77397446  0.10573769  0.09041801  1
  N  N46  1  0.55695946  0.20448416  0.83757690  1
  N  N47  1  0.43695386  0.10573746  0.59041816  1
  N  N48  1  0.22316948  0.53849529  0.33980159  1
  N  N49  1  0.11188343  0.42850425  0.08704283  1
  N  N50  1  0.89002837  0.53606107  0.83469865  1
  N  N51  1  0.77627920  0.42850531  0.58704306  1
  N  N52  1  0.55480207  0.54012601  0.33419589  1
  N  N53  1  0.44546197  0.42566204  0.08750555  1
  N  N54  1  0.22173901  0.54012463  0.83419566  1
  N  N55  1  0.11129402  0.42682558  0.58456558  1
  N  N56  1  0.89057694  0.53606210  0.33469744  1
  N  N57  1  0.77854680  0.42682535  0.08456546  1
  N  N58  1  0.55500202  0.53849475  0.83980157  1
  N  N59  1  0.44554263  0.42566289  0.58750568  1
  N  N60  1  0.22346766  0.87253407  0.33776681  1
  N  N61  1  0.12495602  0.75657417  0.09180100  1
  N  N62  1  0.88890193  0.87084228  0.89202174  1
  N  N63  1  0.79949920  0.77583137  0.62077833  1
  N  N64  1  0.55692261  0.87084379  0.39201687  1
  N  N65  1  0.45917934  0.77656239  0.08611789  1
  N  N66  1  0.22066525  0.87253325  0.83776600  1
  N  N67  1  0.08092464  0.77656233  0.58611769  1
  N  N68  1  0.89118505  0.87339393  0.32122053  1
  N  N69  1  0.74133685  0.77583043  0.12077691  1
  N  N70  1  0.55208881  0.87339289  0.82122268  1
  N  N71  1  0.43513768  0.75657600  0.59180115  1
