# generated using pymatgen
data_Al17BN18
_symmetry_space_group_name_H-M   'P 1'
_cell_length_a   9.34104383
_cell_length_b   9.32212486
_cell_length_c   10.14652520
_cell_angle_alpha   89.46697196
_cell_angle_beta   89.92302320
_cell_angle_gamma   59.88317414
_symmetry_Int_Tables_number   1
_chemical_formula_structural   Al17BN18
_chemical_formula_sum   'Al34 B2 N36'
_cell_volume   764.22955906
_cell_formula_units_Z   2
loop_
 _symmetry_equiv_pos_site_id
 _symmetry_equiv_pos_as_xyz
  1  'x, y, z'
loop_
 _atom_site_type_symbol
 _atom_site_label
 _atom_site_symmetry_multiplicity
 _atom_site_fract_x
 _atom_site_fract_y
 _atom_site_fract_z
 _atom_site_occupancy
  Al  Al0  1  0.10715195  0.09286138  0.31952285  1
  Al  Al1  1  0.22708324  0.20084319  0.11753105  1
  Al  Al2  1  0.77376043  0.09317222  0.89867228  1
  Al  Al3  1  0.89342076  0.20433271  0.57408044  1
  Al  Al4  1  0.44131453  0.09701077  0.39704041  1
  Al  Al5  1  0.56146519  0.19181573  0.14654246  1
  Al  Al6  1  0.10924558  0.09310128  0.82686891  1
  Al  Al7  1  0.22437472  0.20676775  0.63037950  1
  Al  Al8  1  0.78089632  0.08012271  0.38749646  1
  Al  Al9  1  0.88928136  0.21344036  0.07137714  1
  Al  Al10  1  0.45214738  0.08210982  0.89018509  1
  Al  Al11  1  0.56602741  0.19127447  0.64470055  1
  Al  Al12  1  0.10880886  0.43316522  0.31857758  1
  Al  Al13  1  0.22491576  0.53991594  0.06690228  1
  Al  Al14  1  0.77581004  0.43104519  0.81998570  1
  Al  Al15  1  0.89203358  0.54482679  0.56895035  1
  Al  Al16  1  0.44118985  0.43190612  0.32275572  1
  Al  Al17  1  0.55660624  0.54261865  0.07306485  1
  Al  Al18  1  0.10834682  0.43309159  0.82811386  1
  Al  Al19  1  0.21764329  0.54238112  0.57274132  1
  Al  Al20  1  0.77797941  0.42695324  0.32237671  1
  Al  Al21  1  0.87790443  0.54758312  0.06845463  1
  Al  Al22  1  0.44380822  0.43212569  0.82192274  1
  Al  Al23  1  0.55360355  0.53842593  0.56709862  1
  Al  Al24  1  0.11543670  0.75880599  0.31506436  1
  Al  Al25  1  0.22827739  0.87408694  0.06895542  1
  Al  Al26  1  0.78263646  0.76493677  0.82137434  1
  Al  Al27  1  0.44568085  0.76652328  0.32872835  1
  Al  Al28  1  0.10485432  0.76604568  0.82762656  1
  Al  Al29  1  0.21360702  0.87478495  0.56983770  1
  Al  Al30  1  0.76872921  0.76341797  0.32280618  1
  Al  Al31  1  0.88676320  0.87215776  0.10614321  1
  Al  Al32  1  0.44260112  0.75977660  0.81452616  1
  Al  Al33  1  0.55910825  0.87132412  0.60229458  1
  B  B34  1  0.89282690  0.86923093  0.61038282  1
  B  B35  1  0.55500875  0.86931367  0.11072338  1
  N  N36  1  0.22608960  0.20336050  0.33418012  1
  N  N37  1  0.10667489  0.09181406  0.12973521  1
  N  N38  1  0.88906938  0.21055826  0.88017955  1
  N  N39  1  0.79535504  0.05842336  0.58620496  1
  N  N40  1  0.55868773  0.19794298  0.33507295  1
  N  N41  1  0.46341758  0.05924862  0.08556587  1
  N  N42  1  0.22393075  0.20540512  0.86151864  1
  N  N43  1  0.11033299  0.09239180  0.63584840  1
  N  N44  1  0.88926889  0.20642683  0.38542141  1
  N  N45  1  0.77190179  0.10283003  0.08655000  1
  N  N46  1  0.55958488  0.19790902  0.83321151  1
  N  N47  1  0.44021684  0.10437328  0.58370758  1
  N  N48  1  0.22122958  0.53953503  0.38499795  1
  N  N49  1  0.10402191  0.43921380  0.12676540  1
  N  N50  1  0.88500197  0.54245695  0.88105137  1
  N  N51  1  0.77663863  0.43177477  0.63043119  1
  N  N52  1  0.55495210  0.53881355  0.37894704  1
  N  N53  1  0.44294103  0.43013748  0.13138356  1
  N  N54  1  0.22395405  0.54008000  0.87945805  1
  N  N55  1  0.10750651  0.43434335  0.63631758  1
  N  N56  1  0.88884500  0.53928042  0.38123346  1
  N  N57  1  0.77725034  0.43036190  0.13421192  1
  N  N58  1  0.55528103  0.54022981  0.88460597  1
  N  N59  1  0.44383998  0.42983028  0.63052904  1
  N  N60  1  0.22016223  0.87207579  0.38189205  1
  N  N61  1  0.12588482  0.75640307  0.12782472  1
  N  N62  1  0.89274052  0.86324468  0.89562828  1
  N  N63  1  0.80239208  0.77330375  0.62584121  1
  N  N64  1  0.55997084  0.86438529  0.39697047  1
  N  N65  1  0.45697248  0.77816702  0.13117996  1
  N  N66  1  0.22446602  0.87047008  0.88153439  1
  N  N67  1  0.08231324  0.77716665  0.63062505  1
  N  N68  1  0.88827430  0.87087643  0.32015479  1
  N  N69  1  0.74035554  0.77403276  0.12721887  1
  N  N70  1  0.55601906  0.87327082  0.81986694  1
  N  N71  1  0.43523818  0.75630571  0.62689308  1
