# generated using pymatgen
data_Al17BN18
_symmetry_space_group_name_H-M   'P 1'
_cell_length_a   9.29830657
_cell_length_b   9.30053695
_cell_length_c   9.94034418
_cell_angle_alpha   90.03207532
_cell_angle_beta   89.99999497
_cell_angle_gamma   60.00793784
_symmetry_Int_Tables_number   1
_chemical_formula_structural   Al17BN18
_chemical_formula_sum   'Al34 B2 N36'
_cell_volume   744.52378919
_cell_formula_units_Z   2
loop_
 _symmetry_equiv_pos_site_id
 _symmetry_equiv_pos_as_xyz
  1  'x, y, z'
loop_
 _atom_site_type_symbol
 _atom_site_label
 _atom_site_symmetry_multiplicity
 _atom_site_fract_x
 _atom_site_fract_y
 _atom_site_fract_z
 _atom_site_occupancy
  Al  Al0  1  0.11109803  0.09413737  0.40442434  1
  Al  Al1  1  0.22549563  0.20042337  0.15432979  1
  Al  Al2  1  0.77892891  0.09175257  0.89735892  1
  Al  Al3  1  0.89074755  0.20042391  0.65432986  1
  Al  Al4  1  0.44598567  0.09175295  0.39735887  1
  Al  Al5  1  0.55885900  0.19945035  0.15405634  1
  Al  Al6  1  0.11143239  0.09413720  0.90442438  1
  Al  Al7  1  0.22435750  0.20433604  0.65426396  1
  Al  Al8  1  0.78046866  0.08883468  0.40869930  1
  Al  Al9  1  0.88797359  0.20433584  0.15426394  1
  Al  Al10  1  0.44736410  0.08883454  0.90869938  1
  Al  Al11  1  0.55835669  0.19945051  0.65405635  1
  Al  Al12  1  0.11073753  0.42780768  0.40411249  1
  Al  Al13  1  0.22091305  0.54062897  0.15473588  1
  Al  Al14  1  0.77812224  0.42780750  0.90411248  1
  Al  Al15  1  0.88987576  0.54415714  0.65444042  1
  Al  Al16  1  0.44488894  0.42769119  0.40415266  1
  Al  Al17  1  0.55711750  0.54233544  0.15423864  1
  Al  Al18  1  0.11137389  0.42774876  0.90492828  1
  Al  Al19  1  0.21721346  0.54233596  0.65423859  1
  Al  Al20  1  0.77754434  0.42774890  0.40492833  1
  Al  Al21  1  0.88263398  0.54415647  0.15444053  1
  Al  Al22  1  0.44408608  0.42769092  0.90415270  1
  Al  Al23  1  0.55512479  0.54062850  0.65473601  1
  Al  Al24  1  0.10542750  0.76407556  0.40821256  1
  Al  Al25  1  0.22436460  0.87294931  0.15396976  1
  Al  Al26  1  0.77388457  0.76505306  0.90200421  1
  Al  Al27  1  0.44588007  0.76227631  0.39745895  1
  Al  Al28  1  0.10850968  0.76227634  0.89745879  1
  Al  Al29  1  0.21935234  0.87295010  0.65396979  1
  Al  Al30  1  0.77772827  0.76505313  0.40200416  1
  Al  Al31  1  0.88332884  0.87363305  0.15258609  1
  Al  Al32  1  0.44716331  0.76407491  0.90821244  1
  Al  Al33  1  0.55970421  0.87363337  0.65258603  1
  B  B34  1  0.88805940  0.87232891  0.65690238  1
  B  B35  1  0.55627842  0.87232845  0.15690242  1
  N  N36  1  0.22162100  0.20560981  0.34437320  1
  N  N37  1  0.11024347  0.09434189  0.09518241  1
  N  N38  1  0.88943675  0.20560952  0.84437336  1
  N  N39  1  0.79025011  0.06921829  0.60285360  1
  N  N40  1  0.55844012  0.20446952  0.34582268  1
  N  N41  1  0.45719851  0.06921780  0.10285353  1
  N  N42  1  0.22474139  0.20431862  0.84707890  1
  N  N43  1  0.11208133  0.09434241  0.59518239  1
  N  N44  1  0.88760744  0.20431865  0.34707899  1
  N  N45  1  0.77880587  0.09273832  0.08945489  1
  N  N46  1  0.55375763  0.20446931  0.84582270  1
  N  N47  1  0.44512239  0.09273840  0.58945470  1
  N  N48  1  0.22106542  0.54119559  0.34707809  1
  N  N49  1  0.11040420  0.42771575  0.09652737  1
  N  N50  1  0.88845984  0.54079224  0.84634123  1
  N  N51  1  0.77854671  0.42771603  0.59652741  1
  N  N52  1  0.55603731  0.53834990  0.34448414  1
  N  N53  1  0.44463770  0.42724063  0.09612872  1
  N  N54  1  0.22227934  0.53835005  0.84448400  1
  N  N55  1  0.11148516  0.42670551  0.59515482  1
  N  N56  1  0.88741498  0.54079222  0.34634130  1
  N  N57  1  0.77847623  0.42670515  0.09515480  1
  N  N58  1  0.55440603  0.54119485  0.84707823  1
  N  N59  1  0.44478793  0.42724071  0.59612871  1
  N  N60  1  0.22065272  0.87119969  0.34574943  1
  N  N61  1  0.10838408  0.76245097  0.09055248  1
  N  N62  1  0.88775769  0.87132611  0.82432481  1
  N  N63  1  0.78916611  0.77424652  0.59816300  1
  N  N64  1  0.55758243  0.87132617  0.32432486  1
  N  N65  1  0.45656575  0.77393724  0.10257503  1
  N  N66  1  0.22481402  0.87119956  0.84574945  1
  N  N67  1  0.08616326  0.77393784  0.60257508  1
  N  N68  1  0.88895762  0.87262988  0.34077256  1
  N  N69  1  0.75325391  0.77424606  0.09816307  1
  N  N70  1  0.55507866  0.87262977  0.84077254  1
  N  N71  1  0.44583130  0.76245095  0.59055268  1
