# generated using pymatgen
data_Al17BN18
_symmetry_space_group_name_H-M   'P 1'
_cell_length_a   9.33743395
_cell_length_b   9.31409813
_cell_length_c   10.14261987
_cell_angle_alpha   89.46210552
_cell_angle_beta   89.93723988
_cell_angle_gamma   59.89506424
_symmetry_Int_Tables_number   1
_chemical_formula_structural   Al17BN18
_chemical_formula_sum   'Al34 B2 N36'
_cell_volume   763.07286344
_cell_formula_units_Z   2
loop_
 _symmetry_equiv_pos_site_id
 _symmetry_equiv_pos_as_xyz
  1  'x, y, z'
loop_
 _atom_site_type_symbol
 _atom_site_label
 _atom_site_symmetry_multiplicity
 _atom_site_fract_x
 _atom_site_fract_y
 _atom_site_fract_z
 _atom_site_occupancy
  Al  Al0  1  0.10818332  0.09465569  0.32084776  1
  Al  Al1  1  0.22112832  0.20399428  0.08112187  1
  Al  Al2  1  0.77453670  0.09330030  0.89874497  1
  Al  Al3  1  0.89297541  0.20401306  0.57472134  1
  Al  Al4  1  0.44606772  0.09440751  0.39756372  1
  Al  Al5  1  0.56084826  0.19178851  0.14622008  1
  Al  Al6  1  0.11190310  0.09534614  0.82498075  1
  Al  Al7  1  0.21587305  0.21111764  0.58283227  1
  Al  Al8  1  0.78107806  0.08022778  0.38744756  1
  Al  Al9  1  0.88990813  0.21306114  0.07238206  1
  Al  Al10  1  0.45423662  0.08119013  0.88876792  1
  Al  Al11  1  0.56548039  0.19138265  0.64520299  1
  Al  Al12  1  0.10949399  0.43084013  0.31964070  1
  Al  Al13  1  0.22496841  0.53939950  0.06738263  1
  Al  Al14  1  0.77616151  0.43084015  0.82032903  1
  Al  Al15  1  0.89173393  0.54526343  0.56936727  1
  Al  Al16  1  0.44084897  0.43229654  0.32270306  1
  Al  Al17  1  0.55668239  0.54266304  0.07314929  1
  Al  Al18  1  0.11083321  0.42871956  0.82587533  1
  Al  Al19  1  0.21762158  0.54228874  0.57323480  1
  Al  Al20  1  0.77789196  0.42699701  0.32267840  1
  Al  Al21  1  0.87844294  0.54714941  0.06901258  1
  Al  Al22  1  0.44361041  0.43244115  0.82207236  1
  Al  Al23  1  0.55355860  0.53845051  0.56718612  1
  Al  Al24  1  0.11530310  0.75894144  0.31535337  1
  Al  Al25  1  0.22833067  0.87461676  0.06979441  1
  Al  Al26  1  0.78340668  0.76418877  0.82172326  1
  Al  Al27  1  0.44548549  0.76630587  0.32864292  1
  Al  Al28  1  0.10486540  0.76621765  0.82807949  1
  Al  Al29  1  0.21353738  0.87500716  0.57024226  1
  Al  Al30  1  0.76914445  0.76292697  0.32269148  1
  Al  Al31  1  0.88647720  0.87227066  0.10621301  1
  Al  Al32  1  0.44236280  0.75967655  0.81476704  1
  Al  Al33  1  0.55882149  0.87163876  0.60364845  1
  B  B34  1  0.89277853  0.86929372  0.61063531  1
  B  B35  1  0.55482151  0.86968737  0.11133833  1
  N  N36  1  0.21735547  0.20774498  0.37184539  1
  N  N37  1  0.10898577  0.09397389  0.13303124  1
  N  N38  1  0.89077824  0.20996449  0.88045173  1
  N  N39  1  0.79541568  0.05842036  0.58653664  1
  N  N40  1  0.55848112  0.19822720  0.33458965  1
  N  N41  1  0.46356441  0.05891609  0.08749836  1
  N  N42  1  0.22098946  0.20713169  0.88640093  1
  N  N43  1  0.11142046  0.09412311  0.63638138  1
  N  N44  1  0.88881769  0.20639567  0.38559212  1
  N  N45  1  0.77205252  0.10302031  0.08677833  1
  N  N46  1  0.55983605  0.19824262  0.83371092  1
  N  N47  1  0.44218443  0.10300253  0.58597876  1
  N  N48  1  0.22103128  0.53953166  0.38510011  1
  N  N49  1  0.10662887  0.43492368  0.12973292  1
  N  N50  1  0.88663194  0.54142046  0.88119005  1
  N  N51  1  0.77652144  0.43181851  0.63068222  1
  N  N52  1  0.55487605  0.53873693  0.37904730  1
  N  N53  1  0.44299399  0.43027147  0.13132867  1
  N  N54  1  0.22352933  0.53940630  0.87944158  1
  N  N55  1  0.10903934  0.43088495  0.63657026  1
  N  N56  1  0.88853062  0.53961672  0.38140398  1
  N  N57  1  0.77732780  0.43030533  0.13437106  1
  N  N58  1  0.55546368  0.54012210  0.88471306  1
  N  N59  1  0.44378705  0.42998975  0.63075091  1
  N  N60  1  0.22002730  0.87236344  0.38194078  1
  N  N61  1  0.12565303  0.75650975  0.12778795  1
  N  N62  1  0.89267326  0.86336758  0.89582864  1
  N  N63  1  0.80265289  0.77301312  0.62619944  1
  N  N64  1  0.56038085  0.86356268  0.39655558  1
  N  N65  1  0.45710866  0.77778783  0.13126673  1
  N  N66  1  0.22410696  0.87179510  0.88174292  1
  N  N67  1  0.08232416  0.77715475  0.63090779  1
  N  N68  1  0.88813052  0.87099168  0.32021311  1
  N  N69  1  0.74081519  0.77358593  0.12722759  1
  N  N70  1  0.55643799  0.87255305  0.82005965  1
  N  N71  1  0.43517568  0.75625748  0.62711118  1
