# generated using pymatgen
data_Al17BN18
_symmetry_space_group_name_H-M   'P 1'
_cell_length_a   9.33268388
_cell_length_b   9.29821794
_cell_length_c   10.28183824
_cell_angle_alpha   89.72734522
_cell_angle_beta   90.18629844
_cell_angle_gamma   59.77872709
_symmetry_Int_Tables_number   1
_chemical_formula_structural   Al17BN18
_chemical_formula_sum   'Al34 B2 N36'
_cell_volume   770.94042098
_cell_formula_units_Z   2
loop_
 _symmetry_equiv_pos_site_id
 _symmetry_equiv_pos_as_xyz
  1  'x, y, z'
loop_
 _atom_site_type_symbol
 _atom_site_label
 _atom_site_symmetry_multiplicity
 _atom_site_fract_x
 _atom_site_fract_y
 _atom_site_fract_z
 _atom_site_occupancy
  Al  Al0  1  0.11362020  0.09308901  0.39096471  1
  Al  Al1  1  0.22966885  0.19523716  0.13920150  1
  Al  Al2  1  0.77469490  0.10074824  0.89722442  1
  Al  Al3  1  0.89416666  0.19250208  0.63746900  1
  Al  Al4  1  0.44294817  0.09780870  0.39694264  1
  Al  Al5  1  0.56230089  0.19108674  0.14499587  1
  Al  Al6  1  0.10861791  0.09728580  0.89173064  1
  Al  Al7  1  0.22248402  0.20223929  0.64243552  1
  Al  Al8  1  0.78375931  0.08142015  0.38703760  1
  Al  Al9  1  0.89370761  0.19944568  0.14594827  1
  Al  Al10  1  0.44921728  0.08694898  0.88402607  1
  Al  Al11  1  0.56260100  0.19235619  0.64180511  1
  Al  Al12  1  0.10700014  0.43516676  0.31851723  1
  Al  Al13  1  0.22701486  0.53383640  0.06762173  1
  Al  Al14  1  0.77455598  0.43381229  0.81625050  1
  Al  Al15  1  0.89016035  0.54665316  0.56593696  1
  Al  Al16  1  0.44272376  0.43190363  0.32120389  1
  Al  Al17  1  0.56293126  0.53212102  0.06980867  1
  Al  Al18  1  0.10654195  0.43493834  0.81981706  1
  Al  Al19  1  0.21298902  0.54723751  0.56920297  1
  Al  Al20  1  0.77475559  0.43385439  0.32294420  1
  Al  Al21  1  0.88064619  0.54340515  0.06630166  1
  Al  Al22  1  0.44153842  0.43266925  0.81817691  1
  Al  Al23  1  0.55691985  0.53037586  0.57020488  1
  Al  Al24  1  0.11260349  0.75744932  0.30771262  1
  Al  Al25  1  0.23707973  0.87584525  0.13576703  1
  Al  Al26  1  0.78287103  0.76517579  0.81791483  1
  Al  Al27  1  0.43913836  0.76698531  0.39776864  1
  Al  Al28  1  0.10368819  0.76425708  0.85174320  1
  Al  Al29  1  0.21499080  0.87465693  0.64457179  1
  Al  Al30  1  0.76521539  0.76600549  0.31431556  1
  Al  Al31  1  0.88270965  0.87456717  0.09983024  1
  Al  Al32  1  0.44708641  0.76733093  0.87991383  1
  Al  Al33  1  0.55602265  0.87451495  0.61061551  1
  B  B34  1  0.89312140  0.86867578  0.60790316  1
  B  B35  1  0.55645098  0.86941862  0.09578583  1
  N  N36  1  0.22646688  0.19999067  0.32654881  1
  N  N37  1  0.10995642  0.09762093  0.07666073  1
  N  N38  1  0.89128173  0.19768151  0.82501178  1
  N  N39  1  0.79319302  0.06212313  0.58050871  1
  N  N40  1  0.55955535  0.19722642  0.33176928  1
  N  N41  1  0.46133068  0.06363557  0.07834898  1
  N  N42  1  0.22452550  0.20072146  0.83188977  1
  N  N43  1  0.11202133  0.09435593  0.57711977  1
  N  N44  1  0.89245421  0.19787146  0.33426218  1
  N  N45  1  0.77247540  0.10907872  0.08031011  1
  N  N46  1  0.56000796  0.19764261  0.82907603  1
  N  N47  1  0.43605114  0.10670916  0.58088430  1
  N  N48  1  0.22144368  0.54102786  0.38213183  1
  N  N49  1  0.10555675  0.43619507  0.12888400  1
  N  N50  1  0.88610263  0.54068334  0.88045691  1
  N  N51  1  0.77643879  0.43489383  0.62868421  1
  N  N52  1  0.55832097  0.53189677  0.38338836  1
  N  N53  1  0.44382695  0.43039729  0.13250540  1
  N  N54  1  0.22486269  0.53449696  0.88256928  1
  N  N55  1  0.10596222  0.43587942  0.63181180  1
  N  N56  1  0.88798437  0.54215118  0.38036569  1
  N  N57  1  0.77716777  0.43337507  0.13495908  1
  N  N58  1  0.55852969  0.53208229  0.88312474  1
  N  N59  1  0.43889665  0.43232670  0.63116532  1
  N  N60  1  0.22860900  0.87408948  0.32306165  1
  N  N61  1  0.12294918  0.75711393  0.11461139  1
  N  N62  1  0.88547806  0.86755366  0.89755651  1
  N  N63  1  0.79913488  0.77594760  0.62654641  1
  N  N64  1  0.56141700  0.86930965  0.38769509  1
  N  N65  1  0.46055860  0.77904089  0.07473221  1
  N  N66  1  0.22262047  0.87383312  0.83266228  1
  N  N67  1  0.07755295  0.77783444  0.62600121  1
  N  N68  1  0.88641846  0.87290822  0.31223364  1
  N  N69  1  0.74016993  0.77434871  0.12076855  1
  N  N70  1  0.55303016  0.87272410  0.81251296  1
  N  N71  1  0.43223716  0.76194734  0.58613386  1
