# generated using pymatgen
data_Al17BN18
_symmetry_space_group_name_H-M   'P 1'
_cell_length_a   9.30550323
_cell_length_b   9.29612769
_cell_length_c   10.05036471
_cell_angle_alpha   89.88329056
_cell_angle_beta   90.00001882
_cell_angle_gamma   59.96660626
_symmetry_Int_Tables_number   1
_chemical_formula_structural   Al17BN18
_chemical_formula_sum   'Al34 B2 N36'
_cell_volume   752.67407714
_cell_formula_units_Z   2
loop_
 _symmetry_equiv_pos_site_id
 _symmetry_equiv_pos_as_xyz
  1  'x, y, z'
loop_
 _atom_site_type_symbol
 _atom_site_label
 _atom_site_symmetry_multiplicity
 _atom_site_fract_x
 _atom_site_fract_y
 _atom_site_fract_z
 _atom_site_occupancy
  Al  Al0  1  0.11266535  0.09449184  0.39692264  1
  Al  Al1  1  0.22682631  0.19933175  0.14520991  1
  Al  Al2  1  0.77896836  0.09358607  0.89866081  1
  Al  Al3  1  0.89050782  0.19933177  0.64520975  1
  Al  Al4  1  0.44411227  0.09358622  0.39866004  1
  Al  Al5  1  0.55796924  0.19880027  0.14748016  1
  Al  Al6  1  0.10951033  0.09449070  0.89692255  1
  Al  Al7  1  0.22091610  0.20694830  0.64896675  1
  Al  Al8  1  0.77975802  0.08873201  0.39057930  1
  Al  Al9  1  0.88880131  0.20694851  0.14896678  1
  Al  Al10  1  0.44817799  0.08873162  0.89058058  1
  Al  Al11  1  0.55989679  0.19880047  0.64747959  1
  Al  Al12  1  0.11114881  0.42697469  0.39558573  1
  Al  Al13  1  0.22414133  0.53815465  0.14915040  1
  Al  Al14  1  0.77854418  0.42697415  0.89558569  1
  Al  Al15  1  0.89123939  0.54364625  0.64626644  1
  Al  Al16  1  0.44570969  0.42700622  0.39669763  1
  Al  Al17  1  0.55772378  0.54274954  0.14511439  1
  Al  Al18  1  0.11061369  0.42984468  0.89689765  1
  Al  Al19  1  0.21619373  0.54274906  0.64511441  1
  Al  Al20  1  0.77620793  0.42984602  0.39689773  1
  Al  Al21  1  0.88178147  0.54364541  0.14626653  1
  Al  Al22  1  0.44395108  0.42700574  0.89669736  1
  Al  Al23  1  0.55437158  0.53815553  0.64915041  1
  Al  Al24  1  0.10658544  0.76396095  0.38964639  1
  Al  Al25  1  0.22844404  0.87435314  0.14750942  1
  Al  Al26  1  0.77388542  0.76430136  0.89046510  1
  Al  Al27  1  0.44463669  0.76063021  0.39934313  1
  Al  Al28  1  0.11139998  0.76062919  0.89934375  1
  Al  Al29  1  0.21386971  0.87435288  0.64750883  1
  Al  Al30  1  0.77847812  0.76430264  0.39046223  1
  Al  Al31  1  0.88433709  0.87419130  0.13098449  1
  Al  Al32  1  0.44611991  0.76396061  0.88964739  1
  Al  Al33  1  0.55813813  0.87419260  0.63098761  1
  B  B34  1  0.89004336  0.87038604  0.60709079  1
  B  B35  1  0.55623680  0.87038594  0.10709464  1
  N  N36  1  0.22316786  0.20541037  0.33428742  1
  N  N37  1  0.11010193  0.09521541  0.08657422  1
  N  N38  1  0.88808884  0.20540964  0.83428731  1
  N  N39  1  0.79254576  0.06408403  0.58667175  1
  N  N40  1  0.55518093  0.20472440  0.33704629  1
  N  N41  1  0.46003650  0.06408433  0.08667250  1
  N  N42  1  0.22208510  0.20593911  0.83948005  1
  N  N43  1  0.11134875  0.09521545  0.58657419  1
  N  N44  1  0.88864228  0.20594037  0.33948007  1
  N  N45  1  0.77579332  0.10119997  0.08853283  1
  N  N46  1  0.55676188  0.20472390  0.83704574  1
  N  N47  1  0.43967320  0.10119959  0.58853215  1
  N  N48  1  0.22277472  0.53868611  0.33914276  1
  N  N49  1  0.11047342  0.42910421  0.08743041  1
  N  N50  1  0.88836299  0.53966952  0.83597987  1
  N  N51  1  0.77708942  0.42910447  0.58743042  1
  N  N52  1  0.55466533  0.53956065  0.33451767  1
  N  N53  1  0.44535673  0.42598753  0.08727025  1
  N  N54  1  0.22244092  0.53955991  0.83451755  1
  N  N55  1  0.11057444  0.42740942  0.58545578  1
  N  N56  1  0.88863438  0.53966987  0.33597985  1
  N  N57  1  0.77868282  0.42740933  0.08545565  1
  N  N58  1  0.55520630  0.53868597  0.83914279  1
  N  N59  1  0.44532284  0.42598825  0.58727050  1
  N  N60  1  0.22294343  0.87220914  0.33707544  1
  N  N61  1  0.11953046  0.75865870  0.08992267  1
  N  N62  1  0.88967923  0.87109785  0.86469734  1
  N  N63  1  0.79727688  0.77394762  0.58853164  1
  N  N64  1  0.55588781  0.87109895  0.36468998  1
  N  N65  1  0.45859490  0.77625410  0.08605605  1
  N  N66  1  0.22151411  0.87220817  0.83707485  1
  N  N67  1  0.08181709  0.77625396  0.58605557  1
  N  N68  1  0.88905315  0.87121228  0.32346132  1
  N  N69  1  0.74544179  0.77394642  0.08853276  1
  N  N70  1  0.55640138  0.87121187  0.82346272  1
  N  N71  1  0.43847873  0.75865999  0.58992217  1
