# generated using pymatgen
data_Al17BN18
_symmetry_space_group_name_H-M   'P 1'
_cell_length_a   9.33939586
_cell_length_b   9.32647505
_cell_length_c   10.23776237
_cell_angle_alpha   89.76728013
_cell_angle_beta   90.00000912
_cell_angle_gamma   59.95414266
_symmetry_Int_Tables_number   1
_chemical_formula_structural   Al17BN18
_chemical_formula_sum   'Al34 B2 N36'
_cell_volume   771.90942489
_cell_formula_units_Z   2
loop_
 _symmetry_equiv_pos_site_id
 _symmetry_equiv_pos_as_xyz
  1  'x, y, z'
loop_
 _atom_site_type_symbol
 _atom_site_label
 _atom_site_symmetry_multiplicity
 _atom_site_fract_x
 _atom_site_fract_y
 _atom_site_fract_z
 _atom_site_occupancy
  Al  Al0  1  0.11215411  0.09600980  0.39096503  1
  Al  Al1  1  0.23046657  0.19291516  0.13710231  1
  Al  Al2  1  0.77734555  0.09741223  0.89628181  1
  Al  Al3  1  0.89328496  0.19291528  0.63710234  1
  Al  Al4  1  0.44190911  0.09741224  0.39628163  1
  Al  Al5  1  0.56023693  0.19632668  0.14197229  1
  Al  Al6  1  0.10850263  0.09600980  0.89096512  1
  Al  Al7  1  0.22288837  0.20002934  0.64365403  1
  Al  Al8  1  0.78145806  0.08504600  0.38391123  1
  Al  Al9  1  0.89374932  0.20002932  0.14365418  1
  Al  Al10  1  0.45016317  0.08504589  0.88391115  1
  Al  Al11  1  0.56010334  0.19632618  0.64197275  1
  Al  Al12  1  0.10642685  0.43469543  0.31539674  1
  Al  Al13  1  0.22376566  0.53309522  0.07185384  1
  Al  Al14  1  0.77554331  0.43469567  0.81539656  1
  Al  Al15  1  0.89141678  0.54545245  0.56440266  1
  Al  Al16  1  0.44727872  0.42216615  0.37007384  1
  Al  Al17  1  0.56352047  0.53704698  0.07076621  1
  Al  Al18  1  0.10636923  0.43504909  0.82015795  1
  Al  Al19  1  0.21610024  0.53704589  0.57076629  1
  Al  Al20  1  0.77524738  0.43504953  0.32015807  1
  Al  Al21  1  0.87979616  0.54545296  0.06440282  1
  Al  Al22  1  0.44722275  0.42216637  0.87007485  1
  Al  Al23  1  0.55980410  0.53309560  0.57185440  1
  Al  Al24  1  0.10230329  0.76969490  0.37647540  1
  Al  Al25  1  0.23235242  0.87231172  0.14153059  1
  Al  Al26  1  0.78527499  0.76568545  0.81418060  1
  Al  Al27  1  0.43927672  0.76825266  0.39648134  1
  Al  Al28  1  0.10913733  0.76825238  0.89648087  1
  Al  Al29  1  0.21200207  0.87231246  0.64153031  1
  Al  Al30  1  0.76570634  0.76568654  0.31418052  1
  Al  Al31  1  0.88544236  0.87529020  0.11011463  1
  Al  Al32  1  0.44466768  0.76969618  0.87647508  1
  Al  Al33  1  0.55593552  0.87529034  0.61011448  1
  B  B34  1  0.89051660  0.87046597  0.59650057  1
  B  B35  1  0.55568406  0.87046660  0.09650056  1
  N  N36  1  0.22652151  0.19984251  0.32550385  1
  N  N37  1  0.11119959  0.09406682  0.07757956  1
  N  N38  1  0.89030240  0.19984278  0.82550388  1
  N  N39  1  0.79133694  0.06291452  0.57828557  1
  N  N40  1  0.55800617  0.19864514  0.32889475  1
  N  N41  1  0.46241509  0.06291498  0.07828551  1
  N  N42  1  0.22502064  0.20014859  0.83345196  1
  N  N43  1  0.11140009  0.09406726  0.57757940  1
  N  N44  1  0.89149720  0.20014906  0.33345202  1
  N  N45  1  0.77456224  0.10598992  0.08126784  1
  N  N46  1  0.56001559  0.19864532  0.82889509  1
  N  N47  1  0.43611477  0.10598991  0.58126770  1
  N  N48  1  0.21905620  0.53739341  0.37969583  1
  N  N49  1  0.10397886  0.43424217  0.12739538  1
  N  N50  1  0.88556798  0.54279220  0.87852118  1
  N  N51  1  0.77844453  0.43424225  0.62739531  1
  N  N52  1  0.55979387  0.53676036  0.37882877  1
  N  N53  1  0.44908958  0.42076104  0.09516721  1
  N  N54  1  0.22011256  0.53675976  0.87882833  1
  N  N55  1  0.10522651  0.43301009  0.63237144  1
  N  N56  1  0.88830565  0.54279268  0.37852108  1
  N  N57  1  0.77842955  0.43301022  0.13237171  1
  N  N58  1  0.56021662  0.53739470  0.87969601  1
  N  N59  1  0.44681626  0.42076034  0.59516796  1
  N  N60  1  0.22433813  0.87322324  0.32801600  1
  N  N61  1  0.12235076  0.76241949  0.08598681  1
  N  N62  1  0.88477010  0.87069012  0.88666217  1
  N  N63  1  0.80117380  0.77515213  0.62143080  1
  N  N64  1  0.56120650  0.87069014  0.38666225  1
  N  N65  1  0.45801984  0.78113691  0.07652010  1
  N  N66  1  0.21910470  0.87322362  0.82801572  1
  N  N67  1  0.07751045  0.78113630  0.57652007  1
  N  N68  1  0.88958140  0.87273178  0.31088036  1
  N  N69  1  0.74034079  0.77515269  0.12143082  1
  N  N70  1  0.55435439  0.87273162  0.81088041  1
  N  N71  1  0.43189645  0.76242014  0.58598721  1
