# generated using pymatgen
data_Al17BN18
_symmetry_space_group_name_H-M   'P 1'
_cell_length_a   9.32678781
_cell_length_b   9.30292003
_cell_length_c   10.17025553
_cell_angle_alpha   89.49350954
_cell_angle_beta   89.99999741
_cell_angle_gamma   59.91510315
_symmetry_Int_Tables_number   1
_chemical_formula_structural   Al17BN18
_chemical_formula_sum   'Al34 B2 N36'
_cell_volume   763.51759795
_cell_formula_units_Z   2
loop_
 _symmetry_equiv_pos_site_id
 _symmetry_equiv_pos_as_xyz
  1  'x, y, z'
loop_
 _atom_site_type_symbol
 _atom_site_label
 _atom_site_symmetry_multiplicity
 _atom_site_fract_x
 _atom_site_fract_y
 _atom_site_fract_z
 _atom_site_occupancy
  Al  Al0  1  0.10776846  0.09561590  0.31755716  1
  Al  Al1  1  0.22062475  0.20428990  0.07004360  1
  Al  Al2  1  0.77590139  0.09350574  0.89443126  1
  Al  Al3  1  0.89175044  0.20428985  0.57004408  1
  Al  Al4  1  0.44726075  0.09350472  0.39443142  1
  Al  Al5  1  0.56067718  0.19166110  0.14091838  1
  Al  Al6  1  0.11328178  0.09561619  0.81755714  1
  Al  Al7  1  0.21249589  0.21275988  0.56848767  1
  Al  Al8  1  0.78022731  0.08037939  0.38284027  1
  Al  Al9  1  0.89140936  0.21275969  0.06848831  1
  Al  Al10  1  0.45606207  0.08037935  0.88284104  1
  Al  Al11  1  0.56432756  0.19166145  0.64091817  1
  Al  Al12  1  0.10916225  0.43034377  0.31604953  1
  Al  Al13  1  0.22504150  0.53876967  0.06283194  1
  Al  Al14  1  0.77716023  0.43034475  0.81604977  1
  Al  Al15  1  0.89058834  0.54604741  0.56463248  1
  Al  Al16  1  0.44027886  0.43251378  0.31747154  1
  Al  Al17  1  0.55711119  0.54253315  0.06841821  1
  Al  Al18  1  0.11226314  0.42737313  0.81805190  1
  Al  Al19  1  0.21702217  0.54253262  0.56841796  1
  Al  Al20  1  0.77703003  0.42737412  0.31805200  1
  Al  Al21  1  0.88002982  0.54604748  0.06463272  1
  Al  Al22  1  0.44387377  0.43251516  0.81747101  1
  Al  Al23  1  0.55285520  0.53877085  0.56283213  1
  Al  Al24  1  0.11498016  0.75919697  0.31050282  1
  Al  Al25  1  0.22833672  0.87542161  0.06562717  1
  Al  Al26  1  0.78492042  0.76299689  0.81752083  1
  Al  Al27  1  0.44510284  0.76619317  0.32387370  1
  Al  Al28  1  0.10537061  0.76619284  0.82387349  1
  Al  Al29  1  0.21290743  0.87542151  0.56562763  1
  Al  Al30  1  0.76875072  0.76299783  0.31752111  1
  Al  Al31  1  0.88641962  0.87244422  0.10139438  1
  Al  Al32  1  0.44249050  0.75919862  0.81050323  1
  Al  Al33  1  0.55780236  0.87244564  0.60139500  1
  B  B34  1  0.89215728  0.86959620  0.60644322  1
  B  B35  1  0.55491244  0.86959650  0.10644366  1
  N  N36  1  0.21406983  0.20944719  0.37659005  1
  N  N37  1  0.11080152  0.09508338  0.13028915  1
  N  N38  1  0.89314943  0.20944825  0.87659059  1
  N  N39  1  0.79435488  0.05870720  0.58158460  1
  N  N40  1  0.55739890  0.19813170  0.32893672  1
  N  N41  1  0.46360374  0.05870743  0.08158493  1
  N  N42  1  0.22211443  0.20685265  0.88114255  1
  N  N43  1  0.11078035  0.09508354  0.63028916  1
  N  N44  1  0.88769977  0.20685370  0.38114289  1
  N  N45  1  0.77247941  0.10342394  0.08206007  1
  N  N46  1  0.56113636  0.19813281  0.82893648  1
  N  N47  1  0.44076189  0.10342488  0.58206006  1
  N  N48  1  0.22070326  0.53969260  0.38047627  1
  N  N49  1  0.10872496  0.43206333  0.12663374  1
  N  N50  1  0.88892699  0.54001039  0.87691166  1
  N  N51  1  0.77587769  0.43206345  0.62663405  1
  N  N52  1  0.55423608  0.53873735  0.37493090  1
  N  N53  1  0.44322236  0.43042569  0.12665472  1
  N  N54  1  0.22369327  0.53873709  0.87493068  1
  N  N55  1  0.10866435  0.43028193  0.63013433  1
  N  N56  1  0.88772967  0.54001062  0.37691147  1
  N  N57  1  0.77771953  0.43028193  0.13013456  1
  N  N58  1  0.55627045  0.53969386  0.88047649  1
  N  N59  1  0.44301833  0.43042635  0.62665441  1
  N  N60  1  0.21966452  0.87271901  0.37753637  1
  N  N61  1  0.12572173  0.75649717  0.12319776  1
  N  N62  1  0.89317588  0.86337255  0.89157321  1
  N  N63  1  0.80214996  0.77319729  0.62230085  1
  N  N64  1  0.56011917  0.86337200  0.39157317  1
  N  N65  1  0.45732561  0.77743721  0.12684506  1
  N  N66  1  0.22428317  0.87271910  0.87753594  1
  N  N67  1  0.08190336  0.77743676  0.62684493  1
  N  N68  1  0.88770502  0.87133144  0.31525404  1
  N  N69  1  0.74131898  0.77319737  0.12230119  1
  N  N70  1  0.55763240  0.87133175  0.81525419  1
  N  N71  1  0.43444740  0.75649843  0.62319817  1
