# generated using pymatgen
data_Al17BN18
_symmetry_space_group_name_H-M   'P 1'
_cell_length_a   9.33559161
_cell_length_b   9.31060415
_cell_length_c   10.12241493
_cell_angle_alpha   89.74634590
_cell_angle_beta   90.03779820
_cell_angle_gamma   60.02678743
_symmetry_Int_Tables_number   1
_chemical_formula_structural   Al17BN18
_chemical_formula_sum   'Al34 B2 N36'
_cell_volume   762.15797420
_cell_formula_units_Z   2
loop_
 _symmetry_equiv_pos_site_id
 _symmetry_equiv_pos_as_xyz
  1  'x, y, z'
loop_
 _atom_site_type_symbol
 _atom_site_label
 _atom_site_symmetry_multiplicity
 _atom_site_fract_x
 _atom_site_fract_y
 _atom_site_fract_z
 _atom_site_occupancy
  Al  Al0  1  0.11046315  0.09470128  0.31059832  1
  Al  Al1  1  0.21858534  0.20456996  0.06217349  1
  Al  Al2  1  0.78375654  0.08846554  0.84772059  1
  Al  Al3  1  0.88828093  0.19736078  0.56117021  1
  Al  Al4  1  0.45079405  0.09354732  0.38671514  1
  Al  Al5  1  0.55150713  0.19721689  0.12208557  1
  Al  Al6  1  0.11303589  0.09555529  0.80845903  1
  Al  Al7  1  0.21302749  0.21180882  0.56055851  1
  Al  Al8  1  0.78385554  0.09085414  0.30452465  1
  Al  Al9  1  0.89023225  0.21129109  0.05910939  1
  Al  Al10  1  0.45351212  0.08058987  0.87527828  1
  Al  Al11  1  0.56224164  0.19333436  0.63675232  1
  Al  Al12  1  0.11017707  0.42972620  0.30921035  1
  Al  Al13  1  0.22290434  0.54042591  0.05537520  1
  Al  Al14  1  0.77659152  0.43051694  0.80748965  1
  Al  Al15  1  0.89112253  0.54496936  0.55767482  1
  Al  Al16  1  0.43998025  0.43257280  0.30780297  1
  Al  Al17  1  0.55732916  0.54422477  0.06032727  1
  Al  Al18  1  0.11149849  0.42748308  0.80999473  1
  Al  Al19  1  0.21727814  0.54238978  0.56143264  1
  Al  Al20  1  0.77762694  0.42765451  0.31117292  1
  Al  Al21  1  0.87967503  0.54541894  0.05824161  1
  Al  Al22  1  0.44176750  0.43510774  0.81266439  1
  Al  Al23  1  0.55355994  0.53712877  0.55563330  1
  Al  Al24  1  0.11456262  0.75884502  0.30452063  1
  Al  Al25  1  0.22821600  0.87557217  0.05877617  1
  Al  Al26  1  0.78394651  0.76199267  0.81077242  1
  Al  Al27  1  0.44614830  0.76558256  0.31729076  1
  Al  Al28  1  0.10657966  0.76540103  0.81658753  1
  Al  Al29  1  0.21349126  0.87447931  0.55817171  1
  Al  Al30  1  0.77026784  0.76360044  0.31261920  1
  Al  Al31  1  0.88709409  0.86983089  0.08435915  1
  Al  Al32  1  0.44233188  0.75992051  0.80231751  1
  Al  Al33  1  0.55944032  0.87195230  0.59272835  1
  B  B34  1  0.89206618  0.87202290  0.60627078  1
  B  B35  1  0.55461032  0.86945973  0.09849595  1
  N  N36  1  0.21638202  0.20871226  0.36861454  1
  N  N37  1  0.10990764  0.09536562  0.12220809  1
  N  N38  1  0.89204604  0.20912343  0.87032321  1
  N  N39  1  0.79859488  0.05962710  0.61931389  1
  N  N40  1  0.55301730  0.20061234  0.31468682  1
  N  N41  1  0.46143032  0.05783564  0.07203307  1
  N  N42  1  0.22014405  0.20762127  0.87254624  1
  N  N43  1  0.10984037  0.09511764  0.62065098  1
  N  N44  1  0.88721817  0.20422821  0.37130310  1
  N  N45  1  0.77817754  0.10102558  0.10336515  1
  N  N46  1  0.55575600  0.20297180  0.83093011  1
  N  N47  1  0.44174098  0.10336518  0.57566114  1
  N  N48  1  0.22201342  0.53915469  0.37266272  1
  N  N49  1  0.10854382  0.43200460  0.11893882  1
  N  N50  1  0.88858642  0.53975915  0.86953886  1
  N  N51  1  0.77694984  0.42892393  0.61775422  1
  N  N52  1  0.55463980  0.53796549  0.36670828  1
  N  N53  1  0.44152174  0.43373990  0.11519082  1
  N  N54  1  0.22119216  0.54021707  0.86748970  1
  N  N55  1  0.10916815  0.42953042  0.62202978  1
  N  N56  1  0.88851867  0.53937271  0.36925939  1
  N  N57  1  0.77749837  0.42957068  0.12200887  1
  N  N58  1  0.55624365  0.54143483  0.87213382  1
  N  N59  1  0.44288779  0.43013642  0.62111765  1
  N  N60  1  0.22105303  0.87207890  0.36937636  1
  N  N61  1  0.12390647  0.75765635  0.11555813  1
  N  N62  1  0.89227949  0.86456381  0.88779542  1
  N  N63  1  0.80338597  0.77217793  0.61662958  1
  N  N64  1  0.56077386  0.86328152  0.38477825  1
  N  N65  1  0.45734193  0.77759403  0.11937376  1
  N  N66  1  0.22386359  0.87348787  0.86974256  1
  N  N67  1  0.08377304  0.77583330  0.62099838  1
  N  N68  1  0.89073432  0.86738214  0.31872657  1
  N  N69  1  0.74106322  0.77395695  0.11471054  1
  N  N70  1  0.55751097  0.87177438  0.80831505  1
  N  N71  1  0.43538296  0.75593161  0.61477530  1
