# generated using pymatgen
data_Al17BN18
_symmetry_space_group_name_H-M   'P 1'
_cell_length_a   9.34246120
_cell_length_b   9.33721583
_cell_length_c   10.22168681
_cell_angle_alpha   89.73120689
_cell_angle_beta   89.98018956
_cell_angle_gamma   59.93585546
_symmetry_Int_Tables_number   1
_chemical_formula_structural   Al17BN18
_chemical_formula_sum   'Al34 B2 N36'
_cell_volume   771.69357374
_cell_formula_units_Z   2
loop_
 _symmetry_equiv_pos_site_id
 _symmetry_equiv_pos_as_xyz
  1  'x, y, z'
loop_
 _atom_site_type_symbol
 _atom_site_label
 _atom_site_symmetry_multiplicity
 _atom_site_fract_x
 _atom_site_fract_y
 _atom_site_fract_z
 _atom_site_occupancy
  Al  Al0  1  0.11168042  0.09574607  0.39078317  1
  Al  Al1  1  0.23053224  0.19304819  0.13706038  1
  Al  Al2  1  0.77727642  0.09762449  0.89581477  1
  Al  Al3  1  0.89320207  0.19280405  0.63682655  1
  Al  Al4  1  0.44208705  0.09687074  0.39576464  1
  Al  Al5  1  0.55974215  0.19718816  0.14221231  1
  Al  Al6  1  0.10849486  0.09637945  0.89083993  1
  Al  Al7  1  0.22309947  0.19940347  0.64316209  1
  Al  Al8  1  0.78098389  0.08492734  0.38293099  1
  Al  Al9  1  0.89349104  0.20026696  0.14353698  1
  Al  Al10  1  0.45043950  0.08528452  0.88326161  1
  Al  Al11  1  0.55988414  0.19661091  0.64253949  1
  Al  Al12  1  0.10642715  0.43393459  0.31708086  1
  Al  Al13  1  0.22247191  0.53532782  0.07747118  1
  Al  Al14  1  0.77541790  0.43461738  0.81560205  1
  Al  Al15  1  0.89112166  0.54536144  0.56391181  1
  Al  Al16  1  0.44824905  0.41839491  0.38724928  1
  Al  Al17  1  0.56425923  0.53900152  0.07046942  1
  Al  Al18  1  0.10712698  0.43492971  0.81956850  1
  Al  Al19  1  0.21419967  0.53915267  0.57456431  1
  Al  Al20  1  0.77393062  0.43526396  0.32007180  1
  Al  Al21  1  0.88017785  0.54532886  0.06415670  1
  Al  Al22  1  0.44821651  0.41949372  0.88581252  1
  Al  Al23  1  0.56078380  0.53393678  0.57242736  1
  Al  Al24  1  0.10246154  0.76896407  0.37600742  1
  Al  Al25  1  0.23223185  0.87340814  0.14150806  1
  Al  Al26  1  0.78585338  0.76550041  0.81465869  1
  Al  Al27  1  0.43916117  0.76757536  0.39586656  1
  Al  Al28  1  0.11036677  0.76690439  0.89542257  1
  Al  Al29  1  0.21180268  0.87296990  0.64180633  1
  Al  Al30  1  0.76575462  0.76558094  0.31378496  1
  Al  Al31  1  0.88474864  0.87571631  0.10792882  1
  Al  Al32  1  0.44478708  0.76956975  0.87496411  1
  Al  Al33  1  0.55652362  0.87516087  0.60951923  1
  B  B34  1  0.89039702  0.87070201  0.59633985  1
  B  B35  1  0.55559084  0.87079471  0.09616190  1
  N  N36  1  0.22638767  0.19924422  0.32571261  1
  N  N37  1  0.11093181  0.09474072  0.07765447  1
  N  N38  1  0.89033961  0.19984371  0.82541840  1
  N  N39  1  0.79118676  0.06277402  0.57823886  1
  N  N40  1  0.55658828  0.20035329  0.32835472  1
  N  N41  1  0.46252871  0.06310981  0.07825629  1
  N  N42  1  0.22520235  0.20023120  0.83329265  1
  N  N43  1  0.11131407  0.09386632  0.57750574  1
  N  N44  1  0.89088478  0.20039878  0.33350546  1
  N  N45  1  0.77408162  0.10668268  0.08126661  1
  N  N46  1  0.55930591  0.20054682  0.82860631  1
  N  N47  1  0.43656216  0.10570791  0.58126405  1
  N  N48  1  0.21867068  0.53780655  0.37828699  1
  N  N49  1  0.10408353  0.43413273  0.12791741  1
  N  N50  1  0.88618126  0.54241037  0.87813016  1
  N  N51  1  0.77884466  0.43381318  0.62730118  1
  N  N52  1  0.55864560  0.53698847  0.37777337  1
  N  N53  1  0.45034010  0.41789823  0.08294012  1
  N  N54  1  0.22060565  0.53841835  0.87262377  1
  N  N55  1  0.10505569  0.43171535  0.63097791  1
  N  N56  1  0.88734345  0.54278293  0.37806572  1
  N  N57  1  0.77864347  0.43293733  0.13194450  1
  N  N58  1  0.56007295  0.53798955  0.87872102  1
  N  N59  1  0.44900938  0.41720326  0.58367222  1
  N  N60  1  0.22380059  0.87351887  0.32811853  1
  N  N61  1  0.12301408  0.76286109  0.08590994  1
  N  N62  1  0.88490120  0.87050416  0.88869977  1
  N  N63  1  0.80191460  0.77480729  0.62145470  1
  N  N64  1  0.56131942  0.87017968  0.38715959  1
  N  N65  1  0.45769760  0.78182757  0.07665392  1
  N  N66  1  0.21876070  0.87424867  0.82825006  1
  N  N67  1  0.07757494  0.78158095  0.57721134  1
  N  N68  1  0.88937358  0.87269565  0.31041573  1
  N  N69  1  0.74020863  0.77504430  0.12084689  1
  N  N70  1  0.55491398  0.87292786  0.81074750  1
  N  N71  1  0.43186660  0.76220242  0.58657734  1
