# generated using pymatgen
data_Al17BN18
_symmetry_space_group_name_H-M   'P 1'
_cell_length_a   9.29831239
_cell_length_b   9.30054363
_cell_length_c   9.94033332
_cell_angle_alpha   89.96805709
_cell_angle_beta   90.00000551
_cell_angle_gamma   60.00794236
_symmetry_Int_Tables_number   1
_chemical_formula_structural   Al17BN18
_chemical_formula_sum   'Al34 B2 N36'
_cell_volume   744.52401099
_cell_formula_units_Z   2
loop_
 _symmetry_equiv_pos_site_id
 _symmetry_equiv_pos_as_xyz
  1  'x, y, z'
loop_
 _atom_site_type_symbol
 _atom_site_label
 _atom_site_symmetry_multiplicity
 _atom_site_fract_x
 _atom_site_fract_y
 _atom_site_fract_z
 _atom_site_occupancy
  Al  Al0  1  0.11140725  0.09418782  0.29686545  1
  Al  Al1  1  0.22546976  0.20047430  0.04695964  1
  Al  Al2  1  0.78044333  0.08888555  0.79258524  1
  Al  Al3  1  0.89072248  0.20047484  0.54695959  1
  Al  Al4  1  0.44733858  0.08888539  0.29258516  1
  Al  Al5  1  0.55883387  0.19950126  0.04723179  1
  Al  Al6  1  0.11107253  0.09418801  0.79686552  1
  Al  Al7  1  0.22433242  0.20438660  0.54702566  1
  Al  Al8  1  0.77890344  0.09180341  0.30392853  1
  Al  Al9  1  0.88794808  0.20438640  0.04702569  1
  Al  Al10  1  0.44596027  0.09180378  0.80392859  1
  Al  Al11  1  0.55833092  0.19950141  0.54723181  1
  Al  Al12  1  0.11134867  0.42779912  0.29636176  1
  Al  Al13  1  0.22088762  0.54067963  0.04655329  1
  Al  Al14  1  0.77751917  0.42779929  0.79636173  1
  Al  Al15  1  0.88985057  0.54420763  0.54684905  1
  Al  Al16  1  0.44406082  0.42774147  0.29713708  1
  Al  Al17  1  0.55709220  0.54238565  0.04705033  1
  Al  Al18  1  0.11071227  0.42785830  0.79717780  1
  Al  Al19  1  0.21718858  0.54238614  0.54705039  1
  Al  Al20  1  0.77809688  0.42785810  0.29717779  1
  Al  Al21  1  0.88260867  0.54420699  0.04684895  1
  Al  Al22  1  0.44486366  0.42774174  0.79713713  1
  Al  Al23  1  0.55509957  0.54067914  0.54655314  1
  Al  Al24  1  0.10848470  0.76232674  0.30382791  1
  Al  Al25  1  0.22433863  0.87299995  0.04731792  1
  Al  Al26  1  0.77770312  0.76510346  0.79928168  1
  Al  Al27  1  0.44713794  0.76412533  0.29307177  1
  Al  Al28  1  0.10540243  0.76412599  0.79307164  1
  Al  Al29  1  0.21932766  0.87300073  0.54731791  1
  Al  Al30  1  0.77385937  0.76510337  0.29928164  1
  Al  Al31  1  0.88330358  0.87368379  0.04869785  1
  Al  Al32  1  0.44585462  0.76232671  0.80382775  1
  Al  Al33  1  0.55967868  0.87368409  0.54869789  1
  B  B34  1  0.88803404  0.87237923  0.54438191  1
  B  B35  1  0.55625343  0.87237878  0.04438193  1
  N  N36  1  0.22471668  0.20436898  0.35420953  1
  N  N37  1  0.11021809  0.09439236  0.10610629  1
  N  N38  1  0.88758176  0.20436904  0.85420946  1
  N  N39  1  0.79022479  0.06926899  0.59843128  1
  N  N40  1  0.55373199  0.20451967  0.35546460  1
  N  N41  1  0.45717313  0.06926850  0.09843136  1
  N  N42  1  0.22159569  0.20566047  0.85691555  1
  N  N43  1  0.11205621  0.09439288  0.60610635  1
  N  N44  1  0.88941140  0.20566017  0.35691541  1
  N  N45  1  0.77878059  0.09278834  0.11183193  1
  N  N46  1  0.55841539  0.20451988  0.85546460  1
  N  N47  1  0.44509761  0.09278840  0.61183213  1
  N  N48  1  0.22225396  0.53840087  0.35680430  1
  N  N49  1  0.11037881  0.42776650  0.10476177  1
  N  N50  1  0.88738952  0.54084319  0.85494732  1
  N  N51  1  0.77852134  0.42776678  0.60476175  1
  N  N52  1  0.55438029  0.54124617  0.35420996  1
  N  N53  1  0.44461221  0.42729133  0.10516005  1
  N  N54  1  0.22103983  0.54124692  0.85421012  1
  N  N55  1  0.11145995  0.42675626  0.60613438  1
  N  N56  1  0.88843435  0.54084319  0.35494737  1
  N  N57  1  0.77845069  0.42675590  0.10613439  1
  N  N58  1  0.55601187  0.53840073  0.85680417  1
  N  N59  1  0.44476275  0.42729139  0.60516009  1
  N  N60  1  0.22478932  0.87124982  0.35553740  1
  N  N61  1  0.10835811  0.76250193  0.11073371  1
  N  N62  1  0.88893245  0.87268080  0.86051122  1
  N  N63  1  0.78914044  0.77429749  0.60312208  1
  N  N64  1  0.55505292  0.87268065  0.36051123  1
  N  N65  1  0.45654018  0.77398800  0.09870965  1
  N  N66  1  0.22062715  0.87124997  0.85553742  1
  N  N67  1  0.08613806  0.77398858  0.59870956  1
  N  N68  1  0.88773229  0.87137657  0.37696011  1
  N  N69  1  0.75322857  0.77429705  0.10312204  1
  N  N70  1  0.55755733  0.87137663  0.87696010  1
  N  N71  1  0.44580629  0.76250187  0.61073351  1
