# generated using pymatgen
data_Al17BN18
_symmetry_space_group_name_H-M   'P 1'
_cell_length_a   9.35924394
_cell_length_b   9.30130223
_cell_length_c   10.20779840
_cell_angle_alpha   89.36276053
_cell_angle_beta   90.00000321
_cell_angle_gamma   59.79370385
_symmetry_Int_Tables_number   1
_chemical_formula_structural   Al17BN18
_chemical_formula_sum   'Al34 B2 N36'
_cell_volume   767.90008107
_cell_formula_units_Z   2
loop_
 _symmetry_equiv_pos_site_id
 _symmetry_equiv_pos_as_xyz
  1  'x, y, z'
loop_
 _atom_site_type_symbol
 _atom_site_label
 _atom_site_symmetry_multiplicity
 _atom_site_fract_x
 _atom_site_fract_y
 _atom_site_fract_z
 _atom_site_occupancy
  Al  Al0  1  0.11123546  0.09704517  0.39055696  1
  Al  Al1  1  0.22896699  0.19507633  0.13903299  1
  Al  Al2  1  0.77575464  0.09902713  0.89702056  1
  Al  Al3  1  0.89262383  0.19507594  0.63903324  1
  Al  Al4  1  0.44188547  0.09902677  0.39702049  1
  Al  Al5  1  0.56177493  0.19231771  0.14425100  1
  Al  Al6  1  0.10838705  0.09704419  0.89055742  1
  Al  Al7  1  0.22518747  0.20063302  0.64564088  1
  Al  Al8  1  0.78267049  0.08327730  0.38892218  1
  Al  Al9  1  0.89084608  0.20063417  0.14564073  1
  Al  Al10  1  0.45071950  0.08327611  0.88892203  1
  Al  Al11  1  0.56257523  0.19231697  0.64425106  1
  Al  Al12  1  0.10796499  0.43505287  0.31797042  1
  Al  Al13  1  0.22494067  0.53733326  0.06542902  1
  Al  Al14  1  0.77364918  0.43505294  0.81797053  1
  Al  Al15  1  0.89261829  0.54346803  0.56743195  1
  Al  Al16  1  0.44119975  0.43300255  0.32058919  1
  Al  Al17  1  0.55878232  0.54103553  0.07013591  1
  Al  Al18  1  0.10771957  0.43379105  0.82272493  1
  Al  Al19  1  0.21685001  0.54103388  0.57013592  1
  Al  Al20  1  0.77515539  0.43379220  0.32272469  1
  Al  Al21  1  0.88058006  0.54346873  0.06743193  1
  Al  Al22  1  0.44246533  0.43300216  0.82058901  1
  Al  Al23  1  0.55439373  0.53733361  0.56542901  1
  Al  Al24  1  0.11177906  0.75963414  0.31382456  1
  Al  Al25  1  0.22918394  0.87394364  0.10850300  1
  Al  Al26  1  0.78221472  0.76544045  0.82043259  1
  Al  Al27  1  0.44918822  0.76558893  0.32963520  1
  Al  Al28  1  0.10188977  0.76558801  0.82963524  1
  Al  Al29  1  0.21353765  0.87394324  0.60850112  1
  Al  Al30  1  0.76901075  0.76544061  0.32043302  1
  Al  Al31  1  0.88432417  0.87190467  0.09730019  1
  Al  Al32  1  0.44525228  0.75963349  0.81382415  1
  Al  Al33  1  0.56043710  0.87190503  0.59730102  1
  B  B34  1  0.89089365  0.86928951  0.60753206  1
  B  B35  1  0.55648195  0.86929050  0.10753237  1
  N  N36  1  0.22710340  0.19959212  0.32654539  1
  N  N37  1  0.10642121  0.10113114  0.07809616  1
  N  N38  1  0.88997184  0.19959214  0.82654554  1
  N  N39  1  0.79385324  0.06193039  0.58371820  1
  N  N40  1  0.55930472  0.19816561  0.33258596  1
  N  N41  1  0.46088310  0.06193082  0.08371814  1
  N  N42  1  0.22652982  0.19981277  0.83524671  1
  N  N43  1  0.10911472  0.10113088  0.57809580  1
  N  N44  1  0.89032369  0.19981394  0.33524667  1
  N  N45  1  0.77319563  0.10619357  0.08155105  1
  N  N46  1  0.55919662  0.19816500  0.83258598  1
  N  N47  1  0.43727817  0.10619347  0.58155097  1
  N  N48  1  0.22182980  0.53882863  0.38355930  1
  N  N49  1  0.10597189  0.43618046  0.12747631  1
  N  N50  1  0.88711197  0.53990939  0.88080854  1
  N  N51  1  0.77451482  0.43618040  0.62747654  1
  N  N52  1  0.55543110  0.53791752  0.37941522  1
  N  N53  1  0.44267004  0.43205424  0.13033386  1
  N  N54  1  0.22331895  0.53791640  0.87941516  1
  N  N55  1  0.10727881  0.43396599  0.63347864  1
  N  N56  1  0.88964555  0.53990940  0.38080866  1
  N  N57  1  0.77542145  0.43396697  0.13347848  1
  N  N58  1  0.55600868  0.53882859  0.88355932  1
  N  N59  1  0.44194394  0.43205362  0.63033359  1
  N  N60  1  0.22312052  0.87207132  0.35103286  1
  N  N61  1  0.12022760  0.75542795  0.12437471  1
  N  N62  1  0.88977242  0.86541047  0.89560952  1
  N  N63  1  0.80058510  0.77450298  0.62530574  1
  N  N64  1  0.56148327  0.86541054  0.39560990  1
  N  N65  1  0.46197464  0.77630997  0.12950738  1
  N  N66  1  0.22147474  0.87207035  0.85103438  1
  N  N67  1  0.07838203  0.77630892  0.62950722  1
  N  N68  1  0.88659759  0.87260599  0.32270281  1
  N  N69  1  0.74157795  0.77450331  0.12530598  1
  N  N70  1  0.55746244  0.87260518  0.82270162  1
  N  N71  1  0.44100976  0.75542854  0.62437421  1
