# generated using pymatgen
data_Al17BN18
_symmetry_space_group_name_H-M   'P 1'
_cell_length_a   9.31590664
_cell_length_b   9.30652136
_cell_length_c   10.04951518
_cell_angle_alpha   89.80912941
_cell_angle_beta   90.00002580
_cell_angle_gamma   59.96662301
_symmetry_Int_Tables_number   1
_chemical_formula_structural   Al17BN18
_chemical_formula_sum   'Al34 B2 N36'
_cell_volume   754.29090009
_cell_formula_units_Z   2
loop_
 _symmetry_equiv_pos_site_id
 _symmetry_equiv_pos_as_xyz
  1  'x, y, z'
loop_
 _atom_site_type_symbol
 _atom_site_label
 _atom_site_symmetry_multiplicity
 _atom_site_fract_x
 _atom_site_fract_y
 _atom_site_fract_z
 _atom_site_occupancy
  Al  Al0  1  0.11281802  0.09449899  0.39726119  1
  Al  Al1  1  0.22726976  0.19890338  0.14494365  1
  Al  Al2  1  0.77775461  0.09624579  0.90072847  1
  Al  Al3  1  0.89049198  0.19890382  0.64494329  1
  Al  Al4  1  0.44266629  0.09624584  0.40072817  1
  Al  Al5  1  0.55792965  0.19886051  0.14788435  1
  Al  Al6  1  0.10934994  0.09449774  0.89726109  1
  Al  Al7  1  0.22042025  0.20723399  0.64970500  1
  Al  Al8  1  0.78008474  0.08836204  0.38984401  1
  Al  Al9  1  0.88901092  0.20723413  0.14970519  1
  Al  Al10  1  0.44822077  0.08836160  0.88984480  1
  Al  Al11  1  0.55987586  0.19886094  0.64788376  1
  Al  Al12  1  0.11144724  0.42679083  0.39544489  1
  Al  Al13  1  0.22485344  0.53778618  0.14970115  1
  Al  Al14  1  0.77842920  0.42679005  0.89544476  1
  Al  Al15  1  0.89181376  0.54248916  0.64446206  1
  Al  Al16  1  0.44592781  0.42692699  0.39697547  1
  Al  Al17  1  0.55781409  0.54276042  0.14463680  1
  Al  Al18  1  0.11097377  0.42965188  0.89690636  1
  Al  Al19  1  0.21609220  0.54276008  0.64463668  1
  Al  Al20  1  0.77604023  0.42965363  0.39690650  1
  Al  Al21  1  0.88236497  0.54248713  0.14446108  1
  Al  Al22  1  0.44381211  0.42692615  0.89697525  1
  Al  Al23  1  0.55402759  0.53778730  0.64970098  1
  Al  Al24  1  0.10621980  0.76422569  0.38879523  1
  Al  Al25  1  0.22928867  0.87435322  0.14798461  1
  Al  Al26  1  0.77421890  0.76477616  0.87736097  1
  Al  Al27  1  0.44321472  0.75941604  0.40140004  1
  Al  Al28  1  0.11403828  0.75941414  0.90140024  1
  Al  Al29  1  0.21302466  0.87435333  0.64798367  1
  Al  Al30  1  0.77767040  0.76477746  0.37735349  1
  Al  Al31  1  0.88481459  0.87440057  0.12230159  1
  Al  Al32  1  0.44622101  0.76422512  0.88879568  1
  Al  Al33  1  0.55745307  0.87440152  0.62230622  1
  B  B34  1  0.88971553  0.86941068  0.60300143  1
  B  B35  1  0.55753962  0.86941069  0.10300296  1
  N  N36  1  0.22331402  0.20532477  0.33410885  1
  N  N37  1  0.11008296  0.09526558  0.08694502  1
  N  N38  1  0.88802798  0.20532400  0.83410851  1
  N  N39  1  0.79265961  0.06344173  0.58655694  1
  N  N40  1  0.55505632  0.20468901  0.33741324  1
  N  N41  1  0.46056490  0.06344156  0.08655754  1
  N  N42  1  0.22172925  0.20609263  0.84007709  1
  N  N43  1  0.11131669  0.09526594  0.58694495  1
  N  N44  1  0.88884389  0.20609414  0.34007714  1
  N  N45  1  0.77459864  0.10425541  0.08986683  1
  N  N46  1  0.55692176  0.20468828  0.83741270  1
  N  N47  1  0.43781217  0.10425494  0.58986673  1
  N  N48  1  0.22296818  0.53853019  0.33963844  1
  N  N49  1  0.11109262  0.42894376  0.08725867  1
  N  N50  1  0.88920300  0.53809201  0.83489446  1
  N  N51  1  0.77663045  0.42894462  0.58725883  1
  N  N52  1  0.55465545  0.53982653  0.33428880  1
  N  N53  1  0.44544126  0.42573375  0.08747725  1
  N  N54  1  0.22218504  0.53982530  0.83428858  1
  N  N55  1  0.11081411  0.42710332  0.58502491  1
  N  N56  1  0.88937178  0.53809223  0.33489322  1
  N  N57  1  0.77874886  0.42710298  0.08502470  1
  N  N58  1  0.55516843  0.53852977  0.83963841  1
  N  N59  1  0.44549163  0.42573465  0.58747742  1
  N  N60  1  0.22307909  0.87253530  0.33748067  1
  N  N61  1  0.12321419  0.75725577  0.09123427  1
  N  N62  1  0.89008802  0.87150765  0.88100116  1
  N  N63  1  0.79878497  0.77399657  0.59568190  1
  N  N64  1  0.55507072  0.87150906  0.38099414  1
  N  N65  1  0.45884818  0.77652550  0.08578856  1
  N  N66  1  0.22105261  0.87253447  0.83747981  1
  N  N67  1  0.08129258  0.77652543  0.58578828  1
  N  N68  1  0.88983742  0.87224859  0.32063552  1
  N  N69  1  0.74388551  0.77399524  0.09568072  1
  N  N70  1  0.55458202  0.87224762  0.82063793  1
  N  N71  1  0.43619811  0.75725768  0.59123422  1
