# generated using pymatgen
data_Al17BN18
_symmetry_space_group_name_H-M   'P 1'
_cell_length_a   9.33084871
_cell_length_b   9.31701140
_cell_length_c   10.05874588
_cell_angle_alpha   89.72103550
_cell_angle_beta   90.00001176
_cell_angle_gamma   59.95079174
_symmetry_Int_Tables_number   1
_chemical_formula_structural   Al17BN18
_chemical_formula_sum   'Al34 B2 N36'
_cell_volume   756.91970459
_cell_formula_units_Z   2
loop_
 _symmetry_equiv_pos_site_id
 _symmetry_equiv_pos_as_xyz
  1  'x, y, z'
loop_
 _atom_site_type_symbol
 _atom_site_label
 _atom_site_symmetry_multiplicity
 _atom_site_fract_x
 _atom_site_fract_y
 _atom_site_fract_z
 _atom_site_occupancy
  Al  Al0  1  0.11295031  0.09448490  0.38720749  1
  Al  Al1  1  0.22731203  0.19860858  0.13476309  1
  Al  Al2  1  0.77670076  0.09681648  0.89244009  1
  Al  Al3  1  0.89074495  0.19860811  0.63476320  1
  Al  Al4  1  0.44314883  0.09681735  0.39244016  1
  Al  Al5  1  0.55782207  0.19926819  0.13817069  1
  Al  Al6  1  0.10923188  0.09448383  0.88720748  1
  Al  Al7  1  0.22052624  0.20716094  0.64058261  1
  Al  Al8  1  0.78107799  0.08578385  0.37915369  1
  Al  Al9  1  0.88897834  0.20716109  0.14058242  1
  Al  Al10  1  0.44980534  0.08578367  0.87915372  1
  Al  Al11  1  0.55957593  0.19926869  0.63817054  1
  Al  Al12  1  0.11315781  0.42630225  0.38324398  1
  Al  Al13  1  0.22593692  0.53785329  0.14020565  1
  Al  Al14  1  0.77720645  0.42630134  0.88324386  1
  Al  Al15  1  0.89155255  0.54234653  0.61198052  1
  Al  Al16  1  0.44647559  0.42661709  0.38710056  1
  Al  Al17  1  0.55687812  0.54290626  0.13445398  1
  Al  Al18  1  0.11216209  0.42885764  0.88490141  1
  Al  Al19  1  0.21688245  0.54290586  0.63445401  1
  Al  Al20  1  0.77564564  0.42885805  0.38490141  1
  Al  Al21  1  0.88276615  0.54234724  0.11198035  1
  Al  Al22  1  0.44357400  0.42661662  0.88710056  1
  Al  Al23  1  0.55287645  0.53785391  0.64020561  1
  Al  Al24  1  0.10491813  0.76430648  0.37773153  1
  Al  Al25  1  0.22929202  0.87481502  0.13833510  1
  Al  Al26  1  0.78329514  0.76751216  0.81535257  1
  Al  Al27  1  0.44319296  0.75878234  0.39306967  1
  Al  Al28  1  0.11469345  0.75878095  0.89306949  1
  Al  Al29  1  0.21255982  0.87481505  0.63833481  1
  Al  Al30  1  0.76585950  0.76751257  0.31535222  1
  Al  Al31  1  0.88571240  0.87546812  0.10403408  1
  Al  Al32  1  0.44744307  0.76430600  0.87773137  1
  Al  Al33  1  0.55548800  0.87546877  0.60403398  1
  B  B34  1  0.89106065  0.87114940  0.59347053  1
  B  B35  1  0.55445654  0.87115005  0.09347050  1
  N  N36  1  0.22513546  0.20363007  0.32357053  1
  N  N37  1  0.10956960  0.09583310  0.07696592  1
  N  N38  1  0.88790120  0.20362933  0.82357057  1
  N  N39  1  0.79305238  0.06326294  0.57677223  1
  N  N40  1  0.55549112  0.20404364  0.32758226  1
  N  N41  1  0.46035069  0.06326344  0.07677240  1
  N  N42  1  0.22261519  0.20499633  0.83033168  1
  N  N43  1  0.11126308  0.09583326  0.57696591  1
  N  N44  1  0.88905450  0.20499692  0.33033140  1
  N  N45  1  0.77334342  0.10676935  0.08060957  1
  N  N46  1  0.55713215  0.20404331  0.82758207  1
  N  N47  1  0.43655337  0.10676997  0.58060976  1
  N  N48  1  0.22437742  0.53833773  0.32942605  1
  N  N49  1  0.11432872  0.42778737  0.07649999  1
  N  N50  1  0.88885652  0.53807231  0.83527212  1
  N  N51  1  0.77455027  0.42778672  0.57649990  1
  N  N52  1  0.55404481  0.54053776  0.32369147  1
  N  N53  1  0.44538056  0.42549654  0.07735508  1
  N  N54  1  0.22208415  0.54053668  0.82369152  1
  N  N55  1  0.11448953  0.42576135  0.57393391  1
  N  N56  1  0.88973659  0.53807283  0.33527264  1
  N  N57  1  0.77641548  0.42576139  0.07393374  1
  N  N58  1  0.55395137  0.53833742  0.82942602  1
  N  N59  1  0.44578965  0.42549704  0.57735508  1
  N  N60  1  0.22395147  0.87247774  0.32772958  1
  N  N61  1  0.12613475  0.75640821  0.08194392  1
  N  N62  1  0.88721472  0.86896286  0.88773406  1
  N  N63  1  0.80104991  0.77782981  0.61721464  1
  N  N64  1  0.56048968  0.86896395  0.38773420  1
  N  N65  1  0.45856613  0.77719781  0.07563940  1
  N  N66  1  0.22023844  0.87247696  0.82772931  1
  N  N67  1  0.08090333  0.77719752  0.57563943  1
  N  N68  1  0.89101443  0.87242452  0.30981254  1
  N  N69  1  0.73778720  0.77783049  0.11721449  1
  N  N70  1  0.55322836  0.87242445  0.80981278  1
  N  N71  1  0.43412470  0.75640907  0.58194403  1
