# generated using pymatgen
data_Al17BN18
_symmetry_space_group_name_H-M   'P 1'
_cell_length_a   9.29041052
_cell_length_b   9.28907969
_cell_length_c   9.99271668
_cell_angle_alpha   89.96875556
_cell_angle_beta   90.00001234
_cell_angle_gamma   59.99522223
_symmetry_Int_Tables_number   1
_chemical_formula_structural   Al17BN18
_chemical_formula_sum   'Al34 B2 N36'
_cell_volume   746.79397012
_cell_formula_units_Z   2
loop_
 _symmetry_equiv_pos_site_id
 _symmetry_equiv_pos_as_xyz
  1  'x, y, z'
loop_
 _atom_site_type_symbol
 _atom_site_label
 _atom_site_symmetry_multiplicity
 _atom_site_fract_x
 _atom_site_fract_y
 _atom_site_fract_z
 _atom_site_occupancy
  Al  Al0  1  0.11165443  0.09436277  0.39629033  1
  Al  Al1  1  0.22647291  0.19993128  0.14557349  1
  Al  Al2  1  0.77946710  0.09151234  0.89203445  1
  Al  Al3  1  0.89026200  0.19993084  0.64557384  1
  Al  Al4  1  0.44568692  0.09151346  0.39203261  1
  Al  Al5  1  0.55827987  0.19898447  0.14613284  1
  Al  Al6  1  0.11065049  0.09436176  0.89628997  1
  Al  Al7  1  0.22287003  0.20533780  0.64692388  1
  Al  Al8  1  0.78020330  0.08880412  0.39682754  1
  Al  Al9  1  0.88845829  0.20533843  0.14692375  1
  Al  Al10  1  0.44766064  0.08880350  0.89682967  1
  Al  Al11  1  0.55940183  0.19898395  0.64613254  1
  Al  Al12  1  0.11092500  0.42749696  0.39566476  1
  Al  Al13  1  0.22217654  0.53958644  0.14731665  1
  Al  Al14  1  0.77824558  0.42749660  0.89566454  1
  Al  Al15  1  0.89007472  0.54414566  0.64606723  1
  Al  Al16  1  0.44522693  0.42735291  0.39608573  1
  Al  Al17  1  0.55724088  0.54291180  0.14560393  1
  Al  Al18  1  0.11104466  0.42857643  0.89663853  1
  Al  Al19  1  0.21651386  0.54291167  0.64560413  1
  Al  Al20  1  0.77704562  0.42857694  0.39663880  1
  Al  Al21  1  0.88244673  0.54414481  0.14606734  1
  Al  Al22  1  0.44408701  0.42735232  0.89608531  1
  Al  Al23  1  0.55490438  0.53958680  0.64731677  1
  Al  Al24  1  0.10590195  0.76395866  0.39622627  1
  Al  Al25  1  0.22634788  0.87350072  0.14615330  1
  Al  Al26  1  0.77428091  0.76505028  0.89241323  1
  Al  Al27  1  0.44588901  0.76207787  0.39244524  1
  Al  Al28  1  0.10869993  0.76207708  0.89244692  1
  Al  Al29  1  0.21681816  0.87350037  0.64615298  1
  Al  Al30  1  0.77733463  0.76505058  0.39240929  1
  Al  Al31  1  0.88347422  0.87360975  0.14208360  1
  Al  Al32  1  0.44680592  0.76395835  0.89622818  1
  Al  Al33  1  0.55958260  0.87361051  0.64208530  1
  B  B34  1  0.88863502  0.87181730  0.63837980  1
  B  B35  1  0.55621401  0.87181716  0.13838993  1
  N  N36  1  0.22232015  0.20551746  0.33514582  1
  N  N37  1  0.11032882  0.09474590  0.08637442  1
  N  N38  1  0.88882930  0.20551674  0.83514594  1
  N  N39  1  0.79089264  0.06760727  0.59090085  1
  N  N40  1  0.55713536  0.20445906  0.33690572  1
  N  N41  1  0.45816591  0.06760847  0.09090262  1
  N  N42  1  0.22367819  0.20502382  0.83849699  1
  N  N43  1  0.11159168  0.09474574  0.58637466  1
  N  N44  1  0.88796498  0.20502472  0.33849698  1
  N  N45  1  0.77836522  0.09465206  0.08318550  1
  N  N46  1  0.55507296  0.20445830  0.83690536  1
  N  N47  1  0.44364959  0.09465108  0.58318372  1
  N  N48  1  0.22181398  0.54019232  0.33837754  1
  N  N49  1  0.11051733  0.42819458  0.08756976  1
  N  N50  1  0.88836317  0.54045269  0.83694433  1
  N  N51  1  0.77795521  0.42819437  0.58756988  1
  N  N52  1  0.55544720  0.53893447  0.33539266  1
  N  N53  1  0.44508516  0.42682684  0.08730694  1
  N  N54  1  0.22228522  0.53893412  0.83539251  1
  N  N55  1  0.11106770  0.42706935  0.58602333  1
  N  N56  1  0.88785109  0.54045241  0.33694450  1
  N  N57  1  0.77852957  0.42706948  0.08602316  1
  N  N58  1  0.55466056  0.54019229  0.83837762  1
  N  N59  1  0.44475485  0.42682715  0.58730728  1
  N  N60  1  0.22169971  0.87153077  0.33691625  1
  N  N61  1  0.11117115  0.76169829  0.08449389  1
  N  N62  1  0.88861095  0.87138693  0.82351404  1
  N  N63  1  0.79084183  0.77446392  0.58818377  1
  N  N64  1  0.55666746  0.87138807  0.32350466  1
  N  N65  1  0.45762307  0.77466120  0.09059933  1
  N  N66  1  0.22343665  0.87152953  0.83691584  1
  N  N67  1  0.08438114  0.77466142  0.59059757  1
  N  N68  1  0.88895998  0.87202719  0.32951046  1
  N  N69  1  0.75136110  0.77446264  0.08818688  1
  N  N70  1  0.55567955  0.87202674  0.82951165  1
  N  N71  1  0.44379842  0.76169907  0.58449240  1
