# generated using pymatgen
data_Al17BN18
_symmetry_space_group_name_H-M   'P 1'
_cell_length_a   9.29831227
_cell_length_b   9.30054527
_cell_length_c   9.94033754
_cell_angle_alpha   90.03206110
_cell_angle_beta   89.99999473
_cell_angle_gamma   60.00794778
_symmetry_Int_Tables_number   1
_chemical_formula_structural   Al17BN18
_chemical_formula_sum   'Al34 B2 N36'
_cell_volume   744.52448886
_cell_formula_units_Z   2
loop_
 _symmetry_equiv_pos_site_id
 _symmetry_equiv_pos_as_xyz
  1  'x, y, z'
loop_
 _atom_site_type_symbol
 _atom_site_label
 _atom_site_symmetry_multiplicity
 _atom_site_fract_x
 _atom_site_fract_y
 _atom_site_fract_z
 _atom_site_occupancy
  Al  Al0  1  0.11110047  0.09413157  0.41031194  1
  Al  Al1  1  0.22549749  0.20041833  0.16021846  1
  Al  Al2  1  0.77893169  0.09174661  0.90324842  1
  Al  Al3  1  0.89075076  0.20041885  0.66021851  1
  Al  Al4  1  0.44598883  0.09174698  0.40324837  1
  Al  Al5  1  0.55886288  0.19944496  0.15994663  1
  Al  Al6  1  0.11143575  0.09413135  0.91031202  1
  Al  Al7  1  0.22436113  0.20432962  0.66015126  1
  Al  Al8  1  0.78047144  0.08882962  0.41459628  1
  Al  Al9  1  0.88797634  0.20432944  0.16015121  1
  Al  Al10  1  0.44736641  0.08882947  0.91459635  1
  Al  Al11  1  0.55835822  0.19944512  0.65994661  1
  Al  Al12  1  0.11074053  0.42780202  0.40999991  1
  Al  Al13  1  0.22091559  0.54062344  0.16062342  1
  Al  Al14  1  0.77812493  0.42780183  0.90999994  1
  Al  Al15  1  0.88987849  0.54415102  0.66032871  1
  Al  Al16  1  0.44489163  0.42768527  0.41004031  1
  Al  Al17  1  0.55712055  0.54232873  0.16012801  1
  Al  Al18  1  0.11137696  0.42774230  0.91081475  1
  Al  Al19  1  0.21721715  0.54232921  0.66012796  1
  Al  Al20  1  0.77754770  0.42774246  0.41081478  1
  Al  Al21  1  0.88263738  0.54415039  0.16032883  1
  Al  Al22  1  0.44408935  0.42768499  0.91004036  1
  Al  Al23  1  0.55512781  0.54062296  0.66062360  1
  Al  Al24  1  0.10543108  0.76406921  0.41410936  1
  Al  Al25  1  0.22436623  0.87294345  0.15986064  1
  Al  Al26  1  0.77388795  0.76504680  0.90789927  1
  Al  Al27  1  0.44588296  0.76227042  0.40334972  1
  Al  Al28  1  0.10851268  0.76227047  0.90334954  1
  Al  Al29  1  0.21935658  0.87294421  0.65986060  1
  Al  Al30  1  0.77773115  0.76504687  0.40789926  1
  Al  Al31  1  0.88333203  0.87362766  0.15848440  1
  Al  Al32  1  0.44716607  0.76406855  0.91410925  1
  Al  Al33  1  0.55970636  0.87362797  0.65848437  1
  B  B34  1  0.88806199  0.87232218  0.66279848  1
  B  B35  1  0.55628255  0.87232173  0.16279846  1
  N  N36  1  0.22162382  0.20560405  0.35026233  1
  N  N37  1  0.11024669  0.09433559  0.10107131  1
  N  N38  1  0.88943971  0.20560376  0.85026249  1
  N  N39  1  0.79025271  0.06921275  0.60874917  1
  N  N40  1  0.55844431  0.20446317  0.35171385  1
  N  N41  1  0.45720145  0.06921228  0.10874909  1
  N  N42  1  0.22474560  0.20431192  0.85296779  1
  N  N43  1  0.11208441  0.09433610  0.60107124  1
  N  N44  1  0.88760991  0.20431197  0.35296784  1
  N  N45  1  0.77880931  0.09273083  0.09534558  1
  N  N46  1  0.55375980  0.20446296  0.85171386  1
  N  N47  1  0.44512643  0.09273088  0.59534539  1
  N  N48  1  0.22106777  0.54119078  0.35296726  1
  N  N49  1  0.11040715  0.42770979  0.10241517  1
  N  N50  1  0.88846223  0.54078703  0.85223061  1
  N  N51  1  0.77854973  0.42771006  0.60241519  1
  N  N52  1  0.55604004  0.53834414  0.35037372  1
  N  N53  1  0.44464074  0.42723471  0.10201761  1
  N  N54  1  0.22228241  0.53834425  0.85037361  1
  N  N55  1  0.11148825  0.42669968  0.60104342  1
  N  N56  1  0.88741781  0.54078700  0.35223068  1
  N  N57  1  0.77847899  0.42669934  0.10104341  1
  N  N58  1  0.55440852  0.54119002  0.85296745  1
  N  N59  1  0.44479086  0.42723479  0.60201757  1
  N  N60  1  0.22065517  0.87119322  0.35164116  1
  N  N61  1  0.10838559  0.76244590  0.09644435  1
  N  N62  1  0.88776033  0.87131961  0.83021865  1
  N  N63  1  0.78916808  0.77424107  0.60405803  1
  N  N64  1  0.55758630  0.87131966  0.33021867  1
  N  N65  1  0.45656847  0.77393117  0.10847047  1
  N  N66  1  0.22481808  0.87119308  0.85164113  1
  N  N67  1  0.08616657  0.77393174  0.60847053  1
  N  N68  1  0.88896067  0.87262448  0.34667048  1
  N  N69  1  0.75325735  0.77424063  0.10405806  1
  N  N70  1  0.55508100  0.87262435  0.84667048  1
  N  N71  1  0.44583489  0.76244582  0.59644456  1
