# generated using pymatgen
data_Al17BN18
_symmetry_space_group_name_H-M   'P 1'
_cell_length_a   9.29830474
_cell_length_b   9.30053506
_cell_length_c   9.94034558
_cell_angle_alpha   89.96805659
_cell_angle_beta   90.00000617
_cell_angle_gamma   60.00793941
_symmetry_Int_Tables_number   1
_chemical_formula_structural   Al17BN18
_chemical_formula_sum   'Al34 B2 N36'
_cell_volume   744.52360877
_cell_formula_units_Z   2
loop_
 _symmetry_equiv_pos_site_id
 _symmetry_equiv_pos_as_xyz
  1  'x, y, z'
loop_
 _atom_site_type_symbol
 _atom_site_label
 _atom_site_symmetry_multiplicity
 _atom_site_fract_x
 _atom_site_fract_y
 _atom_site_fract_z
 _atom_site_occupancy
  Al  Al0  1  0.11141017  0.09418197  0.30298204  1
  Al  Al1  1  0.22547309  0.20046833  0.05307664  1
  Al  Al2  1  0.78044635  0.08887964  0.79870851  1
  Al  Al3  1  0.89072512  0.20046889  0.55307655  1
  Al  Al4  1  0.44734142  0.08887953  0.29870846  1
  Al  Al5  1  0.55883667  0.19949515  0.05335077  1
  Al  Al6  1  0.11107543  0.09418216  0.80298211  1
  Al  Al7  1  0.22433535  0.20438059  0.55314308  1
  Al  Al8  1  0.77890644  0.09179727  0.31004955  1
  Al  Al9  1  0.88795118  0.20438037  0.05314309  1
  Al  Al10  1  0.44596341  0.09179765  0.81004962  1
  Al  Al11  1  0.55833421  0.19949532  0.55335077  1
  Al  Al12  1  0.11135148  0.42779330  0.30247899  1
  Al  Al13  1  0.22089047  0.54067370  0.05267195  1
  Al  Al14  1  0.77752220  0.42779342  0.80247894  1
  Al  Al15  1  0.88985315  0.54420187  0.55296619  1
  Al  Al16  1  0.44406396  0.42773578  0.30325391  1
  Al  Al17  1  0.55709486  0.54238036  0.05316773  1
  Al  Al18  1  0.11071521  0.42785268  0.80329347  1
  Al  Al19  1  0.21719122  0.54238086  0.55316780  1
  Al  Al20  1  0.77809955  0.42785250  0.30329344  1
  Al  Al21  1  0.88261183  0.54420123  0.05296606  1
  Al  Al22  1  0.44486621  0.42773604  0.80325396  1
  Al  Al23  1  0.55510264  0.54067323  0.55267183  1
  Al  Al24  1  0.10848720  0.76232117  0.30994989  1
  Al  Al25  1  0.22434212  0.87299399  0.05343745  1
  Al  Al26  1  0.77770593  0.76509785  0.80540267  1
  Al  Al27  1  0.44714093  0.76411934  0.29919603  1
  Al  Al28  1  0.10540542  0.76411998  0.79919587  1
  Al  Al29  1  0.21933011  0.87299481  0.55343745  1
  Al  Al30  1  0.77386214  0.76509778  0.30540263  1
  Al  Al31  1  0.88330640  0.87367792  0.05482132  1
  Al  Al32  1  0.44585769  0.76232115  0.80994974  1
  Al  Al33  1  0.55968172  0.87367825  0.55482135  1
  B  B34  1  0.88803698  0.87237368  0.55050601  1
  B  B35  1  0.55625604  0.87237323  0.05050603  1
  N  N36  1  0.22471887  0.20436340  0.36032866  1
  N  N37  1  0.11022111  0.09438682  0.11222450  1
  N  N38  1  0.88758515  0.20436342  0.86032859  1
  N  N39  1  0.79022776  0.06926332  0.60455419  1
  N  N40  1  0.55373488  0.20451447  0.36158487  1
  N  N41  1  0.45717583  0.06926284  0.10455429  1
  N  N42  1  0.22159819  0.20565501  0.86303366  1
  N  N43  1  0.11205872  0.09438738  0.61222455  1
  N  N44  1  0.88941435  0.20565472  0.36303348  1
  N  N45  1  0.77878327  0.09278325  0.11795337  1
  N  N46  1  0.55841771  0.20451467  0.86158488  1
  N  N47  1  0.44510004  0.09278332  0.61795359  1
  N  N48  1  0.22225722  0.53839462  0.36292302  1
  N  N49  1  0.11038171  0.42776040  0.11088024  1
  N  N50  1  0.88739282  0.54083699  0.86106571  1
  N  N51  1  0.77852454  0.42776067  0.61088023  1
  N  N52  1  0.55438383  0.54123946  0.36032980  1
  N  N53  1  0.44461534  0.42728559  0.11127844  1
  N  N54  1  0.22104301  0.54124020  0.86032994  1
  N  N55  1  0.11146275  0.42675058  0.61225158  1
  N  N56  1  0.88843721  0.54083701  0.36106578  1
  N  N57  1  0.77845357  0.42675022  0.11225158  1
  N  N58  1  0.55601486  0.53839449  0.86292288  1
  N  N59  1  0.44476537  0.42728565  0.61127849  1
  N  N60  1  0.22479154  0.87124466  0.36165821  1
  N  N61  1  0.10836151  0.76249586  0.11685590  1
  N  N62  1  0.88893514  0.87267484  0.86663496  1
  N  N63  1  0.78914373  0.77429128  0.60924458  1
  N  N64  1  0.55505615  0.87267475  0.36663497  1
  N  N65  1  0.45654322  0.77398193  0.10483320  1
  N  N66  1  0.22063009  0.87124477  0.86165819  1
  N  N67  1  0.08614106  0.77398253  0.60483311  1
  N  N68  1  0.88773519  0.87137081  0.38308339  1
  N  N69  1  0.75323149  0.77429083  0.10924455  1
  N  N70  1  0.55756019  0.87137087  0.88308339  1
  N  N71  1  0.44580898  0.76249583  0.61685571  1
