# generated using pymatgen
data_Al17BN18
_symmetry_space_group_name_H-M   'P 1'
_cell_length_a   9.30713111
_cell_length_b   9.28696450
_cell_length_c   10.31591475
_cell_angle_alpha   89.77304193
_cell_angle_beta   90.00007324
_cell_angle_gamma   59.92807192
_symmetry_Int_Tables_number   1
_chemical_formula_structural   Al17BN18
_chemical_formula_sum   'Al34 B2 N36'
_cell_volume   771.62841398
_cell_formula_units_Z   2
loop_
 _symmetry_equiv_pos_site_id
 _symmetry_equiv_pos_as_xyz
  1  'x, y, z'
loop_
 _atom_site_type_symbol
 _atom_site_label
 _atom_site_symmetry_multiplicity
 _atom_site_fract_x
 _atom_site_fract_y
 _atom_site_fract_z
 _atom_site_occupancy
  Al  Al0  1  0.11294948  0.09528564  0.39124657  1
  Al  Al1  1  0.22994759  0.19324167  0.13820265  1
  Al  Al2  1  0.77547925  0.09878047  0.89669023  1
  Al  Al3  1  0.89347591  0.19324485  0.63819860  1
  Al  Al4  1  0.44240733  0.09877858  0.39669106  1
  Al  Al5  1  0.56219970  0.19116979  0.14325799  1
  Al  Al6  1  0.10843040  0.09528547  0.89124621  1
  Al  Al7  1  0.22229622  0.20047631  0.64447756  1
  Al  Al8  1  0.78081024  0.08600962  0.38393950  1
  Al  Al9  1  0.89389412  0.20047665  0.14448081  1
  Al  Al10  1  0.44984784  0.08600947  0.88393928  1
  Al  Al11  1  0.56329729  0.19117151  0.64325268  1
  Al  Al12  1  0.10766689  0.43501181  0.31627892  1
  Al  Al13  1  0.22898509  0.53024983  0.06955231  1
  Al  Al14  1  0.77398628  0.43501100  0.81627785  1
  Al  Al15  1  0.89100490  0.54559777  0.56517310  1
  Al  Al16  1  0.44272643  0.43292562  0.31897034  1
  Al  Al17  1  0.56232744  0.53429095  0.06894379  1
  Al  Al18  1  0.10675763  0.43503250  0.82134033  1
  Al  Al19  1  0.22004534  0.53429498  0.56894098  1
  Al  Al20  1  0.77487403  0.43503636  0.32134234  1
  Al  Al21  1  0.88006594  0.54559357  0.06517411  1
  Al  Al22  1  0.44101566  0.43292423  0.81896761  1
  Al  Al23  1  0.55742924  0.53025529  0.56955007  1
  Al  Al24  1  0.10344944  0.76853703  0.37837190  1
  Al  Al25  1  0.23275556  0.87189262  0.14181476  1
  Al  Al26  1  0.78481642  0.76592251  0.81420779  1
  Al  Al27  1  0.43997233  0.76697581  0.39776800  1
  Al  Al28  1  0.10972328  0.76697078  0.89776964  1
  Al  Al29  1  0.21201835  0.87189428  0.64181485  1
  Al  Al30  1  0.76592653  0.76592743  0.31420129  1
  Al  Al31  1  0.88679258  0.87482284  0.11066872  1
  Al  Al32  1  0.44468003  0.76853548  0.87838022  1
  Al  Al33  1  0.55505124  0.87482316  0.61068303  1
  B  B34  1  0.89066107  0.87017779  0.59619163  1
  B  B35  1  0.55582826  0.87017743  0.09619201  1
  N  N36  1  0.22692235  0.19934535  0.32511362  1
  N  N37  1  0.11109136  0.09427104  0.07701983  1
  N  N38  1  0.89039893  0.19934288  0.82510991  1
  N  N39  1  0.79146040  0.06369532  0.57745789  1
  N  N40  1  0.55885830  0.19777314  0.32939316  1
  N  N41  1  0.46151153  0.06369585  0.07745944  1
  N  N42  1  0.22462693  0.19944613  0.83263181  1
  N  N43  1  0.11130385  0.09427164  0.57701905  1
  N  N44  1  0.89259119  0.19944973  0.33263463  1
  N  N45  1  0.77396082  0.10725864  0.08040644  1
  N  N46  1  0.56003560  0.19777095  0.82938767  1
  N  N47  1  0.43544896  0.10725502  0.58040716  1
  N  N48  1  0.22560219  0.53345558  0.38320470  1
  N  N49  1  0.10515214  0.43530943  0.12871711  1
  N  N50  1  0.88519685  0.54250874  0.88002752  1
  N  N51  1  0.77620327  0.43531324  0.62871547  1
  N  N52  1  0.55871603  0.53200159  0.38304299  1
  N  N53  1  0.44484963  0.43055168  0.13229143  1
  N  N54  1  0.22595068  0.53199668  0.88304416  1
  N  N55  1  0.10528742  0.43453568  0.63405935  1
  N  N56  1  0.88895857  0.54251476  0.38002667  1
  N  N57  1  0.77684484  0.43453538  0.13406280  1
  N  N58  1  0.55760831  0.53345273  0.88320738  1
  N  N59  1  0.44126378  0.43055443  0.63228778  1
  N  N60  1  0.22564773  0.87163733  0.32726039  1
  N  N61  1  0.12328921  0.76177810  0.08498600  1
  N  N62  1  0.88485111  0.87036415  0.88695330  1
  N  N63  1  0.80027796  0.77586065  0.62238324  1
  N  N64  1  0.56144914  0.87036714  0.38693830  1
  N  N65  1  0.45840594  0.78052748  0.07559315  1
  N  N66  1  0.21938174  0.87163541  0.82726141  1
  N  N67  1  0.07773320  0.78052745  0.57559374  1
  N  N68  1  0.89125828  0.87214306  0.31064891  1
  N  N69  1  0.74053080  0.77585840  0.12237852  1
  N  N70  1  0.55326775  0.87213867  0.81065476  1
  N  N71  1  0.43159875  0.76178429  0.58498466  1
