# generated using pymatgen
data_Al17BN18
_symmetry_space_group_name_H-M   'P 1'
_cell_length_a   9.33611137
_cell_length_b   9.32425522
_cell_length_c   10.23700768
_cell_angle_alpha   89.77974722
_cell_angle_beta   89.99999019
_cell_angle_gamma   59.95798299
_symmetry_Int_Tables_number   1
_chemical_formula_structural   Al17BN18
_chemical_formula_sum   'Al34 B2 N36'
_cell_volume   771.42822159
_cell_formula_units_Z   2
loop_
 _symmetry_equiv_pos_site_id
 _symmetry_equiv_pos_as_xyz
  1  'x, y, z'
loop_
 _atom_site_type_symbol
 _atom_site_label
 _atom_site_symmetry_multiplicity
 _atom_site_fract_x
 _atom_site_fract_y
 _atom_site_fract_z
 _atom_site_occupancy
  Al  Al0  1  0.11221849  0.09594898  0.39097772  1
  Al  Al1  1  0.23037264  0.19302886  0.13713298  1
  Al  Al2  1  0.77721792  0.09751172  0.89647173  1
  Al  Al3  1  0.89326522  0.19302893  0.63713302  1
  Al  Al4  1  0.44193713  0.09751178  0.39647153  1
  Al  Al5  1  0.56068387  0.19524302  0.14196974  1
  Al  Al6  1  0.10849892  0.09594897  0.89097782  1
  Al  Al7  1  0.22279966  0.20013992  0.64369683  1
  Al  Al8  1  0.78148904  0.08503310  0.38413613  1
  Al  Al9  1  0.89372746  0.20013989  0.14369697  1
  Al  Al10  1  0.45014494  0.08503293  0.88413604  1
  Al  Al11  1  0.56074015  0.19524269  0.64197016  1
  Al  Al12  1  0.10646482  0.43467823  0.31549654  1
  Al  Al13  1  0.22540687  0.53229727  0.07150750  1
  Al  Al14  1  0.77552249  0.43467845  0.81549641  1
  Al  Al15  1  0.89140226  0.54546728  0.56455890  1
  Al  Al16  1  0.44577081  0.42542817  0.35117733  1
  Al  Al17  1  0.56285182  0.53614938  0.07061775  1
  Al  Al18  1  0.10634136  0.43496993  0.82036189  1
  Al  Al19  1  0.21766667  0.53614821  0.57061784  1
  Al  Al20  1  0.77535431  0.43497037  0.32036199  1
  Al  Al21  1  0.87979599  0.54546780  0.06455908  1
  Al  Al22  1  0.44546856  0.42542819  0.85117829  1
  Al  Al23  1  0.55896143  0.53229812  0.57150804  1
  Al  Al24  1  0.10233871  0.76963670  0.37690710  1
  Al  Al25  1  0.23238695  0.87220350  0.14148915  1
  Al  Al26  1  0.78520961  0.76576579  0.81417969  1
  Al  Al27  1  0.43925301  0.76822584  0.39682612  1
  Al  Al28  1  0.10918772  0.76822549  0.89682572  1
  Al  Al29  1  0.21207570  0.87220423  0.64148887  1
  Al  Al30  1  0.76569123  0.76576686  0.31417961  1
  Al  Al31  1  0.88565654  0.87512783  0.11015164  1
  Al  Al32  1  0.44469029  0.76963795  0.87690675  1
  Al  Al33  1  0.55588370  0.87512807  0.61015147  1
  B  B34  1  0.89064931  0.87032911  0.59653724  1
  B  B35  1  0.55568817  0.87032975  0.09653724  1
  N  N36  1  0.22653202  0.19985888  0.32553390  1
  N  N37  1  0.11119397  0.09405532  0.07758339  1
  N  N38  1  0.89027556  0.19985914  0.82553393  1
  N  N39  1  0.79147493  0.06288964  0.57835447  1
  N  N40  1  0.55868060  0.19747640  0.32976075  1
  N  N41  1  0.46230194  0.06289011  0.07835442  1
  N  N42  1  0.22499657  0.20011876  0.83347543  1
  N  N43  1  0.11141709  0.09405578  0.57758323  1
  N  N44  1  0.89155114  0.20011924  0.33347548  1
  N  N45  1  0.77458812  0.10602530  0.08129086  1
  N  N46  1  0.56051000  0.19747647  0.82976109  1
  N  N47  1  0.43605342  0.10602541  0.58129073  1
  N  N48  1  0.22026846  0.53658819  0.38079410  1
  N  N49  1  0.10414620  0.43441333  0.12740931  1
  N  N50  1  0.88549429  0.54284884  0.87860768  1
  N  N51  1  0.77810614  0.43441339  0.62740927  1
  N  N52  1  0.55960311  0.53585409  0.38009736  1
  N  N53  1  0.44773018  0.42371184  0.10923829  1
  N  N54  1  0.22120971  0.53585341  0.88009696  1
  N  N55  1  0.10530489  0.43320300  0.63248377  1
  N  N56  1  0.88832275  0.54284932  0.37860756  1
  N  N57  1  0.77815819  0.43320312  0.13248401  1
  N  N58  1  0.55980962  0.53658944  0.88079425  1
  N  N59  1  0.44522502  0.42371145  0.60923900  1
  N  N60  1  0.22447185  0.87298357  0.32800907  1
  N  N61  1  0.12239192  0.76230996  0.08593056  1
  N  N62  1  0.88490989  0.87058654  0.88662770  1
  N  N63  1  0.80109408  0.77521725  0.62146711  1
  N  N64  1  0.56117029  0.87058663  0.38662778  1
  N  N65  1  0.45809536  0.78098396  0.07647597  1
  N  N66  1  0.21921064  0.87298394  0.82800879  1
  N  N67  1  0.07758772  0.78098339  0.57647594  1
  N  N68  1  0.88982035  0.87255597  0.31094498  1
  N  N69  1  0.74035522  0.77521785  0.12146714  1
  N  N70  1  0.55429125  0.87255581  0.81094502  1
  N  N71  1  0.43196463  0.76231081  0.58593098  1
