# generated using pymatgen
data_Al17BN18
_symmetry_space_group_name_H-M   'P 1'
_cell_length_a   9.33422374
_cell_length_b   9.33286524
_cell_length_c   10.15714119
_cell_angle_alpha   89.71749383
_cell_angle_beta   90.03010251
_cell_angle_gamma   59.90747920
_symmetry_Int_Tables_number   1
_chemical_formula_structural   Al17BN18
_chemical_formula_sum   'Al34 B2 N36'
_cell_volume   765.56450333
_cell_formula_units_Z   2
loop_
 _symmetry_equiv_pos_site_id
 _symmetry_equiv_pos_as_xyz
  1  'x, y, z'
loop_
 _atom_site_type_symbol
 _atom_site_label
 _atom_site_symmetry_multiplicity
 _atom_site_fract_x
 _atom_site_fract_y
 _atom_site_fract_z
 _atom_site_occupancy
  Al  Al0  1  0.11251789  0.09373139  0.38982045  1
  Al  Al1  1  0.23009232  0.19404869  0.13406720  1
  Al  Al2  1  0.77701947  0.09698810  0.89474277  1
  Al  Al3  1  0.89249702  0.19423291  0.63499271  1
  Al  Al4  1  0.44236748  0.09701637  0.39455473  1
  Al  Al5  1  0.55883702  0.19813126  0.14076103  1
  Al  Al6  1  0.11009483  0.09330703  0.89011814  1
  Al  Al7  1  0.22287646  0.20024887  0.64149706  1
  Al  Al8  1  0.78058643  0.08496147  0.38131198  1
  Al  Al9  1  0.89406661  0.19947827  0.14133881  1
  Al  Al10  1  0.45156815  0.08471023  0.88146946  1
  Al  Al11  1  0.55919500  0.19847764  0.64031220  1
  Al  Al12  1  0.10478560  0.42965070  0.31825121  1
  Al  Al13  1  0.22855040  0.54144617  0.14094160  1
  Al  Al14  1  0.78078744  0.43034074  0.81954571  1
  Al  Al15  1  0.89134407  0.54425006  0.56341517  1
  Al  Al16  1  0.44593175  0.42625557  0.38867402  1
  Al  Al17  1  0.55370413  0.54479302  0.12505636  1
  Al  Al18  1  0.10623727  0.43182146  0.82233587  1
  Al  Al19  1  0.21775805  0.54639931  0.63444635  1
  Al  Al20  1  0.77631768  0.43300767  0.32008522  1
  Al  Al21  1  0.88189451  0.54450376  0.06340663  1
  Al  Al22  1  0.44334023  0.42548278  0.88900453  1
  Al  Al23  1  0.54773647  0.54097099  0.63707155  1
  Al  Al24  1  0.10474809  0.76464439  0.37964602  1
  Al  Al25  1  0.23096826  0.87424377  0.14140908  1
  Al  Al26  1  0.78533864  0.76637957  0.81380721  1
  Al  Al27  1  0.44243820  0.75964844  0.39458738  1
  Al  Al28  1  0.11498650  0.75982091  0.89554688  1
  Al  Al29  1  0.21158070  0.87499607  0.64079674  1
  Al  Al30  1  0.76548579  0.76629979  0.31399801  1
  Al  Al31  1  0.88602022  0.87407153  0.10598458  1
  Al  Al32  1  0.44675865  0.76625641  0.87834361  1
  Al  Al33  1  0.55724063  0.87451637  0.60548432  1
  B  B34  1  0.89075065  0.86980540  0.59507097  1
  B  B35  1  0.55675180  0.86994315  0.09493496  1
  N  N36  1  0.22664733  0.19758806  0.32482267  1
  N  N37  1  0.11180521  0.09316556  0.07723987  1
  N  N38  1  0.89172946  0.19796267  0.82547191  1
  N  N39  1  0.79217537  0.06195722  0.57776333  1
  N  N40  1  0.55495255  0.20365864  0.32858778  1
  N  N41  1  0.46313586  0.06185415  0.07767111  1
  N  N42  1  0.22552477  0.19954536  0.83392969  1
  N  N43  1  0.11134721  0.09409967  0.57712220  1
  N  N44  1  0.89074567  0.20037160  0.33325083  1
  N  N45  1  0.77372002  0.10578929  0.08123683  1
  N  N46  1  0.55756382  0.20362880  0.82812810  1
  N  N47  1  0.43690155  0.10613383  0.58094702  1
  N  N48  1  0.22454932  0.54034172  0.33270140  1
  N  N49  1  0.10609438  0.43239782  0.12261257  1
  N  N50  1  0.88604287  0.54378256  0.87732969  1
  N  N51  1  0.77865980  0.43283671  0.62412191  1
  N  N52  1  0.54634539  0.54457719  0.32565029  1
  N  N53  1  0.44566136  0.42264634  0.07716214  1
  N  N54  1  0.22448211  0.54494636  0.82579890  1
  N  N55  1  0.10517363  0.42976440  0.62692864  1
  N  N56  1  0.88639117  0.54306295  0.37700434  1
  N  N57  1  0.78275431  0.42911870  0.12516973  1
  N  N58  1  0.55147965  0.54023346  0.83784935  1
  N  N59  1  0.44562421  0.42413306  0.57778601  1
  N  N60  1  0.22321674  0.87290201  0.32890620  1
  N  N61  1  0.12695148  0.75818969  0.08264777  1
  N  N62  1  0.88699075  0.86874713  0.88925206  1
  N  N63  1  0.80277381  0.77432231  0.62026563  1
  N  N64  1  0.56119703  0.86879663  0.38922808  1
  N  N65  1  0.45876561  0.77891680  0.07488412  1
  N  N66  1  0.21995410  0.87301865  0.82824702  1
  N  N67  1  0.08035182  0.77779654  0.57584420  1
  N  N68  1  0.89083505  0.87143470  0.31086480  1
  N  N69  1  0.74045819  0.77422914  0.12050556  1
  N  N70  1  0.55468669  0.87193451  0.81008166  1
  N  N71  1  0.43226823  0.75897436  0.58271921  1
