# generated using pymatgen
data_Al17BN18
_symmetry_space_group_name_H-M   'P 1'
_cell_length_a   9.33753722
_cell_length_b   9.31162455
_cell_length_c   10.13107335
_cell_angle_alpha   89.67704827
_cell_angle_beta   90.03761469
_cell_angle_gamma   59.97972009
_symmetry_Int_Tables_number   1
_chemical_formula_structural   Al17BN18
_chemical_formula_sum   'Al34 B2 N36'
_cell_volume   762.68412738
_cell_formula_units_Z   2
loop_
 _symmetry_equiv_pos_site_id
 _symmetry_equiv_pos_as_xyz
  1  'x, y, z'
loop_
 _atom_site_type_symbol
 _atom_site_label
 _atom_site_symmetry_multiplicity
 _atom_site_fract_x
 _atom_site_fract_y
 _atom_site_fract_z
 _atom_site_occupancy
  Al  Al0  1  0.11139008  0.09473020  0.31026015  1
  Al  Al1  1  0.21923756  0.20469614  0.06159842  1
  Al  Al2  1  0.77667460  0.09299800  0.88450660  1
  Al  Al3  1  0.88910604  0.19829959  0.56085833  1
  Al  Al4  1  0.45003459  0.09354833  0.38766849  1
  Al  Al5  1  0.55286539  0.19588448  0.12490823  1
  Al  Al6  1  0.11164318  0.09576399  0.80863277  1
  Al  Al7  1  0.21331331  0.21192421  0.56130087  1
  Al  Al8  1  0.78207221  0.08849259  0.32920047  1
  Al  Al9  1  0.89225938  0.21355709  0.06134015  1
  Al  Al10  1  0.45338172  0.08061435  0.87409725  1
  Al  Al11  1  0.56714906  0.19017737  0.63645265  1
  Al  Al12  1  0.11011241  0.42990739  0.30899494  1
  Al  Al13  1  0.22358852  0.54000220  0.05449585  1
  Al  Al14  1  0.77676081  0.42973104  0.80741935  1
  Al  Al15  1  0.89091455  0.54538061  0.55792790  1
  Al  Al16  1  0.43985026  0.43327179  0.30781436  1
  Al  Al17  1  0.55696008  0.54411667  0.06004475  1
  Al  Al18  1  0.11127103  0.42776231  0.80984945  1
  Al  Al19  1  0.21763145  0.54221247  0.56176500  1
  Al  Al20  1  0.77731520  0.42890740  0.31076438  1
  Al  Al21  1  0.87943583  0.54607409  0.05706295  1
  Al  Al22  1  0.44228243  0.43400390  0.81134559  1
  Al  Al23  1  0.55348086  0.53710012  0.55578074  1
  Al  Al24  1  0.11658084  0.75808621  0.30338688  1
  Al  Al25  1  0.22862249  0.87544970  0.05788769  1
  Al  Al26  1  0.78427654  0.76296455  0.81014250  1
  Al  Al27  1  0.44587369  0.76591438  0.31708448  1
  Al  Al28  1  0.10466838  0.76675082  0.81600361  1
  Al  Al29  1  0.21316370  0.87455438  0.55851076  1
  Al  Al30  1  0.76926508  0.76274263  0.31122097  1
  Al  Al31  1  0.88825823  0.86810908  0.09043405  1
  Al  Al32  1  0.44214501  0.75962692  0.80221125  1
  Al  Al33  1  0.55926981  0.87204181  0.59350774  1
  B  B34  1  0.89082344  0.87339392  0.60228005  1
  B  B35  1  0.55430714  0.86941871  0.09820473  1
  N  N36  1  0.21646885  0.20903586  0.36888114  1
  N  N37  1  0.11110992  0.09502113  0.12256423  1
  N  N38  1  0.89210810  0.20950903  0.87111111  1
  N  N39  1  0.79672957  0.05856986  0.59364351  1
  N  N40  1  0.55403149  0.19987860  0.31500787  1
  N  N41  1  0.46166699  0.05814071  0.07209017  1
  N  N42  1  0.22003896  0.20749206  0.87229157  1
  N  N43  1  0.10983833  0.09524342  0.62080793  1
  N  N44  1  0.88858469  0.20594048  0.36975707  1
  N  N45  1  0.77483038  0.10236361  0.08589866  1
  N  N46  1  0.55815959  0.20074930  0.82844965  1
  N  N47  1  0.44192354  0.10361739  0.57600309  1
  N  N48  1  0.22192984  0.53921386  0.37268326  1
  N  N49  1  0.10840739  0.43231054  0.11874358  1
  N  N50  1  0.88823228  0.53988737  0.86891303  1
  N  N51  1  0.77699416  0.42903087  0.61751785  1
  N  N52  1  0.55463781  0.53812223  0.36673604  1
  N  N53  1  0.44202164  0.43268259  0.11588802  1
  N  N54  1  0.22164617  0.54001639  0.86686402  1
  N  N55  1  0.10908007  0.42972995  0.62194370  1
  N  N56  1  0.88864121  0.53979556  0.36935729  1
  N  N57  1  0.77705030  0.43091793  0.12239902  1
  N  N58  1  0.55608317  0.54076152  0.87206457  1
  N  N59  1  0.44373487  0.42906762  0.62041238  1
  N  N60  1  0.22064520  0.87240739  0.36960599  1
  N  N61  1  0.12633282  0.75665385  0.11530291  1
  N  N62  1  0.89259261  0.86326414  0.88802276  1
  N  N63  1  0.80292788  0.77235235  0.61593765  1
  N  N64  1  0.56067392  0.86360114  0.38436641  1
  N  N65  1  0.45702395  0.77765644  0.11925003  1
  N  N66  1  0.22368156  0.87341570  0.86933911  1
  N  N67  1  0.08319563  0.77628031  0.62011389  1
  N  N68  1  0.89063638  0.86714968  0.30811853  1
  N  N69  1  0.74029736  0.77337517  0.11456157  1
  N  N70  1  0.55740414  0.87133933  0.80808626  1
  N  N71  1  0.43530027  0.75590563  0.61462646  1
