# generated using pymatgen
data_Al17BN18
_symmetry_space_group_name_H-M   'P 1'
_cell_length_a   9.34139174
_cell_length_b   9.32138934
_cell_length_c   10.14211417
_cell_angle_alpha   89.46413330
_cell_angle_beta   89.92257502
_cell_angle_gamma   59.88648407
_symmetry_Int_Tables_number   1
_chemical_formula_structural   Al17BN18
_chemical_formula_sum   'Al34 B2 N36'
_cell_volume   763.89068804
_cell_formula_units_Z   2
loop_
 _symmetry_equiv_pos_site_id
 _symmetry_equiv_pos_as_xyz
  1  'x, y, z'
loop_
 _atom_site_type_symbol
 _atom_site_label
 _atom_site_symmetry_multiplicity
 _atom_site_fract_x
 _atom_site_fract_y
 _atom_site_fract_z
 _atom_site_occupancy
  Al  Al0  1  0.10762729  0.09334904  0.31943469  1
  Al  Al1  1  0.22535850  0.20182257  0.10678923  1
  Al  Al2  1  0.77387302  0.09317861  0.89867339  1
  Al  Al3  1  0.89320152  0.20433609  0.57416653  1
  Al  Al4  1  0.44201419  0.09656633  0.39673635  1
  Al  Al5  1  0.56132325  0.19175622  0.14661503  1
  Al  Al6  1  0.10993672  0.09376295  0.82714029  1
  Al  Al7  1  0.22242715  0.20778639  0.61952098  1
  Al  Al8  1  0.78100472  0.08015030  0.38740142  1
  Al  Al9  1  0.88924633  0.21335736  0.07154509  1
  Al  Al10  1  0.45271285  0.08183481  0.89008217  1
  Al  Al11  1  0.56611467  0.19135761  0.64483546  1
  Al  Al12  1  0.10916697  0.43233892  0.31845447  1
  Al  Al13  1  0.22489485  0.53993112  0.06698592  1
  Al  Al14  1  0.77583943  0.43102292  0.82009276  1
  Al  Al15  1  0.89184210  0.54498117  0.56895925  1
  Al  Al16  1  0.44109798  0.43195342  0.32279265  1
  Al  Al17  1  0.55661166  0.54262660  0.07313534  1
  Al  Al18  1  0.10897549  0.43190657  0.82828466  1
  Al  Al19  1  0.21773038  0.54248492  0.57278779  1
  Al  Al20  1  0.77806051  0.42691053  0.32246495  1
  Al  Al21  1  0.87788288  0.54762896  0.06854063  1
  Al  Al22  1  0.44375309  0.43219529  0.82201445  1
  Al  Al23  1  0.55360260  0.53842732  0.56706450  1
  Al  Al24  1  0.11540747  0.75883407  0.31514861  1
  Al  Al25  1  0.22828939  0.87408405  0.06911584  1
  Al  Al26  1  0.78275387  0.76481578  0.82146289  1
  Al  Al27  1  0.44561181  0.76657141  0.32872715  1
  Al  Al28  1  0.10483695  0.76610065  0.82774730  1
  Al  Al29  1  0.21369143  0.87464857  0.56984403  1
  Al  Al30  1  0.76886142  0.76327767  0.32282389  1
  Al  Al31  1  0.88670771  0.87216700  0.10619776  1
  Al  Al32  1  0.44254302  0.75977005  0.81460743  1
  Al  Al33  1  0.55924203  0.87112873  0.60246973  1
  B  B34  1  0.89284759  0.86923053  0.61041700  1
  B  B35  1  0.55506080  0.86937268  0.11094176  1
  N  N36  1  0.22455718  0.20411773  0.34091253  1
  N  N37  1  0.10685559  0.09202320  0.13022424  1
  N  N38  1  0.88925354  0.21044943  0.88010972  1
  N  N39  1  0.79544996  0.05839339  0.58634431  1
  N  N40  1  0.55876890  0.19800680  0.33514690  1
  N  N41  1  0.46394538  0.05885554  0.08615493  1
  N  N42  1  0.22271131  0.20607161  0.87104101  1
  N  N43  1  0.11057300  0.09271207  0.63639255  1
  N  N44  1  0.88929716  0.20633771  0.38548818  1
  N  N45  1  0.77185910  0.10285606  0.08661171  1
  N  N46  1  0.55958470  0.19798137  0.83328252  1
  N  N47  1  0.44104295  0.10387288  0.58429196  1
  N  N48  1  0.22113523  0.53956084  0.38504749  1
  N  N49  1  0.10420026  0.43890841  0.12719040  1
  N  N50  1  0.88518751  0.54234769  0.88098348  1
  N  N51  1  0.77665521  0.43177254  0.63045919  1
  N  N52  1  0.55495212  0.53880911  0.37892941  1
  N  N53  1  0.44292542  0.43012908  0.13134924  1
  N  N54  1  0.22386543  0.54002002  0.87937138  1
  N  N55  1  0.10781540  0.43371774  0.63681866  1
  N  N56  1  0.88886685  0.53932712  0.38128710  1
  N  N57  1  0.77727123  0.43033134  0.13421160  1
  N  N58  1  0.55529509  0.54022483  0.88460446  1
  N  N59  1  0.44384229  0.42983436  0.63054503  1
  N  N60  1  0.22008968  0.87215911  0.38191615  1
  N  N61  1  0.12583276  0.75643474  0.12780744  1
  N  N62  1  0.89269891  0.86328055  0.89564125  1
  N  N63  1  0.80255779  0.77317526  0.62588263  1
  N  N64  1  0.56013848  0.86418633  0.39704604  1
  N  N65  1  0.45701129  0.77808680  0.13118636  1
  N  N66  1  0.22440029  0.87067612  0.88149948  1
  N  N67  1  0.08232202  0.77717536  0.63065466  1
  N  N68  1  0.88825914  0.87088024  0.32019167  1
  N  N69  1  0.74050467  0.77386366  0.12724561  1
  N  N70  1  0.55604148  0.87320684  0.81975392  1
  N  N71  1  0.43521188  0.75628580  0.62691848  1
