# generated using pymatgen
data_Al17BN18
_symmetry_space_group_name_H-M   'P 1'
_cell_length_a   9.33304438
_cell_length_b   9.31679902
_cell_length_c   10.10855137
_cell_angle_alpha   89.79655089
_cell_angle_beta   90.04321886
_cell_angle_gamma   60.00164845
_symmetry_Int_Tables_number   1
_chemical_formula_structural   Al17BN18
_chemical_formula_sum   'Al34 B2 N36'
_cell_volume   761.22358457
_cell_formula_units_Z   2
loop_
 _symmetry_equiv_pos_site_id
 _symmetry_equiv_pos_as_xyz
  1  'x, y, z'
loop_
 _atom_site_type_symbol
 _atom_site_label
 _atom_site_symmetry_multiplicity
 _atom_site_fract_x
 _atom_site_fract_y
 _atom_site_fract_z
 _atom_site_occupancy
  Al  Al0  1  0.11401653  0.09317978  0.38886006  1
  Al  Al1  1  0.22622054  0.19997408  0.13569012  1
  Al  Al2  1  0.77701766  0.09635965  0.89370822  1
  Al  Al3  1  0.89259204  0.19517152  0.63292898  1
  Al  Al4  1  0.44365093  0.09615535  0.39323816  1
  Al  Al5  1  0.55803303  0.19938857  0.13903517  1
  Al  Al6  1  0.11059083  0.09318064  0.88859236  1
  Al  Al7  1  0.21954689  0.20821840  0.64121337  1
  Al  Al8  1  0.78077089  0.08424345  0.38042386  1
  Al  Al9  1  0.89215117  0.20243478  0.14030203  1
  Al  Al10  1  0.45091461  0.08494111  0.87989846  1
  Al  Al11  1  0.55897444  0.19944442  0.63903735  1
  Al  Al12  1  0.11849888  0.42350670  0.38495075  1
  Al  Al13  1  0.22508601  0.53749265  0.14101264  1
  Al  Al14  1  0.78047036  0.42804613  0.82960624  1
  Al  Al15  1  0.88480995  0.54900828  0.56449119  1
  Al  Al16  1  0.44599254  0.42658886  0.38872329  1
  Al  Al17  1  0.55305976  0.54498786  0.13435099  1
  Al  Al18  1  0.11814765  0.42593037  0.88748230  1
  Al  Al19  1  0.21492053  0.54279212  0.63608651  1
  Al  Al20  1  0.77781300  0.43018628  0.33648781  1
  Al  Al21  1  0.87489211  0.54849506  0.06416238  1
  Al  Al22  1  0.44426383  0.42627553  0.88869615  1
  Al  Al23  1  0.54751573  0.54083140  0.63907726  1
  Al  Al24  1  0.10482031  0.76428386  0.37822971  1
  Al  Al25  1  0.22968489  0.87441944  0.13937942  1
  Al  Al26  1  0.78589779  0.76549349  0.81271599  1
  Al  Al27  1  0.44239163  0.76012514  0.39443009  1
  Al  Al28  1  0.11493092  0.75893948  0.89411296  1
  Al  Al29  1  0.21219330  0.87490123  0.63956727  1
  Al  Al30  1  0.76609328  0.76579467  0.31219219  1
  Al  Al31  1  0.88606036  0.87459298  0.10506254  1
  Al  Al32  1  0.44756360  0.76473417  0.87922903  1
  Al  Al33  1  0.55513780  0.87566649  0.60618548  1
  B  B34  1  0.89106885  0.87019796  0.59460750  1
  B  B35  1  0.55450286  0.87144218  0.09458258  1
  N  N36  1  0.22480902  0.20329526  0.32405095  1
  N  N37  1  0.11124137  0.09441630  0.07704043  1
  N  N38  1  0.89191889  0.19748108  0.82397660  1
  N  N39  1  0.79243039  0.06190983  0.57703245  1
  N  N40  1  0.55543206  0.20418420  0.32805937  1
  N  N41  1  0.46066364  0.06309959  0.07719638  1
  N  N42  1  0.22289371  0.20452032  0.83052137  1
  N  N43  1  0.11244327  0.09476368  0.57714380  1
  N  N44  1  0.89186344  0.19943321  0.33292016  1
  N  N45  1  0.77344029  0.10579288  0.08075031  1
  N  N46  1  0.55754803  0.20404382  0.82794564  1
  N  N47  1  0.43635560  0.10641547  0.58096886  1
  N  N48  1  0.22425214  0.53843644  0.32955915  1
  N  N49  1  0.11550278  0.42700162  0.07889851  1
  N  N50  1  0.88532970  0.54463485  0.87294804  1
  N  N51  1  0.77693096  0.43055671  0.61251883  1
  N  N52  1  0.54773122  0.54394368  0.32589684  1
  N  N53  1  0.44495442  0.42523924  0.07774774  1
  N  N54  1  0.22239265  0.54059726  0.82447214  1
  N  N55  1  0.11505394  0.42523457  0.57650598  1
  N  N56  1  0.88583679  0.54572728  0.37318656  1
  N  N57  1  0.77926887  0.42826011  0.11510028  1
  N  N58  1  0.55025199  0.54048819  0.83088313  1
  N  N59  1  0.44425331  0.42547628  0.57781632  1
  N  N60  1  0.22390589  0.87234890  0.32796121  1
  N  N61  1  0.12638259  0.75618136  0.08231259  1
  N  N62  1  0.88759848  0.86853456  0.88738938  1
  N  N63  1  0.80200943  0.77511613  0.61978902  1
  N  N64  1  0.56101543  0.86892639  0.38679195  1
  N  N65  1  0.45849176  0.77769720  0.07570434  1
  N  N66  1  0.22104126  0.87185477  0.82817869  1
  N  N67  1  0.08044309  0.77704226  0.57608158  1
  N  N68  1  0.89118910  0.87136863  0.30986785  1
  N  N69  1  0.73874860  0.77640957  0.11883704  1
  N  N70  1  0.55449236  0.87144048  0.81022030  1
  N  N71  1  0.43271886  0.75844267  0.58193890  1
