# generated using pymatgen
data_Al17BN18
_symmetry_space_group_name_H-M   'P 1'
_cell_length_a   9.33297559
_cell_length_b   9.33136258
_cell_length_c   10.00007601
_cell_angle_alpha   89.94130620
_cell_angle_beta   89.94850004
_cell_angle_gamma   60.02610705
_symmetry_Int_Tables_number   1
_chemical_formula_structural   Al17BN18
_chemical_formula_sum   'Al34 B2 N36'
_cell_volume   754.41974556
_cell_formula_units_Z   2
loop_
 _symmetry_equiv_pos_site_id
 _symmetry_equiv_pos_as_xyz
  1  'x, y, z'
loop_
 _atom_site_type_symbol
 _atom_site_label
 _atom_site_symmetry_multiplicity
 _atom_site_fract_x
 _atom_site_fract_y
 _atom_site_fract_z
 _atom_site_occupancy
  Al  Al0  1  0.11013580  0.09520626  0.30875370  1
  Al  Al1  1  0.22959429  0.19670118  0.06105355  1
  Al  Al2  1  0.78605680  0.08567761  0.80778634  1
  Al  Al3  1  0.89076831  0.20139253  0.56157984  1
  Al  Al4  1  0.44447350  0.08867433  0.34325472  1
  Al  Al5  1  0.55737951  0.19630204  0.12584956  1
  Al  Al6  1  0.11269956  0.09317754  0.81192881  1
  Al  Al7  1  0.21501203  0.20979862  0.56066386  1
  Al  Al8  1  0.78559118  0.08925849  0.32312160  1
  Al  Al9  1  0.88848072  0.20439940  0.05985378  1
  Al  Al10  1  0.44383366  0.09145000  0.80615815  1
  Al  Al11  1  0.56043046  0.20295176  0.60779018  1
  Al  Al12  1  0.11079806  0.42833426  0.30843329  1
  Al  Al13  1  0.22123013  0.54034458  0.05899974  1
  Al  Al14  1  0.77678178  0.42946319  0.81110809  1
  Al  Al15  1  0.89107757  0.54303760  0.55963526  1
  Al  Al16  1  0.43982699  0.43498965  0.31397884  1
  Al  Al17  1  0.55828024  0.54293934  0.06110464  1
  Al  Al18  1  0.11110507  0.42774045  0.81266060  1
  Al  Al19  1  0.21474461  0.54427633  0.56059119  1
  Al  Al20  1  0.77865834  0.42750264  0.31034513  1
  Al  Al21  1  0.88165784  0.54451014  0.06132436  1
  Al  Al22  1  0.44305100  0.43251423  0.81060820  1
  Al  Al23  1  0.55415260  0.54027417  0.55760347  1
  Al  Al24  1  0.10834709  0.76229765  0.31505676  1
  Al  Al25  1  0.22536702  0.87338438  0.06179206  1
  Al  Al26  1  0.78220066  0.76308481  0.80432976  1
  Al  Al27  1  0.44647895  0.76413058  0.31677995  1
  Al  Al28  1  0.10621768  0.76397899  0.80753222  1
  Al  Al29  1  0.21513922  0.87399368  0.55891797  1
  Al  Al30  1  0.77495547  0.76464922  0.32391228  1
  Al  Al31  1  0.88147676  0.87423245  0.06271127  1
  Al  Al32  1  0.44405481  0.76041022  0.80718919  1
  Al  Al33  1  0.56048788  0.86916511  0.58125154  1
  B  B34  1  0.89255731  0.86859675  0.55711875  1
  B  B35  1  0.55475638  0.87326202  0.10750495  1
  N  N36  1  0.21683010  0.20825911  0.36993430  1
  N  N37  1  0.11067216  0.09460334  0.11915989  1
  N  N38  1  0.88887621  0.20486162  0.86880472  1
  N  N39  1  0.79661181  0.06593015  0.61039789  1
  N  N40  1  0.55490004  0.20606173  0.33923426  1
  N  N41  1  0.45820802  0.06045271  0.12062573  1
  N  N42  1  0.22461166  0.20427521  0.87095146  1
  N  N43  1  0.11069837  0.09435791  0.62179813  1
  N  N44  1  0.89048518  0.20710418  0.37221996  1
  N  N45  1  0.78626423  0.08927979  0.12776270  1
  N  N46  1  0.55882392  0.20463469  0.82580847  1
  N  N47  1  0.43689016  0.09929263  0.60583793  1
  N  N48  1  0.21941006  0.53994346  0.37085348  1
  N  N49  1  0.11166173  0.42651526  0.11783320  1
  N  N50  1  0.88796600  0.54153748  0.87065960  1
  N  N51  1  0.77687211  0.42942094  0.61941953  1
  N  N52  1  0.55624710  0.54002994  0.36738675  1
  N  N53  1  0.44246876  0.43210065  0.11972390  1
  N  N54  1  0.22093008  0.54159190  0.86834545  1
  N  N55  1  0.10977770  0.42854142  0.62219087  1
  N  N56  1  0.88974536  0.53866677  0.36860960  1
  N  N57  1  0.77880080  0.42634052  0.12012644  1
  N  N58  1  0.55517234  0.54045217  0.87210495  1
  N  N59  1  0.43920111  0.43583531  0.61587479  1
  N  N60  1  0.22154994  0.87329121  0.36766779  1
  N  N61  1  0.10847141  0.76176731  0.12338871  1
  N  N62  1  0.88989488  0.87036815  0.87565722  1
  N  N63  1  0.79894384  0.77051724  0.61085118  1
  N  N64  1  0.55803090  0.86663254  0.38581987  1
  N  N65  1  0.45974607  0.77554360  0.12037947  1
  N  N66  1  0.22237911  0.87005349  0.87093062  1
  N  N67  1  0.08630224  0.77409130  0.61305195  1
  N  N68  1  0.89110427  0.87034899  0.39067015  1
  N  N69  1  0.74808142  0.77685475  0.12536418  1
  N  N70  1  0.55920182  0.86871734  0.82824803  1
  N  N71  1  0.43695579  0.75833147  0.61634765  1
