# generated using pymatgen
data_Al17BN18
_symmetry_space_group_name_H-M   'P 1'
_cell_length_a   9.31421739
_cell_length_b   9.30717468
_cell_length_c   10.08054623
_cell_angle_alpha   89.69230696
_cell_angle_beta   90.00002066
_cell_angle_gamma   59.97497553
_symmetry_Int_Tables_number   1
_chemical_formula_structural   Al17BN18
_chemical_formula_sum   'Al34 B2 N36'
_cell_volume   756.59071870
_cell_formula_units_Z   2
loop_
 _symmetry_equiv_pos_site_id
 _symmetry_equiv_pos_as_xyz
  1  'x, y, z'
loop_
 _atom_site_type_symbol
 _atom_site_label
 _atom_site_symmetry_multiplicity
 _atom_site_fract_x
 _atom_site_fract_y
 _atom_site_fract_z
 _atom_site_occupancy
  Al  Al0  1  0.11287227  0.09449031  0.39757561  1
  Al  Al1  1  0.22761813  0.19851492  0.14509248  1
  Al  Al2  1  0.77667960  0.09759688  0.90278554  1
  Al  Al3  1  0.89053211  0.19851536  0.64509226  1
  Al  Al4  1  0.44238984  0.09759733  0.40278545  1
  Al  Al5  1  0.55794590  0.19912301  0.14852965  1
  Al  Al6  1  0.10930423  0.09448914  0.89757556  1
  Al  Al7  1  0.22042682  0.20715718  0.65058782  1
  Al  Al8  1  0.78090479  0.08702446  0.39011421  1
  Al  Al9  1  0.88908124  0.20715733  0.15058789  1
  Al  Al10  1  0.44873780  0.08702419  0.89011464  1
  Al  Al11  1  0.55959707  0.19912351  0.64852930  1
  Al  Al12  1  0.11100306  0.42741168  0.39517907  1
  Al  Al13  1  0.22545582  0.53756719  0.15042220  1
  Al  Al14  1  0.77825270  0.42741101  0.89517917  1
  Al  Al15  1  0.89398859  0.53735198  0.64284874  1
  Al  Al16  1  0.44624823  0.42682659  0.39727342  1
  Al  Al17  1  0.55779437  0.54265834  0.14455751  1
  Al  Al18  1  0.11030204  0.42985788  0.89678162  1
  Al  Al19  1  0.21621446  0.54265791  0.64455744  1
  Al  Al20  1  0.77650627  0.42985946  0.39678162  1
  Al  Al21  1  0.88532760  0.53735101  0.14284800  1
  Al  Al22  1  0.44359238  0.42682575  0.89727329  1
  Al  Al23  1  0.55364433  0.53756812  0.65042210  1
  Al  Al24  1  0.10525344  0.76431340  0.38891262  1
  Al  Al25  1  0.22954620  0.87438456  0.14875046  1
  Al  Al26  1  0.78113571  0.76999897  0.82830921  1
  Al  Al27  1  0.44304304  0.75858566  0.40340283  1
  Al  Al28  1  0.11504002  0.75858388  0.90340276  1
  Al  Al29  1  0.21273562  0.87438474  0.64874983  1
  Al  Al30  1  0.76553091  0.76999923  0.32830634  1
  Al  Al31  1  0.88552609  0.87470108  0.11452430  1
  Al  Al32  1  0.44709963  0.76431266  0.88891283  1
  Al  Al33  1  0.55644039  0.87470212  0.61452583  1
  B  B34  1  0.89038532  0.86993843  0.60400832  1
  B  B35  1  0.55634260  0.86993836  0.10400806  1
  N  N36  1  0.22414685  0.20478289  0.33396518  1
  N  N37  1  0.10999594  0.09536809  0.08710682  1
  N  N38  1  0.88773695  0.20478231  0.83396501  1
  N  N39  1  0.79274538  0.06316522  0.58698405  1
  N  N40  1  0.55532317  0.20433311  0.33764257  1
  N  N41  1  0.46075545  0.06316514  0.08698441  1
  N  N42  1  0.22160645  0.20621044  0.84043752  1
  N  N43  1  0.11130124  0.09536845  0.58710675  1
  N  N44  1  0.88884884  0.20621163  0.34043751  1
  N  N45  1  0.77363694  0.10644573  0.09070303  1
  N  N46  1  0.55701069  0.20433239  0.83764225  1
  N  N47  1  0.43658309  0.10644615  0.59070310  1
  N  N48  1  0.22341507  0.53839250  0.33981696  1
  N  N49  1  0.11221050  0.42840909  0.08671494  1
  N  N50  1  0.88991212  0.53611026  0.83410509  1
  N  N51  1  0.77604743  0.42840996  0.58671506  1
  N  N52  1  0.55486580  0.54033450  0.33399296  1
  N  N53  1  0.44546571  0.42556603  0.08747099  1
  N  N54  1  0.22146708  0.54033318  0.83399283  1
  N  N55  1  0.11146829  0.42676747  0.58410566  1
  N  N56  1  0.89064448  0.53611072  0.33410431  1
  N  N57  1  0.77843098  0.42676740  0.08410568  1
  N  N58  1  0.55485957  0.53839198  0.83981697  1
  N  N59  1  0.44563523  0.42556671  0.58747109  1
  N  N60  1  0.22388312  0.87252675  0.33787720  1
  N  N61  1  0.12593205  0.75621837  0.09207063  1
  N  N62  1  0.88760502  0.86963574  0.89734814  1
  N  N63  1  0.80073842  0.77661506  0.62754324  1
  N  N64  1  0.55942606  0.86963694  0.39734643  1
  N  N65  1  0.45899178  0.77672330  0.08607347  1
  N  N66  1  0.22025711  0.87252594  0.83787665  1
  N  N67  1  0.08095123  0.77672323  0.58607341  1
  N  N68  1  0.89123600  0.87335245  0.32109311  1
  N  N69  1  0.73931348  0.77661444  0.12754163  1
  N  N70  1  0.55207789  0.87335225  0.82109416  1
  N  N71  1  0.43451682  0.75621973  0.59207074  1
