# generated using pymatgen
data_Al17BN18
_symmetry_space_group_name_H-M   'P 1'
_cell_length_a   9.33608199
_cell_length_b   9.32866586
_cell_length_c   10.13239152
_cell_angle_alpha   89.73992030
_cell_angle_beta   89.96082448
_cell_angle_gamma   59.98652055
_symmetry_Int_Tables_number   1
_chemical_formula_structural   Al17BN18
_chemical_formula_sum   'Al34 B2 N36'
_cell_volume   764.12178220
_cell_formula_units_Z   2
loop_
 _symmetry_equiv_pos_site_id
 _symmetry_equiv_pos_as_xyz
  1  'x, y, z'
loop_
 _atom_site_type_symbol
 _atom_site_label
 _atom_site_symmetry_multiplicity
 _atom_site_fract_x
 _atom_site_fract_y
 _atom_site_fract_z
 _atom_site_occupancy
  Al  Al0  1  0.11332413  0.09306589  0.38980285  1
  Al  Al1  1  0.22901775  0.19548276  0.13320405  1
  Al  Al2  1  0.77733769  0.09667555  0.89381598  1
  Al  Al3  1  0.89289668  0.19388865  0.63297572  1
  Al  Al4  1  0.44264081  0.09714339  0.39443156  1
  Al  Al5  1  0.55842691  0.19915932  0.14001305  1
  Al  Al6  1  0.11035330  0.09230856  0.88940980  1
  Al  Al7  1  0.22160672  0.20332078  0.64159963  1
  Al  Al8  1  0.78032020  0.08482074  0.38115681  1
  Al  Al9  1  0.89335786  0.20005142  0.14112174  1
  Al  Al10  1  0.45242961  0.08388861  0.88116001  1
  Al  Al11  1  0.55865168  0.19940842  0.63986770  1
  Al  Al12  1  0.10781937  0.42875508  0.32938292  1
  Al  Al13  1  0.22756669  0.54075940  0.13916034  1
  Al  Al14  1  0.78179508  0.42938758  0.81694210  1
  Al  Al15  1  0.89059879  0.54478908  0.56363561  1
  Al  Al16  1  0.44579520  0.42676807  0.38952133  1
  Al  Al17  1  0.55184430  0.54634676  0.13441939  1
  Al  Al18  1  0.11019859  0.42961532  0.84077945  1
  Al  Al19  1  0.21638363  0.54506930  0.63555729  1
  Al  Al20  1  0.77800431  0.43171753  0.32243272  1
  Al  Al21  1  0.87901791  0.54504398  0.06420878  1
  Al  Al22  1  0.44560332  0.42604832  0.88944638  1
  Al  Al23  1  0.54623137  0.54180641  0.63947644  1
  Al  Al24  1  0.10437152  0.76499593  0.37941973  1
  Al  Al25  1  0.23002110  0.87462659  0.14067942  1
  Al  Al26  1  0.78545703  0.76586243  0.81307364  1
  Al  Al27  1  0.44209588  0.76015119  0.39501868  1
  Al  Al28  1  0.11495266  0.76001316  0.89517042  1
  Al  Al29  1  0.21207266  0.87467561  0.64041290  1
  Al  Al30  1  0.76496804  0.76705366  0.31329943  1
  Al  Al31  1  0.88568261  0.87418687  0.10529361  1
  Al  Al32  1  0.44791199  0.76433812  0.87934028  1
  Al  Al33  1  0.55640367  0.87474333  0.60584653  1
  B  B34  1  0.89047562  0.86978710  0.59489460  1
  B  B35  1  0.55604309  0.87015988  0.09504888  1
  N  N36  1  0.22661352  0.19832820  0.32400712  1
  N  N37  1  0.11115871  0.09344672  0.07694861  1
  N  N38  1  0.89238871  0.19743842  0.82429354  1
  N  N39  1  0.79194507  0.06184661  0.57739536  1
  N  N40  1  0.55484526  0.20452342  0.32846382  1
  N  N41  1  0.46260667  0.06189749  0.07754528  1
  N  N42  1  0.22604311  0.19916287  0.83401465  1
  N  N43  1  0.11242933  0.09372068  0.57726025  1
  N  N44  1  0.89154282  0.19955603  0.33393469  1
  N  N45  1  0.77351703  0.10577894  0.08074836  1
  N  N46  1  0.55768681  0.20398602  0.82833693  1
  N  N47  1  0.43685487  0.10600423  0.58134182  1
  N  N48  1  0.22522545  0.54073394  0.33079832  1
  N  N49  1  0.10839038  0.43086462  0.11148861  1
  N  N50  1  0.88445381  0.54392205  0.87682530  1
  N  N51  1  0.77795655  0.43220708  0.62122816  1
  N  N52  1  0.54658534  0.54487024  0.32628191  1
  N  N53  1  0.44656974  0.42462701  0.07777301  1
  N  N54  1  0.22544174  0.54373952  0.82697715  1
  N  N55  1  0.10710853  0.42881641  0.61689457  1
  N  N56  1  0.88572601  0.54463660  0.37581943  1
  N  N57  1  0.78111021  0.42946754  0.12690752  1
  N  N58  1  0.55129606  0.54036409  0.83185534  1
  N  N59  1  0.44482498  0.42513304  0.57800598  1
  N  N60  1  0.22353927  0.87257028  0.32859888  1
  N  N61  1  0.12607369  0.75835444  0.08240187  1
  N  N62  1  0.88729212  0.86838865  0.88823357  1
  N  N63  1  0.80188621  0.77464183  0.61971664  1
  N  N64  1  0.56044157  0.86942439  0.38788179  1
  N  N65  1  0.45879529  0.77774334  0.07582356  1
  N  N66  1  0.22124438  0.87187645  0.82837408  1
  N  N67  1  0.08010579  0.77765447  0.57620596  1
  N  N68  1  0.89077573  0.87157580  0.31046230  1
  N  N69  1  0.73970259  0.77478320  0.11988255  1
  N  N70  1  0.55493358  0.87100331  0.81055098  1
  N  N71  1  0.43234216  0.75873613  0.58226538  1
