# generated using pymatgen
data_Al17BN18
_symmetry_space_group_name_H-M   'P 1'
_cell_length_a   9.31161750
_cell_length_b   9.30235550
_cell_length_c   10.09724672
_cell_angle_alpha   89.62964867
_cell_angle_beta   90.00000709
_cell_angle_gamma   59.96705889
_symmetry_Int_Tables_number   1
_chemical_formula_structural   Al17BN18
_chemical_formula_sum   'Al34 B2 N36'
_cell_volume   757.17331633
_cell_formula_units_Z   2
loop_
 _symmetry_equiv_pos_site_id
 _symmetry_equiv_pos_as_xyz
  1  'x, y, z'
loop_
 _atom_site_type_symbol
 _atom_site_label
 _atom_site_symmetry_multiplicity
 _atom_site_fract_x
 _atom_site_fract_y
 _atom_site_fract_z
 _atom_site_occupancy
  Al  Al0  1  0.11306839  0.09450960  0.39685295  1
  Al  Al1  1  0.22747576  0.19860495  0.14427151  1
  Al  Al2  1  0.77638974  0.09761417  0.90253724  1
  Al  Al3  1  0.89058467  0.19860528  0.64427151  1
  Al  Al4  1  0.44266236  0.09761466  0.40253713  1
  Al  Al5  1  0.55779169  0.19908505  0.14789175  1
  Al  Al6  1  0.10908861  0.09450877  0.89685295  1
  Al  Al7  1  0.22045792  0.20722176  0.64989279  1
  Al  Al8  1  0.78123156  0.08675727  0.38904922  1
  Al  Al9  1  0.88898578  0.20722178  0.14989274  1
  Al  Al10  1  0.44867801  0.08675723  0.88904941  1
  Al  Al11  1  0.55978957  0.19908545  0.64789160  1
  Al  Al12  1  0.11110684  0.42742696  0.39420881  1
  Al  Al13  1  0.22552234  0.53744184  0.14973020  1
  Al  Al14  1  0.77813392  0.42742676  0.89420891  1
  Al  Al15  1  0.89433374  0.53702014  0.64196510  1
  Al  Al16  1  0.44652641  0.42674870  0.39651127  1
  Al  Al17  1  0.55762487  0.54271289  0.14360203  1
  Al  Al18  1  0.10998318  0.42996437  0.89582249  1
  Al  Al19  1  0.21632991  0.54271236  0.64360203  1
  Al  Al20  1  0.77671915  0.42996525  0.39582256  1
  Al  Al21  1  0.88531433  0.53701955  0.14196485  1
  Al  Al22  1  0.44339239  0.42674819  0.89651119  1
  Al  Al23  1  0.55370346  0.53744252  0.64973019  1
  Al  Al24  1  0.10539210  0.76431014  0.38768086  1
  Al  Al25  1  0.22948290  0.87449246  0.14807110  1
  Al  Al26  1  0.78134487  0.77040826  0.82565753  1
  Al  Al27  1  0.44332882  0.75842431  0.40313166  1
  Al  Al28  1  0.11491454  0.75842305  0.90313147  1
  Al  Al29  1  0.21269067  0.87449262  0.64807081  1
  Al  Al30  1  0.76491256  0.77040770  0.32565682  1
  Al  Al31  1  0.88528590  0.87454190  0.11262937  1
  Al  Al32  1  0.44696398  0.76430976  0.88768079  1
  Al  Al33  1  0.55683865  0.87454327  0.61262952  1
  B  B34  1  0.89100281  0.87017484  0.60276656  1
  B  B35  1  0.55548862  0.87017486  0.10276635  1
  N  N36  1  0.22461988  0.20455353  0.33299629  1
  N  N37  1  0.10978147  0.09555670  0.08618176  1
  N  N38  1  0.88749311  0.20455331  0.83299631  1
  N  N39  1  0.79298600  0.06331058  0.58596155  1
  N  N40  1  0.55548160  0.20419512  0.33676484  1
  N  N41  1  0.46036961  0.06331057  0.08596175  1
  N  N42  1  0.22138850  0.20624651  0.83948032  1
  N  N43  1  0.11132735  0.09555696  0.58618173  1
  N  N44  1  0.88903092  0.20624717  0.33948022  1
  N  N45  1  0.77335415  0.10678471  0.09006392  1
  N  N46  1  0.55699015  0.20419471  0.83676471  1
  N  N47  1  0.43652680  0.10678569  0.59006390  1
  N  N48  1  0.22372308  0.53824679  0.33883080  1
  N  N49  1  0.11205627  0.42859311  0.08557997  1
  N  N50  1  0.88977311  0.53601210  0.83277211  1
  N  N51  1  0.77601798  0.42859364  0.58558002  1
  N  N52  1  0.55498430  0.54051476  0.33291707  1
  N  N53  1  0.44535876  0.42549716  0.08650323  1
  N  N54  1  0.22116858  0.54051374  0.83291701  1
  N  N55  1  0.11159388  0.42685505  0.58290531  1
  N  N56  1  0.89088220  0.53601195  0.33277187  1
  N  N57  1  0.77821831  0.42685505  0.08290541  1
  N  N58  1  0.55469758  0.53824650  0.83883085  1
  N  N59  1  0.44581160  0.42549756  0.58650330  1
  N  N60  1  0.22434756  0.87258541  0.33697774  1
  N  N61  1  0.12626168  0.75612898  0.09144697  1
  N  N62  1  0.88683324  0.86891293  0.89925452  1
  N  N63  1  0.80164332  0.77692331  0.62801787  1
  N  N64  1  0.56092032  0.86891375  0.39925452  1
  N  N65  1  0.45848085  0.77686110  0.08479998  1
  N  N66  1  0.21973357  0.87258486  0.83697747  1
  N  N67  1  0.08132437  0.77686091  0.58480005  1
  N  N68  1  0.89135167  0.87324358  0.31997660  1
  N  N69  1  0.73809986  0.77692282  0.12801744  1
  N  N70  1  0.55207030  0.87324394  0.81997678  1
  N  N71  1  0.43427590  0.75612992  0.59144713  1
