# generated using pymatgen
data_Al17BN18
_symmetry_space_group_name_H-M   'P 1'
_cell_length_a   9.29806403
_cell_length_b   9.30021809
_cell_length_c   9.94123023
_cell_angle_alpha   90.02883400
_cell_angle_beta   89.99999515
_cell_angle_gamma   60.00766568
_symmetry_Int_Tables_number   1
_chemical_formula_structural   Al17BN18
_chemical_formula_sum   'Al34 B2 N36'
_cell_volume   744.54319259
_cell_formula_units_Z   2
loop_
 _symmetry_equiv_pos_site_id
 _symmetry_equiv_pos_as_xyz
  1  'x, y, z'
loop_
 _atom_site_type_symbol
 _atom_site_label
 _atom_site_symmetry_multiplicity
 _atom_site_fract_x
 _atom_site_fract_y
 _atom_site_fract_z
 _atom_site_occupancy
  Al  Al0  1  0.11109834  0.09415307  0.39638753  1
  Al  Al1  1  0.22551418  0.20042954  0.14628141  1
  Al  Al2  1  0.77893573  0.09175165  0.88934250  1
  Al  Al3  1  0.89072279  0.20043008  0.64628149  1
  Al  Al4  1  0.44597973  0.09175206  0.38934241  1
  Al  Al5  1  0.55885820  0.19944379  0.14601582  1
  Al  Al6  1  0.11141637  0.09415286  0.89638757  1
  Al  Al7  1  0.22432605  0.20435745  0.64623497  1
  Al  Al8  1  0.78046700  0.08883667  0.40061800  1
  Al  Al9  1  0.88798359  0.20435727  0.14623495  1
  Al  Al10  1  0.44736378  0.08883653  0.90061809  1
  Al  Al11  1  0.55836406  0.19944394  0.64601581  1
  Al  Al12  1  0.11073687  0.42781287  0.39607020  1
  Al  Al13  1  0.22093634  0.54062230  0.14670484  1
  Al  Al14  1  0.77811772  0.42781269  0.89607020  1
  Al  Al15  1  0.88985964  0.54416806  0.64638926  1
  Al  Al16  1  0.44489311  0.42768763  0.39611736  1
  Al  Al17  1  0.55711986  0.54235297  0.14619280  1
  Al  Al18  1  0.11136599  0.42776753  0.89688670  1
  Al  Al19  1  0.21719361  0.54235346  0.64619274  1
  Al  Al20  1  0.77753346  0.42776768  0.39688675  1
  Al  Al21  1  0.88263919  0.54416741  0.14638938  1
  Al  Al22  1  0.44408549  0.42768736  0.89611738  1
  Al  Al23  1  0.55510819  0.54062185  0.64670495  1
  Al  Al24  1  0.10543173  0.76408126  0.40012895  1
  Al  Al25  1  0.22439567  0.87296693  0.14593095  1
  Al  Al26  1  0.77388665  0.76506038  0.89393150  1
  Al  Al27  1  0.44587569  0.76228092  0.38944609  1
  Al  Al28  1  0.10850946  0.76228092  0.88944596  1
  Al  Al29  1  0.21930365  0.87296770  0.64593095  1
  Al  Al30  1  0.77771884  0.76506047  0.39393142  1
  Al  Al31  1  0.88334098  0.87363311  0.14452031  1
  Al  Al32  1  0.44715338  0.76408061  0.90012882  1
  Al  Al33  1  0.55969201  0.87363345  0.64452028  1
  B  B34  1  0.88805734  0.87233799  0.64879574  1
  B  B35  1  0.55627137  0.87233756  0.14879576  1
  N  N36  1  0.22162658  0.20561856  0.33631496  1
  N  N37  1  0.11024700  0.09436286  0.08713085  1
  N  N38  1  0.88942241  0.20561826  0.83631514  1
  N  N39  1  0.79024451  0.06921457  0.59476264  1
  N  N40  1  0.55842558  0.20447005  0.33776718  1
  N  N41  1  0.45720781  0.06921412  0.09476257  1
  N  N42  1  0.22472278  0.20433832  0.83902841  1
  N  N43  1  0.11205681  0.09436338  0.58713081  1
  N  N44  1  0.88760631  0.20433838  0.33902849  1
  N  N45  1  0.77881217  0.09276049  0.08142309  1
  N  N46  1  0.55377164  0.20446983  0.83776720  1
  N  N47  1  0.44509391  0.09276057  0.58142286  1
  N  N48  1  0.22107480  0.54119139  0.33902557  1
  N  N49  1  0.11041169  0.42773236  0.08847108  1
  N  N50  1  0.88845429  0.54079601  0.83827505  1
  N  N51  1  0.77852263  0.42773263  0.58847109  1
  N  N52  1  0.55602532  0.53836518  0.33642878  1
  N  N53  1  0.44465115  0.42723936  0.08807804  1
  N  N54  1  0.22227607  0.53836530  0.83642864  1
  N  N55  1  0.11146602  0.42672296  0.58709790  1
  N  N56  1  0.88741675  0.54079600  0.33827512  1
  N  N57  1  0.77847791  0.42672262  0.08709789  1
  N  N58  1  0.55440086  0.54119066  0.83902570  1
  N  N59  1  0.44477579  0.42723943  0.58807801  1
  N  N60  1  0.22066034  0.87121875  0.33769458  1
  N  N61  1  0.10841765  0.76245508  0.08252333  1
  N  N62  1  0.88776561  0.87133465  0.81627741  1
  N  N63  1  0.78915513  0.77425754  0.59008317  1
  N  N64  1  0.55756594  0.87133474  0.31627738  1
  N  N65  1  0.45657781  0.77395190  0.09448265  1
  N  N66  1  0.22478734  0.87121860  0.83769458  1
  N  N67  1  0.08613654  0.77395247  0.59448272  1
  N  N68  1  0.88895720  0.87263065  0.33268828  1
  N  N69  1  0.75325388  0.77425708  0.09008323  1
  N  N70  1  0.55507832  0.87263053  0.83268829  1
  N  N71  1  0.44579365  0.76245507  0.58252350  1
