# generated using pymatgen
data_Al17BN18
_symmetry_space_group_name_H-M   'P 1'
_cell_length_a   9.32703317
_cell_length_b   9.31475010
_cell_length_c   10.06125912
_cell_angle_alpha   89.70576572
_cell_angle_beta   90.00002074
_cell_angle_gamma   59.95627373
_symmetry_Int_Tables_number   1
_chemical_formula_structural   Al17BN18
_chemical_formula_sum   'Al34 B2 N36'
_cell_volume   756.65608167
_cell_formula_units_Z   2
loop_
 _symmetry_equiv_pos_site_id
 _symmetry_equiv_pos_as_xyz
  1  'x, y, z'
loop_
 _atom_site_type_symbol
 _atom_site_label
 _atom_site_symmetry_multiplicity
 _atom_site_fract_x
 _atom_site_fract_y
 _atom_site_fract_z
 _atom_site_occupancy
  Al  Al0  1  0.11294773  0.09449592  0.38713959  1
  Al  Al1  1  0.22732597  0.19868237  0.13454691  1
  Al  Al2  1  0.77668253  0.09700987  0.89243910  1
  Al  Al3  1  0.89065717  0.19868197  0.63454699  1
  Al  Al4  1  0.44297372  0.09701079  0.39243913  1
  Al  Al5  1  0.55780120  0.19921527  0.13812607  1
  Al  Al6  1  0.10922346  0.09449485  0.88713956  1
  Al  Al7  1  0.22049164  0.20726130  0.64033404  1
  Al  Al8  1  0.78108984  0.08602738  0.37918901  1
  Al  Al9  1  0.88891252  0.20726140  0.14033387  1
  Al  Al10  1  0.44954999  0.08602722  0.87918908  1
  Al  Al11  1  0.55964973  0.19921577  0.63812592  1
  Al  Al12  1  0.11218300  0.42680536  0.38342141  1
  Al  Al13  1  0.22577213  0.53779525  0.14000932  1
  Al  Al14  1  0.77767842  0.42680443  0.88342132  1
  Al  Al15  1  0.89271658  0.54013871  0.62243316  1
  Al  Al16  1  0.44647430  0.42661002  0.38698102  1
  Al  Al17  1  0.55705757  0.54291120  0.13414359  1
  Al  Al18  1  0.11128971  0.42929435  0.88505721  1
  Al  Al19  1  0.21669806  0.54291077  0.63414361  1
  Al  Al20  1  0.77608159  0.42929491  0.38505724  1
  Al  Al21  1  0.88381054  0.54013899  0.12243307  1
  Al  Al22  1  0.44358246  0.42660952  0.88698102  1
  Al  Al23  1  0.55309940  0.53779585  0.64000927  1
  Al  Al24  1  0.10502206  0.76429693  0.37779773  1
  Al  Al25  1  0.22932122  0.87478820  0.13830658  1
  Al  Al26  1  0.78264975  0.76859182  0.81564819  1
  Al  Al27  1  0.44314391  0.75867712  0.39308115  1
  Al  Al28  1  0.11484772  0.75867571  0.89308096  1
  Al  Al29  1  0.21255740  0.87478821  0.63830629  1
  Al  Al30  1  0.76542496  0.76859208  0.31564768  1
  Al  Al31  1  0.88557565  0.87520291  0.10372682  1
  Al  Al32  1  0.44734860  0.76429641  0.87779759  1
  Al  Al33  1  0.55588960  0.87520376  0.60372674  1
  B  B34  1  0.89094199  0.87091249  0.59332698  1
  B  B35  1  0.55481216  0.87091303  0.09332693  1
  N  N36  1  0.22494697  0.20390996  0.32348392  1
  N  N37  1  0.10958550  0.09579921  0.07687755  1
  N  N38  1  0.88780975  0.20390917  0.82348395  1
  N  N39  1  0.79302171  0.06335311  0.57666134  1
  N  N40  1  0.55549075  0.20403113  0.32749652  1
  N  N41  1  0.46029121  0.06335358  0.07666152  1
  N  N42  1  0.22235947  0.20530618  0.83019497  1
  N  N43  1  0.11128110  0.09579935  0.57687755  1
  N  N44  1  0.88900030  0.20530678  0.33019473  1
  N  N45  1  0.77335312  0.10676546  0.08055474  1
  N  N46  1  0.55714499  0.20403075  0.82749633  1
  N  N47  1  0.43654749  0.10676621  0.58055491  1
  N  N48  1  0.22413797  0.53830079  0.32936025  1
  N  N49  1  0.11334709  0.42825047  0.07597151  1
  N  N50  1  0.88952969  0.53683663  0.82759472  1
  N  N51  1  0.77506898  0.42825002  0.57597145  1
  N  N52  1  0.55429712  0.54048605  0.32355682  1
  N  N53  1  0.44538605  0.42549055  0.07725936  1
  N  N54  1  0.22188355  0.54048496  0.82355685  1
  N  N55  1  0.11325209  0.42633254  0.57338932  1
  N  N56  1  0.89029927  0.53683707  0.32759496  1
  N  N57  1  0.77708180  0.42633251  0.07338919  1
  N  N58  1  0.55422779  0.53830044  0.82936024  1
  N  N59  1  0.44579021  0.42549107  0.57725938  1
  N  N60  1  0.22396901  0.87250701  0.32767391  1
  N  N61  1  0.12614143  0.75640131  0.08191451  1
  N  N62  1  0.88728267  0.86893383  0.88800866  1
  N  N63  1  0.80111019  0.77769341  0.61705924  1
  N  N64  1  0.56045057  0.86893499  0.38800880  1
  N  N65  1  0.45848500  0.77719701  0.07556700  1
  N  N66  1  0.22019150  0.87250622  0.82767363  1
  N  N67  1  0.08098521  0.77719669  0.57556703  1
  N  N68  1  0.89107529  0.87255806  0.30995011  1
  N  N69  1  0.73786329  0.77769391  0.11705900  1
  N  N70  1  0.55303357  0.87255810  0.80995033  1
  N  N71  1  0.43412491  0.75640218  0.58191462  1
