# generated using pymatgen
data_Al17BN18
_symmetry_space_group_name_H-M   'P 1'
_cell_length_a   9.29828280
_cell_length_b   9.30050765
_cell_length_c   9.94041567
_cell_angle_alpha   89.96807063
_cell_angle_beta   89.99990406
_cell_angle_gamma   60.00803473
_symmetry_Int_Tables_number   1
_chemical_formula_structural   Al17BN18
_chemical_formula_sum   'Al34 B2 N36'
_cell_volume   744.52562324
_cell_formula_units_Z   2
loop_
 _symmetry_equiv_pos_site_id
 _symmetry_equiv_pos_as_xyz
  1  'x, y, z'
loop_
 _atom_site_type_symbol
 _atom_site_label
 _atom_site_symmetry_multiplicity
 _atom_site_fract_x
 _atom_site_fract_y
 _atom_site_fract_z
 _atom_site_occupancy
  Al  Al0  1  0.11141248  0.09417700  0.30930855  1
  Al  Al1  1  0.22547736  0.20046190  0.05940309  1
  Al  Al2  1  0.78044987  0.08887375  0.80503099  1
  Al  Al3  1  0.89072713  0.20046466  0.55940296  1
  Al  Al4  1  0.44734320  0.08887468  0.30503396  1
  Al  Al5  1  0.55884182  0.19948787  0.05967774  1
  Al  Al6  1  0.11107904  0.09417563  0.80930975  1
  Al  Al7  1  0.22433724  0.20437496  0.55947146  1
  Al  Al8  1  0.77890955  0.09179121  0.31637786  1
  Al  Al9  1  0.88795500  0.20437346  0.05947089  1
  Al  Al10  1  0.44596818  0.09178997  0.81637677  1
  Al  Al11  1  0.55833576  0.19949007  0.55967672  1
  Al  Al12  1  0.11135409  0.42778717  0.30880769  1
  Al  Al13  1  0.22089437  0.54066740  0.05900051  1
  Al  Al14  1  0.77752635  0.42778709  0.80880876  1
  Al  Al15  1  0.88985537  0.54419519  0.55929322  1
  Al  Al16  1  0.44406719  0.42772984  0.30958075  1
  Al  Al17  1  0.55709870  0.54237431  0.05949384  1
  Al  Al18  1  0.11071944  0.42784625  0.80962083  1
  Al  Al19  1  0.21719427  0.54237427  0.55949377  1
  Al  Al20  1  0.77810157  0.42784733  0.30961975  1
  Al  Al21  1  0.88261615  0.54419544  0.05929366  1
  Al  Al22  1  0.44486991  0.42772893  0.80958207  1
  Al  Al23  1  0.55510474  0.54066701  0.55900093  1
  Al  Al24  1  0.10848933  0.76231558  0.31627703  1
  Al  Al25  1  0.22434589  0.87298750  0.05976382  1
  Al  Al26  1  0.77770927  0.76509089  0.81172377  1
  Al  Al27  1  0.44714295  0.76411282  0.30552210  1
  Al  Al28  1  0.10541031  0.76411266  0.80551936  1
  Al  Al29  1  0.21933128  0.87298998  0.55976265  1
  Al  Al30  1  0.77386530  0.76509200  0.31172800  1
  Al  Al31  1  0.88331004  0.87367179  0.06114207  1
  Al  Al32  1  0.44586110  0.76231531  0.81627623  1
  Al  Al33  1  0.55968247  0.87367289  0.56114374  1
  B  B34  1  0.88803937  0.87236721  0.55683015  1
  B  B35  1  0.55626104  0.87236583  0.05683529  1
  N  N36  1  0.22472118  0.20435773  0.36665756  1
  N  N37  1  0.11022511  0.09438060  0.11855193  1
  N  N38  1  0.88758879  0.20435653  0.86665691  1
  N  N39  1  0.79022978  0.06925804  0.61087823  1
  N  N40  1  0.55373737  0.20450888  0.36791203  1
  N  N41  1  0.45718000  0.06925576  0.11088128  1
  N  N42  1  0.22160268  0.20564829  0.86936112  1
  N  N43  1  0.11206006  0.09438188  0.61855283  1
  N  N44  1  0.88941687  0.20565000  0.36936081  1
  N  N45  1  0.77878777  0.09277554  0.12428126  1
  N  N46  1  0.55842249  0.20450730  0.86791254  1
  N  N47  1  0.44510235  0.09277740  0.62428030  1
  N  N48  1  0.22226027  0.53838875  0.36925015  1
  N  N49  1  0.11038578  0.42775359  0.11720945  1
  N  N50  1  0.88739723  0.54083128  0.86739390  1
  N  N51  1  0.77852638  0.42775529  0.61721029  1
  N  N52  1  0.55438651  0.54123339  0.36665886  1
  N  N53  1  0.44461968  0.42727901  0.11760635  1
  N  N54  1  0.22104694  0.54123393  0.86665854  1
  N  N55  1  0.11146470  0.42674527  0.61857968  1
  N  N56  1  0.88843954  0.54083124  0.36739365  1
  N  N57  1  0.77845707  0.42674428  0.11857882  1
  N  N58  1  0.55601813  0.53838864  0.86925028  1
  N  N59  1  0.44476730  0.42727931  0.61760740  1
  N  N60  1  0.22479320  0.87123983  0.36798473  1
  N  N61  1  0.10836417  0.76249006  0.12318277  1
  N  N62  1  0.88893883  0.87266814  0.87295674  1
  N  N63  1  0.78914547  0.77428537  0.61556750  1
  N  N64  1  0.55505826  0.87266919  0.37295927  1
  N  N65  1  0.45654739  0.77397556  0.11116040  1
  N  N66  1  0.22063377  0.87123811  0.86798556  1
  N  N67  1  0.08614354  0.77397623  0.61115767  1
  N  N68  1  0.88773795  0.87136492  0.38940985  1
  N  N69  1  0.75323489  0.77428526  0.11557120  1
  N  N70  1  0.55756516  0.87136337  0.88940816  1
  N  N71  1  0.44580950  0.76249056  0.62318182  1
