# generated using pymatgen
data_Al17BN18
_symmetry_space_group_name_H-M   'P 1'
_cell_length_a   9.29562751
_cell_length_b   9.29623812
_cell_length_c   9.96353214
_cell_angle_alpha   89.96763716
_cell_angle_beta   89.98739581
_cell_angle_gamma   60.01423174
_symmetry_Int_Tables_number   1
_chemical_formula_structural   Al17BN18
_chemical_formula_sum   'Al34 B2 N36'
_cell_volume   745.74801017
_cell_formula_units_Z   2
loop_
 _symmetry_equiv_pos_site_id
 _symmetry_equiv_pos_as_xyz
  1  'x, y, z'
loop_
 _atom_site_type_symbol
 _atom_site_label
 _atom_site_symmetry_multiplicity
 _atom_site_fract_x
 _atom_site_fract_y
 _atom_site_fract_z
 _atom_site_occupancy
  Al  Al0  1  0.11078447  0.09462829  0.31102363  1
  Al  Al1  1  0.22659338  0.19952269  0.06177561  1
  Al  Al2  1  0.78029648  0.08863946  0.80769406  1
  Al  Al3  1  0.89035843  0.20077007  0.56208274  1
  Al  Al4  1  0.44703361  0.08921174  0.31113670  1
  Al  Al5  1  0.55902790  0.19859795  0.06247755  1
  Al  Al6  1  0.11174597  0.09386786  0.81183818  1
  Al  Al7  1  0.22287521  0.20536619  0.56132414  1
  Al  Al8  1  0.77922998  0.09197504  0.31851791  1
  Al  Al9  1  0.88809042  0.20437705  0.06115041  1
  Al  Al10  1  0.44643309  0.09133493  0.81585044  1
  Al  Al11  1  0.55859508  0.20019330  0.56159534  1
  Al  Al12  1  0.11127078  0.42804371  0.31052291  1
  Al  Al13  1  0.22114023  0.54051327  0.06065299  1
  Al  Al14  1  0.77740047  0.42836687  0.81139280  1
  Al  Al15  1  0.89026683  0.54349307  0.56129419  1
  Al  Al16  1  0.44385607  0.42785711  0.31138431  1
  Al  Al17  1  0.55728583  0.54304955  0.06179097  1
  Al  Al18  1  0.11109928  0.42750319  0.81227943  1
  Al  Al19  1  0.21710772  0.54238168  0.56195615  1
  Al  Al20  1  0.77815944  0.42770909  0.31152946  1
  Al  Al21  1  0.88221203  0.54472040  0.06161127  1
  Al  Al22  1  0.44521813  0.42742423  0.81224162  1
  Al  Al23  1  0.55493836  0.53983589  0.56079404  1
  Al  Al24  1  0.10848443  0.76215519  0.31770286  1
  Al  Al25  1  0.22526983  0.87294737  0.06204295  1
  Al  Al26  1  0.77802484  0.76489339  0.81166418  1
  Al  Al27  1  0.44685144  0.76404846  0.31116422  1
  Al  Al28  1  0.10565415  0.76409118  0.80811303  1
  Al  Al29  1  0.21758848  0.87356393  0.56123875  1
  Al  Al30  1  0.77402645  0.76520627  0.31755434  1
  Al  Al31  1  0.88273495  0.87366460  0.06347643  1
  Al  Al32  1  0.44598317  0.76225404  0.81554953  1
  Al  Al33  1  0.55913524  0.87373660  0.56581233  1
  B  B34  1  0.88871316  0.87182443  0.55905570  1
  B  B35  1  0.55652831  0.87207908  0.07020580  1
  N  N36  1  0.22345808  0.20508560  0.36913819  1
  N  N37  1  0.11029627  0.09441253  0.12068169  1
  N  N38  1  0.88774274  0.20438960  0.86889479  1
  N  N39  1  0.79005512  0.06938453  0.61362925  1
  N  N40  1  0.55420986  0.20506049  0.37039923  1
  N  N41  1  0.45815879  0.06745308  0.11676163  1
  N  N42  1  0.22276721  0.20511462  0.87203324  1
  N  N43  1  0.11171258  0.09457052  0.62124724  1
  N  N44  1  0.88930358  0.20594160  0.37208443  1
  N  N45  1  0.77909806  0.09272188  0.12673103  1
  N  N46  1  0.55812499  0.20412374  0.87090029  1
  N  N47  1  0.44378725  0.09485886  0.62424676  1
  N  N48  1  0.22218840  0.53845301  0.37175503  1
  N  N49  1  0.11061774  0.42762883  0.11935664  1
  N  N50  1  0.88779469  0.54106377  0.87013970  1
  N  N51  1  0.77806068  0.42828733  0.61994645  1
  N  N52  1  0.55470018  0.54037132  0.36906802  1
  N  N53  1  0.44474010  0.42730626  0.11986007  1
  N  N54  1  0.22133330  0.54108828  0.86893275  1
  N  N55  1  0.11116823  0.42700024  0.62145642  1
  N  N56  1  0.88880230  0.54014428  0.36992478  1
  N  N57  1  0.77860246  0.42672477  0.12085823  1
  N  N58  1  0.55566958  0.53898428  0.87186564  1
  N  N59  1  0.44463336  0.42719381  0.62044379  1
  N  N60  1  0.22351825  0.87193645  0.37002656  1
  N  N61  1  0.10850901  0.76235130  0.12507658  1
  N  N62  1  0.88901562  0.87208923  0.87554512  1
  N  N63  1  0.79057744  0.77364628  0.61612800  1
  N  N64  1  0.55496873  0.87258423  0.37799570  1
  N  N65  1  0.45764217  0.77468352  0.11664344  1
  N  N66  1  0.22146462  0.87073077  0.87063047  1
  N  N67  1  0.08587989  0.77402790  0.61376196  1
  N  N68  1  0.88840696  0.87176504  0.39183666  1
  N  N69  1  0.75180298  0.77502454  0.12100189  1
  N  N70  1  0.55802836  0.87086134  0.88279108  1
  N  N71  1  0.44379276  0.76179746  0.62303470  1
