# generated using pymatgen
data_Al17BN18
_symmetry_space_group_name_H-M   'P 1'
_cell_length_a   9.29830288
_cell_length_b   9.30053608
_cell_length_c   9.94036016
_cell_angle_alpha   90.03208644
_cell_angle_beta   89.99999411
_cell_angle_gamma   60.00794810
_symmetry_Int_Tables_number   1
_chemical_formula_structural   Al17BN18
_chemical_formula_sum   'Al34 B2 N36'
_cell_volume   744.52469704
_cell_formula_units_Z   2
loop_
 _symmetry_equiv_pos_site_id
 _symmetry_equiv_pos_as_xyz
  1  'x, y, z'
loop_
 _atom_site_type_symbol
 _atom_site_label
 _atom_site_symmetry_multiplicity
 _atom_site_fract_x
 _atom_site_fract_y
 _atom_site_fract_z
 _atom_site_occupancy
  Al  Al0  1  0.11109589  0.09414041  0.40128802  1
  Al  Al1  1  0.22549273  0.20042748  0.15119489  1
  Al  Al2  1  0.77892720  0.09175540  0.89422347  1
  Al  Al3  1  0.89074636  0.20042802  0.65119496  1
  Al  Al4  1  0.44598453  0.09175577  0.39422342  1
  Al  Al5  1  0.55885884  0.19945390  0.15092283  1
  Al  Al6  1  0.11143147  0.09414021  0.90128809  1
  Al  Al7  1  0.22435700  0.20433824  0.65112685  1
  Al  Al8  1  0.78046693  0.08883877  0.40557332  1
  Al  Al9  1  0.88797187  0.20433803  0.15112679  1
  Al  Al10  1  0.44736176  0.08883865  0.90557337  1
  Al  Al11  1  0.55835333  0.19945407  0.65092282  1
  Al  Al12  1  0.11073607  0.42781108  0.40097630  1
  Al  Al13  1  0.22091093  0.54063252  0.15159866  1
  Al  Al14  1  0.77812030  0.42781091  0.90097633  1
  Al  Al15  1  0.88987388  0.54415989  0.65130490  1
  Al  Al16  1  0.44488694  0.42769422  0.40101635  1
  Al  Al17  1  0.55711610  0.54233748  0.15110434  1
  Al  Al18  1  0.11137246  0.42775101  0.90179014  1
  Al  Al19  1  0.21721287  0.54233796  0.65110429  1
  Al  Al20  1  0.77754348  0.42775115  0.40179018  1
  Al  Al21  1  0.88263310  0.54415928  0.15130504  1
  Al  Al22  1  0.44408508  0.42769396  0.90101639  1
  Al  Al23  1  0.55512338  0.54063207  0.65159886  1
  Al  Al24  1  0.10542691  0.76407784  0.40508594  1
  Al  Al25  1  0.22436144  0.87295229  0.15083673  1
  Al  Al26  1  0.77388354  0.76505565  0.89887673  1
  Al  Al27  1  0.44587853  0.76227947  0.39432467  1
  Al  Al28  1  0.10850804  0.76227951  0.89432449  1
  Al  Al29  1  0.21935253  0.87295306  0.65083670  1
  Al  Al30  1  0.77772670  0.76505571  0.39887675  1
  Al  Al31  1  0.88332765  0.87363674  0.14946184  1
  Al  Al32  1  0.44716158  0.76407721  0.90508583  1
  Al  Al33  1  0.55970165  0.87363707  0.64946181  1
  B  B34  1  0.88805730  0.87233093  0.65377483  1
  B  B35  1  0.55627850  0.87233048  0.15377481  1
  N  N36  1  0.22161911  0.20561307  0.34123830  1
  N  N37  1  0.11024247  0.09434440  0.09204703  1
  N  N38  1  0.88943538  0.20561279  0.84123848  1
  N  N39  1  0.79024809  0.06922197  0.59972556  1
  N  N40  1  0.55844017  0.20447207  0.34268968  1
  N  N41  1  0.45719686  0.06922151  0.09972547  1
  N  N42  1  0.22474139  0.20432056  0.84394328  1
  N  N43  1  0.11207982  0.09434493  0.59204697  1
  N  N44  1  0.88760546  0.20432060  0.34394333  1
  N  N45  1  0.77880499  0.09273933  0.08632085  1
  N  N46  1  0.55375504  0.20447187  0.84268968  1
  N  N47  1  0.44512226  0.09273940  0.58632065  1
  N  N48  1  0.22106319  0.54119975  0.34394261  1
  N  N49  1  0.11040265  0.42771855  0.09339043  1
  N  N50  1  0.88845754  0.54079611  0.84320653  1
  N  N51  1  0.77854546  0.42771882  0.59339046  1
  N  N52  1  0.55603564  0.53835286  0.34134956  1
  N  N53  1  0.44463637  0.42724361  0.09299328  1
  N  N54  1  0.22227808  0.53835298  0.84134943  1
  N  N55  1  0.11148374  0.42670867  0.59201943  1
  N  N56  1  0.88741339  0.54079609  0.34320662  1
  N  N57  1  0.77847450  0.42670833  0.09201943  1
  N  N58  1  0.55440411  0.54119903  0.84394279  1
  N  N59  1  0.44478635  0.42724369  0.59299325  1
  N  N60  1  0.22065053  0.87120209  0.34261685  1
  N  N61  1  0.10838071  0.76245497  0.08741945  1
  N  N62  1  0.88775566  0.87132830  0.82119390  1
  N  N63  1  0.78916330  0.77424999  0.59503450  1
  N  N64  1  0.55758227  0.87132835  0.32119393  1
  N  N65  1  0.45656395  0.77393987  0.09944657  1
  N  N66  1  0.22481381  0.87120196  0.84261682  1
  N  N67  1  0.08616241  0.77394043  0.59944664  1
  N  N68  1  0.88895617  0.87263349  0.33764771  1
  N  N69  1  0.75325323  0.77424954  0.09503450  1
  N  N70  1  0.55507647  0.87263339  0.83764770  1
  N  N71  1  0.44583069  0.76245492  0.58741966  1
