# generated using pymatgen
data_Al17BN18
_symmetry_space_group_name_H-M   'P 1'
_cell_length_a   9.33589764
_cell_length_b   9.32635154
_cell_length_c   10.12662859
_cell_angle_alpha   89.73230309
_cell_angle_beta   89.95675804
_cell_angle_gamma   59.99048464
_symmetry_Int_Tables_number   1
_chemical_formula_structural   Al17BN18
_chemical_formula_sum   'Al34 B2 N36'
_cell_volume   763.51269402
_cell_formula_units_Z   2
loop_
 _symmetry_equiv_pos_site_id
 _symmetry_equiv_pos_as_xyz
  1  'x, y, z'
loop_
 _atom_site_type_symbol
 _atom_site_label
 _atom_site_symmetry_multiplicity
 _atom_site_fract_x
 _atom_site_fract_y
 _atom_site_fract_z
 _atom_site_occupancy
  Al  Al0  1  0.11324271  0.09303231  0.38979684  1
  Al  Al1  1  0.22820657  0.19697240  0.13331975  1
  Al  Al2  1  0.77732569  0.09665056  0.89376418  1
  Al  Al3  1  0.89304596  0.19376065  0.63285937  1
  Al  Al4  1  0.44282153  0.09700967  0.39443291  1
  Al  Al5  1  0.55832518  0.19921825  0.13984588  1
  Al  Al6  1  0.11032598  0.09231445  0.88914321  1
  Al  Al7  1  0.22052259  0.20566938  0.64160009  1
  Al  Al8  1  0.78029437  0.08486067  0.38116111  1
  Al  Al9  1  0.89347408  0.19992215  0.14100145  1
  Al  Al10  1  0.45238652  0.08387434  0.88087972  1
  Al  Al11  1  0.55854342  0.19946440  0.63971696  1
  Al  Al12  1  0.11103323  0.42707416  0.34990635  1
  Al  Al13  1  0.22668350  0.53973276  0.13916901  1
  Al  Al14  1  0.78196519  0.42931981  0.81664887  1
  Al  Al15  1  0.88900478  0.54570115  0.56365732  1
  Al  Al16  1  0.44598830  0.42678211  0.38946408  1
  Al  Al17  1  0.55158391  0.54632209  0.13431521  1
  Al  Al18  1  0.11358987  0.42804169  0.86329448  1
  Al  Al19  1  0.21531996  0.54388796  0.63587359  1
  Al  Al20  1  0.77796964  0.43172329  0.32206187  1
  Al  Al21  1  0.87743685  0.54589882  0.06429482  1
  Al  Al22  1  0.44573696  0.42603517  0.88925162  1
  Al  Al23  1  0.54606409  0.54179709  0.63940310  1
  Al  Al24  1  0.10427757  0.76516157  0.37929069  1
  Al  Al25  1  0.23003897  0.87455375  0.14049558  1
  Al  Al26  1  0.78567392  0.76565081  0.81285004  1
  Al  Al27  1  0.44216749  0.76013069  0.39499395  1
  Al  Al28  1  0.11493874  0.75998364  0.89496646  1
  Al  Al29  1  0.21210564  0.87466605  0.64024264  1
  Al  Al30  1  0.76480830  0.76726356  0.31298988  1
  Al  Al31  1  0.88579512  0.87418669  0.10518598  1
  Al  Al32  1  0.44801543  0.76427717  0.87932557  1
  Al  Al33  1  0.55611157  0.87497702  0.60601513  1
  B  B34  1  0.89060732  0.86976962  0.59482603  1
  B  B35  1  0.55579503  0.87040971  0.09496153  1
  N  N36  1  0.22601820  0.19950069  0.32313496  1
  N  N37  1  0.11130735  0.09351180  0.07689236  1
  N  N38  1  0.89237311  0.19737349  0.82426146  1
  N  N39  1  0.79194614  0.06184379  0.57737869  1
  N  N40  1  0.55479441  0.20456562  0.32842835  1
  N  N41  1  0.46232085  0.06204506  0.07745125  1
  N  N42  1  0.22523430  0.20052343  0.83293901  1
  N  N43  1  0.11260011  0.09381679  0.57732584  1
  N  N44  1  0.89156368  0.19956406  0.33390159  1
  N  N45  1  0.77349756  0.10577512  0.08074766  1
  N  N46  1  0.55768569  0.20397493  0.82831731  1
  N  N47  1  0.43675573  0.10593778  0.58144200  1
  N  N48  1  0.22493236  0.54044903  0.32951657  1
  N  N49  1  0.11137030  0.42930223  0.09613777  1
  N  N50  1  0.88365387  0.54432665  0.87580338  1
  N  N51  1  0.77789736  0.43212830  0.62114801  1
  N  N52  1  0.54647656  0.54489248  0.32619727  1
  N  N53  1  0.44640048  0.42474765  0.07771938  1
  N  N54  1  0.22458466  0.54285613  0.82617361  1
  N  N55  1  0.11016226  0.42722537  0.59978901  1
  N  N56  1  0.88414794  0.54562627  0.37457161  1
  N  N57  1  0.78099225  0.42933289  0.12678895  1
  N  N58  1  0.55124129  0.54035156  0.83179018  1
  N  N59  1  0.44469947  0.42527118  0.57800624  1
  N  N60  1  0.22359164  0.87259141  0.32855039  1
  N  N61  1  0.12622380  0.75796685  0.08239626  1
  N  N62  1  0.88734703  0.86832174  0.88818411  1
  N  N63  1  0.80186094  0.77468256  0.61968171  1
  N  N64  1  0.56025570  0.86958716  0.38761728  1
  N  N65  1  0.45882028  0.77770536  0.07578641  1
  N  N66  1  0.22135919  0.87175853  0.82834813  1
  N  N67  1  0.08017359  0.77757055  0.57623668  1
  N  N68  1  0.89074430  0.87166039  0.31041695  1
  N  N69  1  0.73952365  0.77507716  0.11970495  1
  N  N70  1  0.55491117  0.87104313  0.81053363  1
  N  N71  1  0.43243767  0.75873614  0.58223886  1
