# generated using pymatgen
data_Al17BN18
_symmetry_space_group_name_H-M   'P 1'
_cell_length_a   9.33364450
_cell_length_b   9.32236723
_cell_length_c   10.23757546
_cell_angle_alpha   89.78481051
_cell_angle_beta   89.99998173
_cell_angle_gamma   59.96006588
_symmetry_Int_Tables_number   1
_chemical_formula_structural   Al17BN18
_chemical_formula_sum   'Al34 B2 N36'
_cell_volume   771.12755250
_cell_formula_units_Z   2
loop_
 _symmetry_equiv_pos_site_id
 _symmetry_equiv_pos_as_xyz
  1  'x, y, z'
loop_
 _atom_site_type_symbol
 _atom_site_label
 _atom_site_symmetry_multiplicity
 _atom_site_fract_x
 _atom_site_fract_y
 _atom_site_fract_z
 _atom_site_occupancy
  Al  Al0  1  0.11225678  0.09590972  0.39097730  1
  Al  Al1  1  0.23030834  0.19307480  0.13717945  1
  Al  Al2  1  0.77705883  0.09762784  0.89649760  1
  Al  Al3  1  0.89328371  0.19307484  0.63717949  1
  Al  Al4  1  0.44198011  0.09762785  0.39649739  1
  Al  Al5  1  0.56098520  0.19449422  0.14205971  1
  Al  Al6  1  0.10849993  0.09590968  0.89097740  1
  Al  Al7  1  0.22274070  0.20019223  0.64374720  1
  Al  Al8  1  0.78140666  0.08509983  0.38417748  1
  Al  Al9  1  0.89373422  0.20019220  0.14374734  1
  Al  Al10  1  0.45016062  0.08509962  0.88417740  1
  Al  Al11  1  0.56118775  0.19449395  0.64206008  1
  Al  Al12  1  0.10657120  0.43468948  0.31562177  1
  Al  Al13  1  0.22613693  0.53193874  0.07128041  1
  Al  Al14  1  0.77540479  0.43468970  0.81562169  1
  Al  Al15  1  0.89139009  0.54547507  0.56462827  1
  Al  Al16  1  0.44501799  0.42706986  0.34181262  1
  Al  Al17  1  0.56257947  0.53580305  0.07047806  1
  Al  Al18  1  0.10642173  0.43495151  0.82053101  1
  Al  Al19  1  0.21828505  0.53580209  0.57047819  1
  Al  Al20  1  0.77529223  0.43495197  0.32053108  1
  Al  Al21  1  0.87980044  0.54547560  0.06462845  1
  Al  Al22  1  0.44457900  0.42706989  0.84181334  1
  Al  Al23  1  0.55859011  0.53193971  0.57128091  1
  Al  Al24  1  0.10243333  0.76949862  0.37709012  1
  Al  Al25  1  0.23238974  0.87219163  0.14149111  1
  Al  Al26  1  0.78517934  0.76580564  0.81419484  1
  Al  Al27  1  0.43928025  0.76808899  0.39696326  1
  Al  Al28  1  0.10929725  0.76808871  0.89696290  1
  Al  Al29  1  0.21208486  0.87219236  0.64149083  1
  Al  Al30  1  0.76568164  0.76580669  0.31419476  1
  Al  Al31  1  0.88576684  0.87504844  0.11015543  1
  Al  Al32  1  0.44473376  0.76949979  0.87708978  1
  Al  Al33  1  0.55585286  0.87504870  0.61015524  1
  B  B34  1  0.89071009  0.87026081  0.59655335  1
  B  B35  1  0.55569575  0.87026141  0.09655334  1
  N  N36  1  0.22652800  0.19985474  0.32553885  1
  N  N37  1  0.11118018  0.09405750  0.07757361  1
  N  N38  1  0.89028385  0.19985497  0.82553887  1
  N  N39  1  0.79153053  0.06291102  0.57836469  1
  N  N40  1  0.55886650  0.19718446  0.33012624  1
  N  N41  1  0.46222504  0.06291147  0.07836465  1
  N  N42  1  0.22497602  0.20009200  0.83347375  1
  N  N43  1  0.11142876  0.09405795  0.57757344  1
  N  N44  1  0.89159857  0.20009248  0.33347380  1
  N  N45  1  0.77454548  0.10611565  0.08126885  1
  N  N46  1  0.56061611  0.19718452  0.83012656  1
  N  N47  1  0.43600575  0.10611578  0.58126873  1
  N  N48  1  0.22117085  0.53605286  0.38134739  1
  N  N49  1  0.10427506  0.43448922  0.12744619  1
  N  N50  1  0.88546930  0.54286147  0.87866058  1
  N  N51  1  0.77790145  0.43448927  0.62744617  1
  N  N52  1  0.55934428  0.53523483  0.38072560  1
  N  N53  1  0.44700489  0.42522357  0.11625317  1
  N  N54  1  0.22208752  0.53523428  0.88072526  1
  N  N55  1  0.10537313  0.43330487  0.63256298  1
  N  N56  1  0.88833512  0.54286195  0.37866045  1
  N  N57  1  0.77798801  0.43330500  0.13256318  1
  N  N58  1  0.55944241  0.53605393  0.88134746  1
  N  N59  1  0.44443841  0.42522336  0.61625378  1
  N  N60  1  0.22453895  0.87286903  0.32799804  1
  N  N61  1  0.12247133  0.76221915  0.08592271  1
  N  N62  1  0.88499586  0.87053452  0.88664733  1
  N  N63  1  0.80105282  0.77525517  0.62149062  1
  N  N64  1  0.56113642  0.87053458  0.38664741  1
  N  N65  1  0.45811834  0.78091761  0.07647646  1
  N  N66  1  0.21925816  0.87286938  0.82799776  1
  N  N67  1  0.07763104  0.78091711  0.57647643  1
  N  N68  1  0.88995371  0.87246714  0.31096484  1
  N  N69  1  0.74035857  0.77525579  0.12149065  1
  N  N70  1  0.55424680  0.87246694  0.81096486  1
  N  N71  1  0.43197603  0.76222005  0.58592312  1
