# generated using pymatgen
data_Al17BN18
_symmetry_space_group_name_H-M   'P 1'
_cell_length_a   9.34498810
_cell_length_b   9.29347575
_cell_length_c   10.21840121
_cell_angle_alpha   89.35924736
_cell_angle_beta   89.99995503
_cell_angle_gamma   59.81620539
_symmetry_Int_Tables_number   1
_chemical_formula_structural   Al17BN18
_chemical_formula_sum   'Al34 B2 N36'
_cell_volume   767.05560713
_cell_formula_units_Z   2
loop_
 _symmetry_equiv_pos_site_id
 _symmetry_equiv_pos_as_xyz
  1  'x, y, z'
loop_
 _atom_site_type_symbol
 _atom_site_label
 _atom_site_symmetry_multiplicity
 _atom_site_fract_x
 _atom_site_fract_y
 _atom_site_fract_z
 _atom_site_occupancy
  Al  Al0  1  0.10897588  0.10126553  0.39127196  1
  Al  Al1  1  0.22890536  0.19420676  0.13940352  1
  Al  Al2  1  0.77581983  0.09871517  0.89730892  1
  Al  Al3  1  0.89355506  0.19420596  0.63940373  1
  Al  Al4  1  0.44213208  0.09871490  0.39730886  1
  Al  Al5  1  0.56174881  0.19229287  0.14425779  1
  Al  Al6  1  0.10642557  0.10126555  0.89127251  1
  Al  Al7  1  0.22507374  0.20007388  0.64580113  1
  Al  Al8  1  0.78255210  0.08312132  0.38900780  1
  Al  Al9  1  0.89151861  0.20007482  0.14580106  1
  Al  Al10  1  0.45099376  0.08312043  0.88900765  1
  Al  Al11  1  0.56262596  0.19229214  0.64425784  1
  Al  Al12  1  0.10795676  0.43545103  0.31775718  1
  Al  Al13  1  0.22465876  0.53790374  0.06591029  1
  Al  Al14  1  0.77325941  0.43545107  0.81775724  1
  Al  Al15  1  0.89268168  0.54334384  0.56742443  1
  Al  Al16  1  0.44110843  0.43300224  0.32064042  1
  Al  Al17  1  0.55903782  0.54063150  0.07043355  1
  Al  Al18  1  0.10783811  0.43432504  0.82252834  1
  Al  Al19  1  0.21699808  0.54063007  0.57043365  1
  Al  Al20  1  0.77450336  0.43432583  0.32252813  1
  Al  Al21  1  0.88064067  0.54334457  0.06742446  1
  Al  Al22  1  0.44255701  0.43300189  0.82064014  1
  Al  Al23  1  0.55410515  0.53790376  0.56591035  1
  Al  Al24  1  0.11300443  0.76107531  0.31363837  1
  Al  Al25  1  0.23169573  0.86880154  0.07522685  1
  Al  Al26  1  0.78249851  0.76536046  0.82061634  1
  Al  Al27  1  0.44609357  0.76703778  0.32813491  1
  Al  Al28  1  0.10353542  0.76703747  0.82813489  1
  Al  Al29  1  0.21616909  0.86880092  0.57522553  1
  Al  Al30  1  0.76880727  0.76536070  0.32061673  1
  Al  Al31  1  0.88506672  0.87178861  0.09808803  1
  Al  Al32  1  0.44258579  0.76107513  0.81363803  1
  Al  Al33  1  0.55981053  0.87178933  0.59808895  1
  B  B34  1  0.89141719  0.86959095  0.60823001  1
  B  B35  1  0.55565790  0.86959180  0.10823042  1
  N  N36  1  0.22734992  0.19929768  0.32637862  1
  N  N37  1  0.10599049  0.10180924  0.07908787  1
  N  N38  1  0.89001898  0.19929770  0.82637878  1
  N  N39  1  0.79403273  0.06189172  0.58366281  1
  N  N40  1  0.55926650  0.19804949  0.33246806  1
  N  N41  1  0.46074232  0.06189227  0.08366274  1
  N  N42  1  0.22680837  0.19995433  0.83496746  1
  N  N43  1  0.10886784  0.10180860  0.57908745  1
  N  N44  1  0.88990331  0.19995499  0.33496744  1
  N  N45  1  0.77325024  0.10610774  0.08150705  1
  N  N46  1  0.55935042  0.19804896  0.83246812  1
  N  N47  1  0.43730954  0.10610797  0.58150702  1
  N  N48  1  0.22164539  0.53909057  0.38372560  1
  N  N49  1  0.10600995  0.43630064  0.12768937  1
  N  N50  1  0.88726583  0.53970720  0.88096984  1
  N  N51  1  0.77435713  0.43630020  0.62768965  1
  N  N52  1  0.55474053  0.53871606  0.37960613  1
  N  N53  1  0.44275968  0.43179323  0.13046418  1
  N  N54  1  0.22321027  0.53871547  0.87960597  1
  N  N55  1  0.10731690  0.43392373  0.63369750  1
  N  N56  1  0.88969348  0.53970717  0.38096981  1
  N  N57  1  0.77542603  0.43392461  0.13369732  1
  N  N58  1  0.55593043  0.53909066  0.88372554  1
  N  N59  1  0.44211550  0.43179262  0.63046391  1
  N  N60  1  0.22311570  0.86807701  0.37668330  1
  N  N61  1  0.12233429  0.75658077  0.12686559  1
  N  N62  1  0.89100140  0.86493777  0.89566031  1
  N  N63  1  0.80109024  0.77451786  0.62544576  1
  N  N64  1  0.56072644  0.86493781  0.39566062  1
  N  N65  1  0.45879659  0.77766424  0.13116125  1
  N  N66  1  0.22547291  0.86807689  0.87668432  1
  N  N67  1  0.08020646  0.77766311  0.63116100  1
  N  N68  1  0.88693955  0.87246401  0.32256126  1
  N  N69  1  0.74105802  0.77451822  0.12544601  1
  N  N70  1  0.55726192  0.87246353  0.82256013  1
  N  N71  1  0.43775142  0.75658089  0.62686528  1
