# generated using pymatgen
data_Al17BN18
_symmetry_space_group_name_H-M   'P 1'
_cell_length_a   9.33451564
_cell_length_b   9.32837576
_cell_length_c   10.02020644
_cell_angle_alpha   89.87359003
_cell_angle_beta   89.93260287
_cell_angle_gamma   60.04536692
_symmetry_Int_Tables_number   1
_chemical_formula_structural   Al17BN18
_chemical_formula_sum   'Al34 B2 N36'
_cell_volume   755.96626727
_cell_formula_units_Z   2
loop_
 _symmetry_equiv_pos_site_id
 _symmetry_equiv_pos_as_xyz
  1  'x, y, z'
loop_
 _atom_site_type_symbol
 _atom_site_label
 _atom_site_symmetry_multiplicity
 _atom_site_fract_x
 _atom_site_fract_y
 _atom_site_fract_z
 _atom_site_occupancy
  Al  Al0  1  0.11125852  0.09544072  0.30857796  1
  Al  Al1  1  0.22947792  0.19660855  0.06052122  1
  Al  Al2  1  0.78807071  0.08486236  0.80790936  1
  Al  Al3  1  0.88990646  0.20151006  0.56088641  1
  Al  Al4  1  0.44688729  0.09299043  0.38365953  1
  Al  Al5  1  0.55554758  0.19290538  0.13116871  1
  Al  Al6  1  0.11184474  0.09309770  0.81173594  1
  Al  Al7  1  0.20969801  0.21267488  0.56293941  1
  Al  Al8  1  0.78599695  0.08899553  0.32216546  1
  Al  Al9  1  0.88800740  0.20445053  0.06038966  1
  Al  Al10  1  0.44603353  0.09002258  0.82278422  1
  Al  Al11  1  0.56074017  0.20338805  0.61707251  1
  Al  Al12  1  0.11150898  0.42748517  0.30806631  1
  Al  Al13  1  0.22149791  0.54017039  0.05926093  1
  Al  Al14  1  0.77667960  0.42969884  0.81086083  1
  Al  Al15  1  0.89083343  0.54350744  0.55830166  1
  Al  Al16  1  0.43980539  0.43492476  0.31255573  1
  Al  Al17  1  0.55807609  0.54274717  0.06157339  1
  Al  Al18  1  0.11013897  0.42900986  0.81243026  1
  Al  Al19  1  0.21493566  0.54446477  0.56012249  1
  Al  Al20  1  0.77861876  0.42768021  0.31001883  1
  Al  Al21  1  0.88149883  0.54478348  0.06179151  1
  Al  Al22  1  0.44205259  0.43427702  0.81072977  1
  Al  Al23  1  0.55371279  0.53997511  0.55632706  1
  Al  Al24  1  0.10839651  0.76233732  0.31472587  1
  Al  Al25  1  0.22572867  0.87339414  0.06224328  1
  Al  Al26  1  0.78500834  0.76162223  0.80273212  1
  Al  Al27  1  0.44691118  0.76565907  0.31635349  1
  Al  Al28  1  0.10636191  0.76409556  0.80727027  1
  Al  Al29  1  0.21462244  0.87387768  0.55779859  1
  Al  Al30  1  0.77387224  0.76548517  0.32345452  1
  Al  Al31  1  0.88129649  0.87435023  0.06307408  1
  Al  Al32  1  0.44256767  0.75926825  0.80549374  1
  Al  Al33  1  0.56178986  0.86629596  0.58890573  1
  B  B34  1  0.89309559  0.86791222  0.55676830  1
  B  B35  1  0.55406456  0.87539610  0.10578980  1
  N  N36  1  0.21613966  0.20879173  0.37124933  1
  N  N37  1  0.11063404  0.09483959  0.11910150  1
  N  N38  1  0.88852758  0.20520643  0.86922082  1
  N  N39  1  0.79667118  0.06596465  0.61092860  1
  N  N40  1  0.55429409  0.20454834  0.33335183  1
  N  N41  1  0.46152319  0.05843152  0.09638213  1
  N  N42  1  0.22249571  0.20552066  0.86901608  1
  N  N43  1  0.10975307  0.09394696  0.62235367  1
  N  N44  1  0.89061315  0.20698954  0.37201429  1
  N  N45  1  0.78585902  0.08933765  0.12735815  1
  N  N46  1  0.55898791  0.20450266  0.82045559  1
  N  N47  1  0.43806938  0.10119541  0.58981764  1
  N  N48  1  0.21978234  0.53963873  0.37075602  1
  N  N49  1  0.11181478  0.42620332  0.11750425  1
  N  N50  1  0.88748773  0.54186371  0.87101281  1
  N  N51  1  0.77657420  0.42980703  0.61926998  1
  N  N52  1  0.55602772  0.53997886  0.36666215  1
  N  N53  1  0.44272268  0.43104830  0.11880193  1
  N  N54  1  0.22071756  0.54174543  0.86855466  1
  N  N55  1  0.10878443  0.43004340  0.62282392  1
  N  N56  1  0.89007436  0.53865244  0.36799388  1
  N  N57  1  0.77874962  0.42638138  0.12005439  1
  N  N58  1  0.55530386  0.54055273  0.87234405  1
  N  N59  1  0.43887044  0.43611706  0.61628989  1
  N  N60  1  0.22153585  0.87341487  0.36718960  1
  N  N61  1  0.10858664  0.76167305  0.12325964  1
  N  N62  1  0.88987213  0.87023340  0.87586949  1
  N  N63  1  0.80139536  0.76949066  0.61050440  1
  N  N64  1  0.55925063  0.86502133  0.38734628  1
  N  N65  1  0.45978688  0.77582678  0.11980776  1
  N  N66  1  0.22241606  0.87030164  0.87123616  1
  N  N67  1  0.08644297  0.77411011  0.61301373  1
  N  N68  1  0.89123354  0.87047095  0.39064360  1
  N  N69  1  0.74836086  0.77675187  0.12505166  1
  N  N70  1  0.55981513  0.86767620  0.81296787  1
  N  N71  1  0.43492844  0.75706514  0.61565774  1
