# generated using pymatgen
data_Al17BN18
_symmetry_space_group_name_H-M   'P 1'
_cell_length_a   9.33648341
_cell_length_b   9.32805191
_cell_length_c   10.12815995
_cell_angle_alpha   89.73650210
_cell_angle_beta   89.95687181
_cell_angle_gamma   59.98851608
_symmetry_Int_Tables_number   1
_chemical_formula_structural   Al17BN18
_chemical_formula_sum   'Al34 B2 N36'
_cell_volume   763.80045583
_cell_formula_units_Z   2
loop_
 _symmetry_equiv_pos_site_id
 _symmetry_equiv_pos_as_xyz
  1  'x, y, z'
loop_
 _atom_site_type_symbol
 _atom_site_label
 _atom_site_symmetry_multiplicity
 _atom_site_fract_x
 _atom_site_fract_y
 _atom_site_fract_z
 _atom_site_occupancy
  Al  Al0  1  0.11327372  0.09303242  0.38984578  1
  Al  Al1  1  0.22861702  0.19620583  0.13320380  1
  Al  Al2  1  0.77733870  0.09665469  0.89377676  1
  Al  Al3  1  0.89298547  0.19383265  0.63288468  1
  Al  Al4  1  0.44273953  0.09707862  0.39448427  1
  Al  Al5  1  0.55837244  0.19919082  0.13992265  1
  Al  Al6  1  0.11032894  0.09224919  0.88928324  1
  Al  Al7  1  0.22096372  0.20469399  0.64159806  1
  Al  Al8  1  0.78030139  0.08484520  0.38116708  1
  Al  Al9  1  0.89341666  0.19998330  0.14104772  1
  Al  Al10  1  0.45249308  0.08381256  0.88103412  1
  Al  Al11  1  0.55857324  0.19945030  0.63977170  1
  Al  Al12  1  0.10934315  0.42797207  0.33889698  1
  Al  Al13  1  0.22714497  0.54026275  0.13910073  1
  Al  Al14  1  0.78187703  0.42933927  0.81672921  1
  Al  Al15  1  0.88993058  0.54517630  0.56363774  1
  Al  Al16  1  0.44590778  0.42676808  0.38953625  1
  Al  Al17  1  0.55170104  0.54633880  0.13435775  1
  Al  Al18  1  0.11203587  0.42874698  0.85259549  1
  Al  Al19  1  0.21574795  0.54438911  0.63574929  1
  Al  Al20  1  0.77792632  0.43170816  0.32224182  1
  Al  Al21  1  0.87817266  0.54549520  0.06432381  1
  Al  Al22  1  0.44576663  0.42601969  0.88937010  1
  Al  Al23  1  0.54613900  0.54180165  0.63941141  1
  Al  Al24  1  0.10430842  0.76511874  0.37939797  1
  Al  Al25  1  0.23003079  0.87459042  0.14058929  1
  Al  Al26  1  0.78557419  0.76577305  0.81289924  1
  Al  Al27  1  0.44212552  0.76014967  0.39500804  1
  Al  Al28  1  0.11494377  0.76005910  0.89508629  1
  Al  Al29  1  0.21209000  0.87466785  0.64030475  1
  Al  Al30  1  0.76482805  0.76723361  0.31312219  1
  Al  Al31  1  0.88574556  0.87418471  0.10523668  1
  Al  Al32  1  0.44797486  0.76430055  0.87932976  1
  Al  Al33  1  0.55625041  0.87486672  0.60593658  1
  B  B34  1  0.89054222  0.86977549  0.59485788  1
  B  B35  1  0.55590870  0.87029491  0.09500799  1
  N  N36  1  0.22637208  0.19879450  0.32354652  1
  N  N37  1  0.11122989  0.09345847  0.07692562  1
  N  N38  1  0.89238855  0.19740948  0.82428522  1
  N  N39  1  0.79194527  0.06185251  0.57738872  1
  N  N40  1  0.55480400  0.20455353  0.32845683  1
  N  N41  1  0.46247009  0.06196208  0.07750436  1
  N  N42  1  0.22572802  0.19969356  0.83356750  1
  N  N43  1  0.11254008  0.09375172  0.57732905  1
  N  N44  1  0.89155792  0.19956249  0.33392601  1
  N  N45  1  0.77350928  0.10576730  0.08075265  1
  N  N46  1  0.55768598  0.20397799  0.82834090  1
  N  N47  1  0.43680792  0.10594125  0.58143864  1
  N  N48  1  0.22514033  0.54066471  0.33011716  1
  N  N49  1  0.10991059  0.43005606  0.10385561  1
  N  N50  1  0.88391868  0.54419055  0.87635994  1
  N  N51  1  0.77789460  0.43217166  0.62114740  1
  N  N52  1  0.54650594  0.54489033  0.32624720  1
  N  N53  1  0.44651373  0.42468167  0.07775555  1
  N  N54  1  0.22509912  0.54333649  0.82667760  1
  N  N55  1  0.10865144  0.42800758  0.60832854  1
  N  N56  1  0.88481672  0.54519962  0.37511514  1
  N  N57  1  0.78101932  0.42938625  0.12683994  1
  N  N58  1  0.55128661  0.54036170  0.83182796  1
  N  N59  1  0.44475203  0.42521776  0.57803809  1
  N  N60  1  0.22356055  0.87258601  0.32858776  1
  N  N61  1  0.12614746  0.75818225  0.08240764  1
  N  N62  1  0.88733416  0.86833857  0.88819964  1
  N  N63  1  0.80183580  0.77469859  0.61966499  1
  N  N64  1  0.56031224  0.86952953  0.38771873  1
  N  N65  1  0.45880623  0.77772835  0.07581251  1
  N  N66  1  0.22132336  0.87180001  0.82836229  1
  N  N67  1  0.08013875  0.77762521  0.57624882  1
  N  N68  1  0.89076211  0.87161355  0.31044197  1
  N  N69  1  0.73959463  0.77495222  0.11978152  1
  N  N70  1  0.55494911  0.87099446  0.81055682  1
  N  N71  1  0.43239894  0.75873844  0.58226115  1
