# generated using pymatgen
data_Al17BN18
_symmetry_space_group_name_H-M   'P 1'
_cell_length_a   9.35637762
_cell_length_b   9.32795335
_cell_length_c   10.15782747
_cell_angle_alpha   89.47030281
_cell_angle_beta   89.99942258
_cell_angle_gamma   59.85460613
_symmetry_Int_Tables_number   1
_chemical_formula_structural   Al17BN18
_chemical_formula_sum   'Al34 B2 N36'
_cell_volume   766.58908883
_cell_formula_units_Z   2
loop_
 _symmetry_equiv_pos_site_id
 _symmetry_equiv_pos_as_xyz
  1  'x, y, z'
loop_
 _atom_site_type_symbol
 _atom_site_label
 _atom_site_symmetry_multiplicity
 _atom_site_fract_x
 _atom_site_fract_y
 _atom_site_fract_z
 _atom_site_occupancy
  Al  Al0  1  0.11060892  0.09097075  0.32781002  1
  Al  Al1  1  0.23126815  0.19824762  0.13673806  1
  Al  Al2  1  0.77577218  0.09604728  0.89630462  1
  Al  Al3  1  0.88977008  0.20208295  0.60542825  1
  Al  Al4  1  0.44269140  0.09776661  0.39876058  1
  Al  Al5  1  0.56048631  0.19176423  0.14535673  1
  Al  Al6  1  0.11021316  0.08952113  0.82184153  1
  Al  Al7  1  0.22952645  0.20510510  0.64386737  1
  Al  Al8  1  0.78171257  0.08152310  0.38988268  1
  Al  Al9  1  0.88530555  0.20830642  0.11700675  1
  Al  Al10  1  0.45033982  0.08260409  0.88985296  1
  Al  Al11  1  0.56522734  0.19105035  0.64594344  1
  Al  Al12  1  0.10818816  0.43605741  0.31995232  1
  Al  Al13  1  0.22483032  0.53904656  0.06660342  1
  Al  Al14  1  0.77406618  0.43277195  0.81766155  1
  Al  Al15  1  0.89282494  0.54587628  0.56800990  1
  Al  Al16  1  0.44173652  0.43180793  0.32209890  1
  Al  Al17  1  0.55603732  0.54288847  0.07212121  1
  Al  Al18  1  0.10707095  0.43469000  0.82569912  1
  Al  Al19  1  0.21790671  0.54237642  0.57234645  1
  Al  Al20  1  0.77585133  0.43192514  0.32729419  1
  Al  Al21  1  0.87931386  0.54516655  0.06824475  1
  Al  Al22  1  0.44380629  0.43142501  0.82221467  1
  Al  Al23  1  0.55234245  0.53990086  0.56659306  1
  Al  Al24  1  0.11468394  0.75954933  0.31364025  1
  Al  Al25  1  0.22800222  0.87432530  0.06816291  1
  Al  Al26  1  0.78218367  0.76507214  0.82195494  1
  Al  Al27  1  0.44615197  0.76655035  0.32755668  1
  Al  Al28  1  0.10414957  0.76597351  0.82757051  1
  Al  Al29  1  0.21465581  0.87360663  0.56836769  1
  Al  Al30  1  0.76813934  0.76594725  0.32144626  1
  Al  Al31  1  0.88687584  0.87059284  0.10197001  1
  Al  Al32  1  0.44276344  0.75943798  0.81411545  1
  Al  Al33  1  0.55898232  0.87134529  0.60175486  1
  B  B34  1  0.89259732  0.86891173  0.61028694  1
  B  B35  1  0.55467468  0.86884506  0.10905656  1
  N  N36  1  0.22956110  0.20329025  0.32991459  1
  N  N37  1  0.10987215  0.09033612  0.13127010  1
  N  N38  1  0.88427264  0.20459128  0.84021082  1
  N  N39  1  0.79417569  0.05859914  0.58544700  1
  N  N40  1  0.55943338  0.19757340  0.33380326  1
  N  N41  1  0.46114351  0.06042198  0.08449381  1
  N  N42  1  0.22700422  0.20295968  0.84097885  1
  N  N43  1  0.11628737  0.09009339  0.62749263  1
  N  N44  1  0.88721102  0.20631525  0.37040750  1
  N  N45  1  0.77139498  0.10338876  0.08346938  1
  N  N46  1  0.55857542  0.19736263  0.83449249  1
  N  N47  1  0.44090980  0.10451635  0.58314021  1
  N  N48  1  0.22201372  0.54029830  0.38450155  1
  N  N49  1  0.10500546  0.43774397  0.12735436  1
  N  N50  1  0.88537490  0.54093148  0.88130256  1
  N  N51  1  0.77386831  0.43885594  0.62677323  1
  N  N52  1  0.55312884  0.54031049  0.37904715  1
  N  N53  1  0.44313274  0.43000644  0.13078966  1
  N  N54  1  0.22360588  0.53956880  0.87945148  1
  N  N55  1  0.10762492  0.43550211  0.63417461  1
  N  N56  1  0.88909624  0.54204206  0.38071543  1
  N  N57  1  0.77451153  0.43411005  0.13628595  1
  N  N58  1  0.55516957  0.53988034  0.88450841  1
  N  N59  1  0.44431560  0.42983253  0.63085983  1
  N  N60  1  0.22223107  0.86914524  0.38121617  1
  N  N61  1  0.12547531  0.75636738  0.12662362  1
  N  N62  1  0.89220002  0.86351039  0.89639638  1
  N  N63  1  0.80192991  0.77411136  0.62638910  1
  N  N64  1  0.55975050  0.86495143  0.39600116  1
  N  N65  1  0.45673531  0.77827530  0.13016996  1
  N  N66  1  0.22468918  0.86965937  0.88121416  1
  N  N67  1  0.08177877  0.77786500  0.63058075  1
  N  N68  1  0.88774508  0.87273952  0.31938862  1
  N  N69  1  0.73988591  0.77423487  0.12578363  1
  N  N70  1  0.55613145  0.87249766  0.82138953  1
  N  N71  1  0.43513230  0.75677097  0.62700959  1
