# generated using pymatgen
data_Al17BN18
_symmetry_space_group_name_H-M   'P 1'
_cell_length_a   9.29333309
_cell_length_b   9.28860122
_cell_length_c   10.03424983
_cell_angle_alpha   89.93782180
_cell_angle_beta   90.00001012
_cell_angle_gamma   59.98312497
_symmetry_Int_Tables_number   1
_chemical_formula_structural   Al17BN18
_chemical_formula_sum   'Al34 B2 N36'
_cell_volume   750.00325304
_cell_formula_units_Z   2
loop_
 _symmetry_equiv_pos_site_id
 _symmetry_equiv_pos_as_xyz
  1  'x, y, z'
loop_
 _atom_site_type_symbol
 _atom_site_label
 _atom_site_symmetry_multiplicity
 _atom_site_fract_x
 _atom_site_fract_y
 _atom_site_fract_z
 _atom_site_occupancy
  Al  Al0  1  0.11223769  0.09439002  0.39660494  1
  Al  Al1  1  0.22662185  0.19958628  0.14558910  1
  Al  Al2  1  0.77957984  0.09185204  0.89555077  1
  Al  Al3  1  0.89045798  0.19958591  0.64558930  1
  Al  Al4  1  0.44523464  0.09185269  0.39554924  1
  Al  Al5  1  0.55811799  0.19886825  0.14691935  1
  Al  Al6  1  0.11003980  0.09438893  0.89660470  1
  Al  Al7  1  0.22195500  0.20611923  0.64796347  1
  Al  Al8  1  0.77978151  0.08900931  0.39359669  1
  Al  Al9  1  0.88859158  0.20611967  0.14796337  1
  Al  Al10  1  0.44787719  0.08900878  0.89359861  1
  Al  Al11  1  0.55967998  0.19886805  0.64691897  1
  Al  Al12  1  0.11106128  0.42721431  0.39573036  1
  Al  Al13  1  0.22306980  0.53890039  0.14829229  1
  Al  Al14  1  0.77839195  0.42721392  0.89573025  1
  Al  Al15  1  0.89073928  0.54391981  0.64651675  1
  Al  Al16  1  0.44543153  0.42719485  0.39641189  1
  Al  Al17  1  0.55752536  0.54287290  0.14561364  1
  Al  Al18  1  0.11076095  0.42928097  0.89684785  1
  Al  Al19  1  0.21626846  0.54287249  0.64561376  1
  Al  Al20  1  0.77662454  0.42928179  0.39684799  1
  Al  Al21  1  0.88200781  0.54391919  0.14651687  1
  Al  Al22  1  0.44404050  0.42719429  0.89641154  1
  Al  Al23  1  0.55469734  0.53890088  0.64829238  1
  Al  Al24  1  0.10650264  0.76379026  0.39287194  1
  Al  Al25  1  0.22730458  0.87398302  0.14695620  1
  Al  Al26  1  0.77459943  0.76477419  0.89205798  1
  Al  Al27  1  0.44565563  0.76170533  0.39613564  1
  Al  Al28  1  0.10930652  0.76170406  0.89613702  1
  Al  Al29  1  0.21537937  0.87398249  0.64695581  1
  Al  Al30  1  0.77729235  0.76477451  0.39205456  1
  Al  Al31  1  0.88366751  0.87397837  0.13845842  1
  Al  Al32  1  0.44637353  0.76379002  0.89287362  1
  Al  Al33  1  0.55902049  0.87397943  0.63846091  1
  B  B34  1  0.88930159  0.87114003  0.62021619  1
  B  B35  1  0.55622473  0.87113982  0.12022537  1
  N  N36  1  0.22280286  0.20548572  0.33470996  1
  N  N37  1  0.11023202  0.09495227  0.08636014  1
  N  N38  1  0.88837837  0.20548505  0.83470999  1
  N  N39  1  0.79181965  0.06568525  0.58832810  1
  N  N40  1  0.55598753  0.20466221  0.33687246  1
  N  N41  1  0.45916103  0.06568610  0.08832946  1
  N  N42  1  0.22283451  0.20551082  0.83884348  1
  N  N43  1  0.11148200  0.09495205  0.58636028  1
  N  N44  1  0.88832142  0.20551186  0.33884352  1
  N  N45  1  0.77719972  0.09752254  0.08599560  1
  N  N46  1  0.55601754  0.20466153  0.83687195  1
  N  N47  1  0.44194446  0.09752167  0.58599412  1
  N  N48  1  0.22232404  0.53936204  0.33862338  1
  N  N49  1  0.11042118  0.42863891  0.08747414  1
  N  N50  1  0.88826966  0.54008844  0.83653745  1
  N  N51  1  0.77760696  0.42863879  0.58747417  1
  N  N52  1  0.55498466  0.53929636  0.33498003  1
  N  N53  1  0.44520206  0.42648385  0.08721322  1
  N  N54  1  0.22238593  0.53929573  0.83497985  1
  N  N55  1  0.11083718  0.42727540  0.58574012  1
  N  N56  1  0.88830888  0.54008834  0.33653764  1
  N  N57  1  0.77855394  0.42727551  0.08574002  1
  N  N58  1  0.55498083  0.53936204  0.83862340  1
  N  N59  1  0.44498102  0.42648433  0.58721354  1
  N  N60  1  0.22244319  0.87175584  0.33691202  1
  N  N61  1  0.11478267  0.76039110  0.08739879  1
  N  N62  1  0.88921453  0.87130834  0.84338253  1
  N  N63  1  0.79395321  0.77443016  0.58797179  1
  N  N64  1  0.55614271  0.87130946  0.34337228  1
  N  N65  1  0.45831197  0.77554994  0.08793511  1
  N  N66  1  0.22246803  0.87175466  0.83691148  1
  N  N67  1  0.08280375  0.77554992  0.58793387  1
  N  N68  1  0.88897806  0.87148288  0.32709153  1
  N  N69  1  0.74828297  0.77442896  0.08797416  1
  N  N70  1  0.55620578  0.87148253  0.82709270  1
  N  N71  1  0.44149428  0.76039209  0.58739753  1
