# generated using pymatgen
data_Al17BN18
_symmetry_space_group_name_H-M   'P 1'
_cell_length_a   9.33739820
_cell_length_b   9.31194638
_cell_length_c   10.12140436
_cell_angle_alpha   89.73047947
_cell_angle_beta   90.03972285
_cell_angle_gamma   60.01263585
_symmetry_Int_Tables_number   1
_chemical_formula_structural   Al17BN18
_chemical_formula_sum   'Al34 B2 N36'
_cell_volume   762.22914272
_cell_formula_units_Z   2
loop_
 _symmetry_equiv_pos_site_id
 _symmetry_equiv_pos_as_xyz
  1  'x, y, z'
loop_
 _atom_site_type_symbol
 _atom_site_label
 _atom_site_symmetry_multiplicity
 _atom_site_fract_x
 _atom_site_fract_y
 _atom_site_fract_z
 _atom_site_occupancy
  Al  Al0  1  0.11097328  0.09468210  0.31067758  1
  Al  Al1  1  0.21870785  0.20463726  0.06199208  1
  Al  Al2  1  0.78075568  0.09047320  0.86416157  1
  Al  Al3  1  0.88818960  0.19692501  0.56087910  1
  Al  Al4  1  0.45092853  0.09361979  0.38711957  1
  Al  Al5  1  0.55074884  0.19734570  0.12227187  1
  Al  Al6  1  0.11246130  0.09558655  0.80829511  1
  Al  Al7  1  0.21325081  0.21177995  0.56084308  1
  Al  Al8  1  0.78354830  0.09099595  0.30686081  1
  Al  Al9  1  0.89138320  0.21255214  0.06003406  1
  Al  Al10  1  0.45304435  0.08052832  0.87481222  1
  Al  Al11  1  0.56481551  0.19170761  0.63710848  1
  Al  Al12  1  0.11021187  0.42976993  0.30922590  1
  Al  Al13  1  0.22308687  0.54036211  0.05500958  1
  Al  Al14  1  0.77658405  0.43033357  0.80727710  1
  Al  Al15  1  0.89107574  0.54508932  0.55787149  1
  Al  Al16  1  0.43999596  0.43274333  0.30775559  1
  Al  Al17  1  0.55714549  0.54434772  0.06022201  1
  Al  Al18  1  0.11134544  0.42762048  0.80990259  1
  Al  Al19  1  0.21747241  0.54228406  0.56168952  1
  Al  Al20  1  0.77754941  0.42817158  0.31122766  1
  Al  Al21  1  0.87951425  0.54567908  0.05784048  1
  Al  Al22  1  0.44169913  0.43500302  0.81223927  1
  Al  Al23  1  0.55358848  0.53697135  0.55576297  1
  Al  Al24  1  0.11541264  0.75851079  0.30421667  1
  Al  Al25  1  0.22844705  0.87547985  0.05847129  1
  Al  Al26  1  0.78401218  0.76230971  0.81048622  1
  Al  Al27  1  0.44607222  0.76570574  0.31733353  1
  Al  Al28  1  0.10583328  0.76596632  0.81626895  1
  Al  Al29  1  0.21334865  0.87443796  0.55838031  1
  Al  Al30  1  0.76989391  0.76338900  0.31229027  1
  Al  Al31  1  0.88800957  0.86813383  0.08697894  1
  Al  Al32  1  0.44224125  0.75984925  0.80223875  1
  Al  Al33  1  0.55951231  0.87197703  0.59293446  1
  B  B34  1  0.89131224  0.87321959  0.60552263  1
  B  B35  1  0.55444607  0.86933992  0.09836283  1
  N  N36  1  0.21665099  0.20878042  0.36868488  1
  N  N37  1  0.11040553  0.09518108  0.12242209  1
  N  N38  1  0.89215256  0.20951186  0.87100302  1
  N  N39  1  0.79825008  0.05900479  0.61179143  1
  N  N40  1  0.55342483  0.20031320  0.31402687  1
  N  N41  1  0.46131184  0.05784032  0.07191842  1
  N  N42  1  0.21986111  0.20762799  0.87241925  1
  N  N43  1  0.10974906  0.09522286  0.62050854  1
  N  N44  1  0.88754026  0.20455127  0.37021031  1
  N  N45  1  0.77707869  0.10152395  0.09754631  1
  N  N46  1  0.55602283  0.20254630  0.83100131  1
  N  N47  1  0.44197140  0.10355230  0.57597440  1
  N  N48  1  0.22207576  0.53912604  0.37269000  1
  N  N49  1  0.10847185  0.43214245  0.11886059  1
  N  N50  1  0.88841785  0.53977498  0.86931880  1
  N  N51  1  0.77708093  0.42869297  0.61752016  1
  N  N52  1  0.55462866  0.53800670  0.36669628  1
  N  N53  1  0.44161043  0.43357997  0.11521021  1
  N  N54  1  0.22117555  0.54026361  0.86725193  1
  N  N55  1  0.10918767  0.42953112  0.62197740  1
  N  N56  1  0.88861504  0.53956738  0.36931120  1
  N  N57  1  0.77724389  0.43016615  0.12224000  1
  N  N58  1  0.55620464  0.54122797  0.87207946  1
  N  N59  1  0.44336348  0.42949504  0.62103967  1
  N  N60  1  0.22096933  0.87216963  0.36947701  1
  N  N61  1  0.12510193  0.75718808  0.11547467  1
  N  N62  1  0.89254825  0.86360744  0.88861665  1
  N  N63  1  0.80328483  0.77209299  0.61654016  1
  N  N64  1  0.56073388  0.86345821  0.38468325  1
  N  N65  1  0.45718060  0.77761321  0.11934765  1
  N  N66  1  0.22372431  0.87354755  0.86957974  1
  N  N67  1  0.08377097  0.77579949  0.62081278  1
  N  N68  1  0.89073919  0.86731686  0.31384919  1
  N  N69  1  0.74060279  0.77366889  0.11464129  1
  N  N70  1  0.55745320  0.87160739  0.80835380  1
  N  N71  1  0.43542405  0.75587989  0.61468143  1
