# generated using pymatgen
data_Al17BN18
_symmetry_space_group_name_H-M   'P 1'
_cell_length_a   9.35575599
_cell_length_b   9.31429032
_cell_length_c   10.19929227
_cell_angle_alpha   89.42845146
_cell_angle_beta   90.00091413
_cell_angle_gamma   59.86079890
_symmetry_Int_Tables_number   1
_chemical_formula_structural   Al17BN18
_chemical_formula_sum   'Al34 B2 N36'
_cell_volume   768.58074204
_cell_formula_units_Z   2
loop_
 _symmetry_equiv_pos_site_id
 _symmetry_equiv_pos_as_xyz
  1  'x, y, z'
loop_
 _atom_site_type_symbol
 _atom_site_label
 _atom_site_symmetry_multiplicity
 _atom_site_fract_x
 _atom_site_fract_y
 _atom_site_fract_z
 _atom_site_occupancy
  Al  Al0  1  0.11405495  0.08956202  0.32844236  1
  Al  Al1  1  0.23100287  0.19807350  0.13542401  1
  Al  Al2  1  0.77578459  0.09783025  0.89874988  1
  Al  Al3  1  0.88764459  0.19777650  0.63684384  1
  Al  Al4  1  0.44299797  0.09772551  0.39851841  1
  Al  Al5  1  0.56111025  0.19135383  0.14544874  1
  Al  Al6  1  0.11317932  0.08977223  0.82964665  1
  Al  Al7  1  0.22854164  0.20447118  0.64392123  1
  Al  Al8  1  0.78248598  0.08254234  0.39006508  1
  Al  Al9  1  0.88344211  0.20448924  0.14368173  1
  Al  Al10  1  0.45200103  0.08247734  0.89005247  1
  Al  Al11  1  0.56404419  0.19143099  0.64523803  1
  Al  Al12  1  0.10805350  0.43608294  0.31892709  1
  Al  Al13  1  0.22473262  0.53931675  0.06651165  1
  Al  Al14  1  0.77234242  0.43640564  0.81930041  1
  Al  Al15  1  0.89277086  0.54406058  0.56796101  1
  Al  Al16  1  0.44151288  0.43169728  0.32157615  1
  Al  Al17  1  0.55675970  0.54236290  0.07155986  1
  Al  Al18  1  0.10745069  0.43559335  0.82477888  1
  Al  Al19  1  0.21741483  0.54233476  0.57154480  1
  Al  Al20  1  0.77376899  0.43538003  0.32449520  1
  Al  Al21  1  0.87954348  0.54439523  0.06786317  1
  Al  Al22  1  0.44335461  0.43181197  0.82146475  1
  Al  Al23  1  0.55272669  0.53913095  0.56655872  1
  Al  Al24  1  0.11414299  0.75956040  0.31338197  1
  Al  Al25  1  0.22844350  0.87405978  0.06836361  1
  Al  Al26  1  0.78245834  0.76603470  0.82110624  1
  Al  Al27  1  0.44639215  0.76610828  0.32708731  1
  Al  Al28  1  0.10414397  0.76628454  0.82695051  1
  Al  Al29  1  0.21403571  0.87436401  0.56838450  1
  Al  Al30  1  0.76839225  0.76581746  0.32136113  1
  Al  Al31  1  0.88660797  0.87106742  0.10069043  1
  Al  Al32  1  0.44290368  0.75964490  0.81321333  1
  Al  Al33  1  0.55893846  0.87109078  0.60063997  1
  B  B34  1  0.89274250  0.86885260  0.60896973  1
  B  B35  1  0.55511165  0.86885635  0.10914627  1
  N  N36  1  0.23034571  0.20294988  0.32869019  1
  N  N37  1  0.11056768  0.09128250  0.12474645  1
  N  N38  1  0.88340750  0.20320265  0.82959825  1
  N  N39  1  0.79435527  0.06079939  0.58396217  1
  N  N40  1  0.55972000  0.19723989  0.33362815  1
  N  N41  1  0.46173870  0.06063867  0.08384489  1
  N  N42  1  0.22844421  0.20357790  0.84064384  1
  N  N43  1  0.11476618  0.09116846  0.62577744  1
  N  N44  1  0.88496903  0.20323938  0.33952114  1
  N  N45  1  0.77177612  0.10455794  0.08255396  1
  N  N46  1  0.55979251  0.19733828  0.83345100  1
  N  N47  1  0.43999203  0.10466151  0.58243792  1
  N  N48  1  0.22194632  0.53992113  0.38437252  1
  N  N49  1  0.10499861  0.43819265  0.12736443  1
  N  N50  1  0.88619957  0.54133209  0.88118900  1
  N  N51  1  0.77348191  0.43790484  0.62772970  1
  N  N52  1  0.55321506  0.53970732  0.37969237  1
  N  N53  1  0.44292383  0.43030986  0.13097602  1
  N  N54  1  0.22372166  0.53996363  0.87966575  1
  N  N55  1  0.10740940  0.43555030  0.63438640  1
  N  N56  1  0.88936263  0.54093662  0.38122023  1
  N  N57  1  0.77358224  0.43563789  0.13408674  1
  N  N58  1  0.55458152  0.54011826  0.88440050  1
  N  N59  1  0.44326156  0.43034964  0.63089738  1
  N  N60  1  0.22263011  0.86837299  0.38143061  1
  N  N61  1  0.12475347  0.75681444  0.12698985  1
  N  N62  1  0.89230793  0.86459209  0.89580503  1
  N  N63  1  0.80171270  0.77451538  0.62582139  1
  N  N64  1  0.55991753  0.86444633  0.39586803  1
  N  N65  1  0.45713946  0.77810084  0.13053972  1
  N  N66  1  0.22585423  0.86820494  0.88151648  1
  N  N67  1  0.08142236  0.77812360  0.63039567  1
  N  N68  1  0.88776785  0.87236524  0.32152837  1
  N  N69  1  0.74045343  0.77455025  0.12601728  1
  N  N70  1  0.55651224  0.87251297  0.82111190  1
  N  N71  1  0.43506640  0.75674057  0.62683320  1
