# generated using pymatgen
data_Al17BN18
_symmetry_space_group_name_H-M   'P 1'
_cell_length_a   9.35805885
_cell_length_b   9.29094805
_cell_length_c   10.25804223
_cell_angle_alpha   89.42226605
_cell_angle_beta   90.04225017
_cell_angle_gamma   59.73648943
_symmetry_Int_Tables_number   1
_chemical_formula_structural   Al17BN18
_chemical_formula_sum   'Al34 B2 N36'
_cell_volume   770.28184452
_cell_formula_units_Z   2
loop_
 _symmetry_equiv_pos_site_id
 _symmetry_equiv_pos_as_xyz
  1  'x, y, z'
loop_
 _atom_site_type_symbol
 _atom_site_label
 _atom_site_symmetry_multiplicity
 _atom_site_fract_x
 _atom_site_fract_y
 _atom_site_fract_z
 _atom_site_occupancy
  Al  Al0  1  0.11186132  0.09540915  0.39121424  1
  Al  Al1  1  0.22948316  0.19493574  0.13797162  1
  Al  Al2  1  0.77546838  0.09941720  0.89671731  1
  Al  Al3  1  0.89260322  0.19489662  0.63900902  1
  Al  Al4  1  0.44148593  0.10046637  0.39702077  1
  Al  Al5  1  0.56206145  0.19242972  0.14356127  1
  Al  Al6  1  0.11079486  0.09246713  0.89158138  1
  Al  Al7  1  0.22417045  0.20110022  0.64486838  1
  Al  Al8  1  0.78209316  0.08424589  0.38914995  1
  Al  Al9  1  0.89181519  0.19999261  0.14432224  1
  Al  Al10  1  0.45052107  0.08303205  0.88846799  1
  Al  Al11  1  0.56205185  0.19286357  0.64460271  1
  Al  Al12  1  0.10782838  0.43445921  0.31753692  1
  Al  Al13  1  0.22482961  0.53872077  0.06584797  1
  Al  Al14  1  0.77494546  0.43366640  0.81856237  1
  Al  Al15  1  0.89201507  0.54380864  0.56702428  1
  Al  Al16  1  0.44130696  0.43300604  0.31955510  1
  Al  Al17  1  0.55758379  0.54418282  0.07006470  1
  Al  Al18  1  0.10764414  0.43277647  0.82268056  1
  Al  Al19  1  0.21587359  0.54249939  0.57019903  1
  Al  Al20  1  0.77565121  0.43306526  0.32146964  1
  Al  Al21  1  0.88074212  0.54380722  0.06742458  1
  Al  Al22  1  0.44207751  0.43274656  0.82090458  1
  Al  Al23  1  0.55485901  0.53571657  0.56691676  1
  Al  Al24  1  0.10950808  0.75770163  0.31386605  1
  Al  Al25  1  0.22897259  0.87805767  0.13929944  1
  Al  Al26  1  0.78238603  0.76493967  0.81877175  1
  Al  Al27  1  0.45150690  0.76372595  0.34038229  1
  Al  Al28  1  0.10022391  0.76335499  0.82904245  1
  Al  Al29  1  0.21032748  0.87925996  0.63540199  1
  Al  Al30  1  0.76889468  0.76573472  0.31960193  1
  Al  Al31  1  0.88516945  0.87143759  0.09416536  1
  Al  Al32  1  0.44888445  0.75695054  0.81110209  1
  Al  Al33  1  0.56011062  0.87352113  0.59795382  1
  B  B34  1  0.89075044  0.86913512  0.60610324  1
  B  B35  1  0.55649373  0.86866333  0.10769795  1
  N  N36  1  0.22708206  0.19875247  0.32562632  1
  N  N37  1  0.10920037  0.09710862  0.07699611  1
  N  N38  1  0.89146606  0.19797061  0.82655932  1
  N  N39  1  0.79264952  0.06323374  0.58326865  1
  N  N40  1  0.55921663  0.19827611  0.33120120  1
  N  N41  1  0.46129784  0.06229293  0.08225574  1
  N  N42  1  0.22618009  0.19828050  0.83437956  1
  N  N43  1  0.10949432  0.09927196  0.57631353  1
  N  N44  1  0.89130488  0.19875180  0.33369835  1
  N  N45  1  0.77343161  0.10608283  0.08053964  1
  N  N46  1  0.55916668  0.19777771  0.83220242  1
  N  N47  1  0.43605701  0.10825306  0.58075060  1
  N  N48  1  0.22228864  0.53830409  0.38394394  1
  N  N49  1  0.10633438  0.43632318  0.12766740  1
  N  N50  1  0.88704619  0.53994334  0.88129779  1
  N  N51  1  0.77495725  0.43582841  0.62881035  1
  N  N52  1  0.55681001  0.53526903  0.38150779  1
  N  N53  1  0.44294954  0.43317385  0.13031780  1
  N  N54  1  0.22321611  0.53726776  0.88034609  1
  N  N55  1  0.10658354  0.43464408  0.63394395  1
  N  N56  1  0.88936467  0.53960778  0.38078460  1
  N  N57  1  0.77557746  0.43392731  0.13296193  1
  N  N58  1  0.55596121  0.53883577  0.88328507  1
  N  N59  1  0.44071451  0.43285207  0.63177746  1
  N  N60  1  0.22287245  0.87530025  0.33164352  1
  N  N61  1  0.11939253  0.75685141  0.12375347  1
  N  N62  1  0.88914469  0.86527816  0.89514116  1
  N  N63  1  0.80001936  0.77473384  0.62521927  1
  N  N64  1  0.56269127  0.86678073  0.39685913  1
  N  N65  1  0.46370768  0.77624381  0.12808029  1
  N  N66  1  0.21847663  0.87478967  0.82750170  1
  N  N67  1  0.07692932  0.77631689  0.62812860  1
  N  N68  1  0.88627011  0.87247077  0.32619220  1
  N  N69  1  0.74266863  0.77495217  0.12550193  1
  N  N70  1  0.55702800  0.87341706  0.81881621  1
  N  N71  1  0.44058437  0.75638119  0.61922827  1
