# generated using pymatgen
data_Al17BN18
_symmetry_space_group_name_H-M   'P 1'
_cell_length_a   9.31713193
_cell_length_b   9.30891315
_cell_length_c   10.05344929
_cell_angle_alpha   89.78414298
_cell_angle_beta   90.00002600
_cell_angle_gamma   59.97077731
_symmetry_Int_Tables_number   1
_chemical_formula_structural   Al17BN18
_chemical_formula_sum   'Al34 B2 N36'
_cell_volume   754.90947005
_cell_formula_units_Z   2
loop_
 _symmetry_equiv_pos_site_id
 _symmetry_equiv_pos_as_xyz
  1  'x, y, z'
loop_
 _atom_site_type_symbol
 _atom_site_label
 _atom_site_symmetry_multiplicity
 _atom_site_fract_x
 _atom_site_fract_y
 _atom_site_fract_z
 _atom_site_occupancy
  Al  Al0  1  0.11281442  0.09448397  0.39734163  1
  Al  Al1  1  0.22743105  0.19874730  0.14494880  1
  Al  Al2  1  0.77737501  0.09694926  0.90125870  1
  Al  Al3  1  0.89048658  0.19874779  0.64494838  1
  Al  Al4  1  0.44234230  0.09694934  0.40125854  1
  Al  Al5  1  0.55792210  0.19888137  0.14797588  1
  Al  Al6  1  0.10936838  0.09448269  0.89734153  1
  Al  Al7  1  0.22041841  0.20720498  0.64989229  1
  Al  Al8  1  0.78020313  0.08826816  0.39013043  1
  Al  Al9  1  0.88904161  0.20720512  0.14989252  1
  Al  Al10  1  0.44819616  0.08826764  0.89013107  1
  Al  Al11  1  0.55986251  0.19888180  0.64797529  1
  Al  Al12  1  0.11158397  0.42677874  0.39551257  1
  Al  Al13  1  0.22498844  0.53775398  0.14982853  1
  Al  Al14  1  0.77830442  0.42677774  0.89551244  1
  Al  Al15  1  0.89224139  0.54154804  0.64372996  1
  Al  Al16  1  0.44597861  0.42690317  0.39704082  1
  Al  Al17  1  0.55779316  0.54282059  0.14458427  1
  Al  Al18  1  0.11111830  0.42948742  0.89700335  1
  Al  Al19  1  0.21605285  0.54282031  0.64458409  1
  Al  Al20  1  0.77606003  0.42948939  0.39700350  1
  Al  Al21  1  0.88287886  0.54154556  0.14372889  1
  Al  Al22  1  0.44378503  0.42690226  0.89704062  1
  Al  Al23  1  0.55392470  0.53775509  0.64982832  1
  Al  Al24  1  0.10613869  0.76421317  0.38908671  1
  Al  Al25  1  0.22943354  0.87431196  0.14812462  1
  Al  Al26  1  0.77590599  0.76560464  0.86404796  1
  Al  Al27  1  0.44289393  0.75912239  0.40192079  1
  Al  Al28  1  0.11465315  0.75912031  0.90192088  1
  Al  Al29  1  0.21292091  0.87431211  0.64812363  1
  Al  Al30  1  0.77515517  0.76560632  0.36403820  1
  Al  Al31  1  0.88485890  0.87449082  0.12014661  1
  Al  Al32  1  0.44631460  0.76421253  0.88908704  1
  Al  Al33  1  0.55731912  0.87449151  0.62015118  1
  B  B34  1  0.88942198  0.86917041  0.60315188  1
  B  B35  1  0.55807332  0.86917051  0.10315290  1
  N  N36  1  0.22340228  0.20525953  0.33410214  1
  N  N37  1  0.11007567  0.09526843  0.08701608  1
  N  N38  1  0.88800485  0.20525866  0.83410177  1
  N  N39  1  0.79260405  0.06347845  0.58663675  1
  N  N40  1  0.55512130  0.20461618  0.33748272  1
  N  N41  1  0.46058371  0.06347814  0.08663736  1
  N  N42  1  0.22168889  0.20612005  0.84017761  1
  N  N43  1  0.11132095  0.09526883  0.58701601  1
  N  N44  1  0.88885661  0.20612169  0.34017766  1
  N  N45  1  0.77434242  0.10488157  0.09009262  1
  N  N46  1  0.55692950  0.20461540  0.83748221  1
  N  N47  1  0.43744213  0.10488111  0.59009267  1
  N  N48  1  0.22300876  0.53853260  0.33970400  1
  N  N49  1  0.11136049  0.42878724  0.08720232  1
  N  N50  1  0.88968708  0.53703007  0.83474084  1
  N  N51  1  0.77651907  0.42878822  0.58720253  1
  N  N52  1  0.55472283  0.53993231  0.33426959  1
  N  N53  1  0.44545099  0.42571325  0.08750108  1
  N  N54  1  0.22201184  0.53993099  0.83426936  1
  N  N55  1  0.11101822  0.42695775  0.58487252  1
  N  N56  1  0.88994942  0.53703063  0.33473938  1
  N  N57  1  0.77869026  0.42695740  0.08487232  1
  N  N58  1  0.55512530  0.53853210  0.83970399  1
  N  N59  1  0.44550229  0.42571414  0.58750124  1
  N  N60  1  0.22316962  0.87256090  0.33759058  1
  N  N61  1  0.12388291  0.75698509  0.09147219  1
  N  N62  1  0.88997408  0.87159119  0.88530644  1
  N  N63  1  0.79893355  0.77461694  0.60433555  1
  N  N64  1  0.55510171  0.87159253  0.38529998  1
  N  N65  1  0.45891735  0.77651672  0.08587811  1
  N  N66  1  0.22093644  0.87256009  0.83758971  1
  N  N67  1  0.08123225  0.77651665  0.58587784  1
  N  N68  1  0.89047301  0.87287230  0.32060447  1
  N  N69  1  0.74311700  0.77461561  0.10433371  1
  N  N70  1  0.55332324  0.87287096  0.82060713  1
  N  N71  1  0.43580002  0.75698706  0.59147226  1
