# generated using pymatgen
data_Al17BN18
_symmetry_space_group_name_H-M   'P 1'
_cell_length_a   9.29830581
_cell_length_b   9.30053781
_cell_length_c   9.94035163
_cell_angle_alpha   90.03209166
_cell_angle_beta   89.99999480
_cell_angle_gamma   60.00794423
_symmetry_Int_Tables_number   1
_chemical_formula_structural   Al17BN18
_chemical_formula_sum   'Al34 B2 N36'
_cell_volume   744.52440234
_cell_formula_units_Z   2
loop_
 _symmetry_equiv_pos_site_id
 _symmetry_equiv_pos_as_xyz
  1  'x, y, z'
loop_
 _atom_site_type_symbol
 _atom_site_label
 _atom_site_symmetry_multiplicity
 _atom_site_fract_x
 _atom_site_fract_y
 _atom_site_fract_z
 _atom_site_occupancy
  Al  Al0  1  0.11109695  0.09413898  0.40287031  1
  Al  Al1  1  0.22549430  0.20042541  0.15277621  1
  Al  Al2  1  0.77892794  0.09175424  0.89580710  1
  Al  Al3  1  0.89074683  0.20042595  0.65277626  1
  Al  Al4  1  0.44598495  0.09175462  0.39580703  1
  Al  Al5  1  0.55885851  0.19945228  0.15250416  1
  Al  Al6  1  0.11143185  0.09413878  0.90287039  1
  Al  Al7  1  0.22435686  0.20433745  0.65271016  1
  Al  Al8  1  0.78046781  0.08883672  0.40715133  1
  Al  Al9  1  0.88797277  0.20433725  0.15271012  1
  Al  Al10  1  0.44736294  0.08883655  0.90715142  1
  Al  Al11  1  0.55835526  0.19945244  0.65250414  1
  Al  Al12  1  0.11073678  0.42780938  0.40255805  1
  Al  Al13  1  0.22091220  0.54063057  0.15318250  1
  Al  Al14  1  0.77812131  0.42780919  0.90255808  1
  Al  Al15  1  0.88987490  0.54415849  0.65288670  1
  Al  Al16  1  0.44488817  0.42769274  0.40259868  1
  Al  Al17  1  0.55711683  0.54233645  0.15268549  1
  Al  Al18  1  0.11137323  0.42775002  0.90337384  1
  Al  Al19  1  0.21721315  0.54233693  0.65268542  1
  Al  Al20  1  0.77754372  0.42775017  0.40337387  1
  Al  Al21  1  0.88263350  0.54415786  0.15288681  1
  Al  Al22  1  0.44408532  0.42769248  0.90259874  1
  Al  Al23  1  0.55512407  0.54063010  0.65318264  1
  Al  Al24  1  0.10542719  0.76407679  0.40666491  1
  Al  Al25  1  0.22436317  0.87295089  0.15241810  1
  Al  Al26  1  0.77388402  0.76505432  0.90045450  1
  Al  Al27  1  0.44587923  0.76227764  0.39590803  1
  Al  Al28  1  0.10850917  0.76227771  0.89590788  1
  Al  Al29  1  0.21935220  0.87295167  0.65241809  1
  Al  Al30  1  0.77772757  0.76505439  0.40045446  1
  Al  Al31  1  0.88332833  0.87363470  0.15103901  1
  Al  Al32  1  0.44716240  0.76407614  0.90666480  1
  Al  Al33  1  0.55970304  0.87363500  0.65103898  1
  B  B34  1  0.88805854  0.87232993  0.65535374  1
  B  B35  1  0.55627825  0.87232948  0.15535373  1
  N  N36  1  0.22162053  0.20561111  0.34282023  1
  N  N37  1  0.11024276  0.09434309  0.09362939  1
  N  N38  1  0.88943592  0.20561082  0.84282039  1
  N  N39  1  0.79024902  0.06922009  0.60130466  1
  N  N40  1  0.55844006  0.20447041  0.34427117  1
  N  N41  1  0.45719779  0.06921961  0.10130457  1
  N  N42  1  0.22474132  0.20431972  0.84552598  1
  N  N43  1  0.11208082  0.09434360  0.59362937  1
  N  N44  1  0.88760641  0.20431975  0.34552603  1
  N  N45  1  0.77880546  0.09273884  0.08790355  1
  N  N46  1  0.55375676  0.20447024  0.84427117  1
  N  N47  1  0.44512226  0.09273890  0.58790338  1
  N  N48  1  0.22106439  0.54119778  0.34552555  1
  N  N49  1  0.11040344  0.42771734  0.09497360  1
  N  N50  1  0.88845883  0.54079428  0.84478819  1
  N  N51  1  0.77854588  0.42771763  0.59497366  1
  N  N52  1  0.55603643  0.53835184  0.34293136  1
  N  N53  1  0.44463703  0.42724203  0.09457546  1
  N  N54  1  0.22227832  0.53835195  0.84293124  1
  N  N55  1  0.11148448  0.42670697  0.59360129  1
  N  N56  1  0.88741394  0.54079430  0.34478824  1
  N  N57  1  0.77847547  0.42670662  0.09360124  1
  N  N58  1  0.55440487  0.54119703  0.84552573  1
  N  N59  1  0.44478724  0.42724210  0.59457547  1
  N  N60  1  0.22065199  0.87120078  0.34419838  1
  N  N61  1  0.10838254  0.76245297  0.08900181  1
  N  N62  1  0.88775682  0.87132739  0.82277460  1
  N  N63  1  0.78916457  0.77424824  0.59661356  1
  N  N64  1  0.55758203  0.87132744  0.32277463  1
  N  N65  1  0.45656480  0.77393861  0.10102622  1
  N  N66  1  0.22481371  0.87120063  0.84419838  1
  N  N67  1  0.08616283  0.77393920  0.60102632  1
  N  N68  1  0.88895683  0.87263159  0.33922512  1
  N  N69  1  0.75325373  0.77424777  0.09661360  1
  N  N70  1  0.55507774  0.87263147  0.83922509  1
  N  N71  1  0.44583086  0.76245293  0.58900203  1
