# generated using pymatgen
data_Al17BN18
_symmetry_space_group_name_H-M   'P 1'
_cell_length_a   9.31160717
_cell_length_b   9.30233482
_cell_length_c   10.09731340
_cell_angle_alpha   89.62945219
_cell_angle_beta   90.00000619
_cell_angle_gamma   59.96702340
_symmetry_Int_Tables_number   1
_chemical_formula_structural   Al17BN18
_chemical_formula_sum   'Al34 B2 N36'
_cell_volume   757.17550081
_cell_formula_units_Z   2
loop_
 _symmetry_equiv_pos_site_id
 _symmetry_equiv_pos_as_xyz
  1  'x, y, z'
loop_
 _atom_site_type_symbol
 _atom_site_label
 _atom_site_symmetry_multiplicity
 _atom_site_fract_x
 _atom_site_fract_y
 _atom_site_fract_z
 _atom_site_occupancy
  Al  Al0  1  0.11306574  0.09451210  0.39438325  1
  Al  Al1  1  0.22747572  0.19860679  0.14180352  1
  Al  Al2  1  0.77638859  0.09761667  0.90007060  1
  Al  Al3  1  0.89058287  0.19860708  0.64180355  1
  Al  Al4  1  0.44266098  0.09761718  0.40007046  1
  Al  Al5  1  0.55778942  0.19908755  0.14542046  1
  Al  Al6  1  0.10908875  0.09451126  0.89438323  1
  Al  Al7  1  0.22045516  0.20722497  0.64742047  1
  Al  Al8  1  0.78122986  0.08675999  0.38657444  1
  Al  Al9  1  0.88898530  0.20722500  0.14742043  1
  Al  Al10  1  0.44867698  0.08675993  0.88657463  1
  Al  Al11  1  0.55978932  0.19908796  0.64542029  1
  Al  Al12  1  0.11110433  0.42743056  0.39173835  1
  Al  Al13  1  0.22552235  0.53744349  0.14725800  1
  Al  Al14  1  0.77813283  0.42743036  0.89173846  1
  Al  Al15  1  0.89433256  0.53702224  0.63949283  1
  Al  Al16  1  0.44652390  0.42675109  0.39404132  1
  Al  Al17  1  0.55762380  0.54271612  0.14113275  1
  Al  Al18  1  0.10998218  0.42996664  0.89335321  1
  Al  Al19  1  0.21632777  0.54271560  0.64113275  1
  Al  Al20  1  0.77671790  0.42996750  0.39335330  1
  Al  Al21  1  0.88531344  0.53702166  0.13949260  1
  Al  Al22  1  0.44339251  0.42675059  0.89404123  1
  Al  Al23  1  0.55370185  0.53744415  0.64725798  1
  Al  Al24  1  0.10539040  0.76431226  0.38520792  1
  Al  Al25  1  0.22948310  0.87449514  0.14560030  1
  Al  Al26  1  0.78134600  0.77041182  0.82318175  1
  Al  Al27  1  0.44332666  0.75842684  0.40066522  1
  Al  Al28  1  0.11491415  0.75842559  0.90066504  1
  Al  Al29  1  0.21268780  0.87449530  0.64560002  1
  Al  Al30  1  0.76490787  0.77041127  0.32318108  1
  Al  Al31  1  0.88528450  0.87454374  0.11015792  1
  Al  Al32  1  0.44696358  0.76431187  0.88520784  1
  Al  Al33  1  0.55683818  0.87454513  0.61015804  1
  B  B34  1  0.89100202  0.87017833  0.60029299  1
  B  B35  1  0.55548591  0.87017836  0.10029279  1
  N  N36  1  0.22461884  0.20455535  0.33052752  1
  N  N37  1  0.10978128  0.09555969  0.08371094  1
  N  N38  1  0.88749232  0.20455512  0.83052756  1
  N  N39  1  0.79298451  0.06331396  0.58348837  1
  N  N40  1  0.55547857  0.20419749  0.33429305  1
  N  N41  1  0.46036770  0.06331396  0.08348856  1
  N  N42  1  0.22138696  0.20624969  0.83700760  1
  N  N43  1  0.11132453  0.09555995  0.58371091  1
  N  N44  1  0.88902928  0.20625035  0.33700751  1
  N  N45  1  0.77335271  0.10678782  0.08759532  1
  N  N46  1  0.55699081  0.20419708  0.83429291  1
  N  N47  1  0.43652511  0.10678882  0.58759529  1
  N  N48  1  0.22372154  0.53824873  0.33635804  1
  N  N49  1  0.11205575  0.42859507  0.08310939  1
  N  N50  1  0.88977294  0.53601442  0.83029950  1
  N  N51  1  0.77601658  0.42859557  0.58310945  1
  N  N52  1  0.55498222  0.54051792  0.33044761  1
  N  N53  1  0.44535865  0.42549986  0.08403198  1
  N  N54  1  0.22116750  0.54051692  0.83044754  1
  N  N55  1  0.11159221  0.42685856  0.58043367  1
  N  N56  1  0.89088005  0.53601428  0.33029929  1
  N  N57  1  0.77821650  0.42685856  0.08043378  1
  N  N58  1  0.55469719  0.53824844  0.83635809  1
  N  N59  1  0.44580902  0.42550026  0.58403205  1
  N  N60  1  0.22434676  0.87258810  0.33450657  1
  N  N61  1  0.12626167  0.75613181  0.08897820  1
  N  N62  1  0.88683142  0.86891374  0.89679048  1
  N  N63  1  0.80164345  0.77692659  0.62554839  1
  N  N64  1  0.56092129  0.86891459  0.39679047  1
  N  N65  1  0.45847941  0.77686371  0.08232730  1
  N  N66  1  0.21973170  0.87258755  0.83450629  1
  N  N67  1  0.08132320  0.77686354  0.58232736  1
  N  N68  1  0.89134949  0.87324543  0.31750428  1
  N  N69  1  0.73809642  0.77692612  0.12554800  1
  N  N70  1  0.55207063  0.87324580  0.81750443  1
  N  N71  1  0.43427307  0.75613273  0.58897836  1
