# generated using pymatgen
data_Al17BN18
_symmetry_space_group_name_H-M   'P 1'
_cell_length_a   9.33269449
_cell_length_b   9.32518037
_cell_length_c   10.02864162
_cell_angle_alpha   89.84930811
_cell_angle_beta   89.93477724
_cell_angle_gamma   60.05367175
_symmetry_Int_Tables_number   1
_chemical_formula_structural   Al17BN18
_chemical_formula_sum   'Al34 B2 N36'
_cell_volume   756.25829105
_cell_formula_units_Z   2
loop_
 _symmetry_equiv_pos_site_id
 _symmetry_equiv_pos_as_xyz
  1  'x, y, z'
loop_
 _atom_site_type_symbol
 _atom_site_label
 _atom_site_symmetry_multiplicity
 _atom_site_fract_x
 _atom_site_fract_y
 _atom_site_fract_z
 _atom_site_occupancy
  Al  Al0  1  0.11109251  0.09550463  0.30884150  1
  Al  Al1  1  0.22719387  0.19807121  0.06090577  1
  Al  Al2  1  0.78868412  0.08475143  0.80793514  1
  Al  Al3  1  0.88955136  0.20151753  0.56083966  1
  Al  Al4  1  0.44718929  0.09352105  0.38666307  1
  Al  Al5  1  0.55564853  0.19308907  0.13090268  1
  Al  Al6  1  0.11215551  0.09318157  0.81139560  1
  Al  Al7  1  0.21030011  0.21239771  0.56316174  1
  Al  Al8  1  0.78564022  0.08903573  0.32174995  1
  Al  Al9  1  0.88795405  0.20451387  0.06026558  1
  Al  Al10  1  0.44942536  0.08757820  0.83967186  1
  Al  Al11  1  0.55949877  0.20227242  0.62008018  1
  Al  Al12  1  0.11146664  0.42745630  0.30825029  1
  Al  Al13  1  0.22136331  0.54043092  0.05912990  1
  Al  Al14  1  0.77677625  0.42972058  0.81065063  1
  Al  Al15  1  0.89072925  0.54353945  0.55806116  1
  Al  Al16  1  0.43975799  0.43465549  0.31206203  1
  Al  Al17  1  0.55810545  0.54280403  0.06137076  1
  Al  Al18  1  0.11037263  0.42883755  0.81207792  1
  Al  Al19  1  0.21520544  0.54419439  0.56012832  1
  Al  Al20  1  0.77851987  0.42769413  0.31000703  1
  Al  Al21  1  0.88140882  0.54487264  0.06161494  1
  Al  Al22  1  0.44194508  0.43449377  0.81092431  1
  Al  Al23  1  0.55366659  0.53972451  0.55624013  1
  Al  Al24  1  0.10834740  0.76233866  0.31478991  1
  Al  Al25  1  0.22559786  0.87350968  0.06214404  1
  Al  Al26  1  0.78555411  0.76122715  0.80217156  1
  Al  Al27  1  0.44696894  0.76572598  0.31635967  1
  Al  Al28  1  0.10646845  0.76408783  0.80706291  1
  Al  Al29  1  0.21462129  0.87393163  0.55762211  1
  Al  Al30  1  0.77358199  0.76565293  0.32345809  1
  Al  Al31  1  0.88158329  0.87432994  0.06289785  1
  Al  Al32  1  0.44245628  0.75921948  0.80497934  1
  Al  Al33  1  0.56102246  0.86771055  0.58996332  1
  B  B34  1  0.89286408  0.86799216  0.55686139  1
  B  B35  1  0.55470253  0.87460442  0.10435292  1
  N  N36  1  0.21597591  0.20879016  0.37060285  1
  N  N37  1  0.11049010  0.09473798  0.11943127  1
  N  N38  1  0.88879652  0.20524543  0.86923975  1
  N  N39  1  0.79615829  0.06616018  0.61133399  1
  N  N40  1  0.55374502  0.20392910  0.33037111  1
  N  N41  1  0.46248940  0.05848734  0.08783571  1
  N  N42  1  0.22177267  0.20602289  0.86961655  1
  N  N43  1  0.10963192  0.09399786  0.62225873  1
  N  N44  1  0.89024616  0.20694769  0.37203491  1
  N  N45  1  0.78606919  0.08921973  0.12691072  1
  N  N46  1  0.55911593  0.20423121  0.82133615  1
  N  N47  1  0.43859064  0.10149409  0.58503492  1
  N  N48  1  0.21992200  0.53954982  0.37081049  1
  N  N49  1  0.11146128  0.42676857  0.11772488  1
  N  N50  1  0.88764107  0.54179686  0.87097982  1
  N  N51  1  0.77653017  0.42984512  0.61922853  1
  N  N52  1  0.55586385  0.53977726  0.36655365  1
  N  N53  1  0.44254209  0.43145686  0.11830969  1
  N  N54  1  0.22065460  0.54178825  0.86859904  1
  N  N55  1  0.10867685  0.43006063  0.62274596  1
  N  N56  1  0.88995055  0.53875618  0.36786769  1
  N  N57  1  0.77871539  0.42645902  0.12004975  1
  N  N58  1  0.55542156  0.54065890  0.87231442  1
  N  N59  1  0.43914254  0.43557253  0.61680954  1
  N  N60  1  0.22154551  0.87331581  0.36711448  1
  N  N61  1  0.10860825  0.76172681  0.12330713  1
  N  N62  1  0.88995341  0.87009073  0.87582439  1
  N  N63  1  0.80137713  0.76945671  0.61032516  1
  N  N64  1  0.55914211  0.86509100  0.38624647  1
  N  N65  1  0.45983823  0.77632685  0.11946072  1
  N  N66  1  0.22252992  0.87036362  0.87125782  1
  N  N67  1  0.08646543  0.77407950  0.61298018  1
  N  N68  1  0.89111071  0.87060607  0.39059780  1
  N  N69  1  0.74813297  0.77702431  0.12458213  1
  N  N70  1  0.55999235  0.86769843  0.81155913  1
  N  N71  1  0.43492655  0.75698637  0.61547563  1
