# generated using pymatgen
data_Al17BN18
_symmetry_space_group_name_H-M   'P 1'
_cell_length_a   9.31160530
_cell_length_b   9.30233544
_cell_length_c   10.09730845
_cell_angle_alpha   89.62943774
_cell_angle_beta   90.00000647
_cell_angle_gamma   59.96703256
_symmetry_Int_Tables_number   1
_chemical_formula_structural   Al17BN18
_chemical_formula_sum   'Al34 B2 N36'
_cell_volume   757.17509662
_cell_formula_units_Z   2
loop_
 _symmetry_equiv_pos_site_id
 _symmetry_equiv_pos_as_xyz
  1  'x, y, z'
loop_
 _atom_site_type_symbol
 _atom_site_label
 _atom_site_symmetry_multiplicity
 _atom_site_fract_x
 _atom_site_fract_y
 _atom_site_fract_z
 _atom_site_occupancy
  Al  Al0  1  0.11306385  0.09451771  0.38944842  1
  Al  Al1  1  0.22747199  0.19861307  0.13686572  1
  Al  Al2  1  0.77638616  0.09762246  0.89513260  1
  Al  Al3  1  0.89058032  0.19861339  0.63686573  1
  Al  Al4  1  0.44265765  0.09762294  0.39513249  1
  Al  Al5  1  0.55778813  0.19909296  0.14048732  1
  Al  Al6  1  0.10908503  0.09451688  0.88944842  1
  Al  Al7  1  0.22045355  0.20722982  0.64248775  1
  Al  Al8  1  0.78122711  0.08676499  0.38164380  1
  Al  Al9  1  0.88898207  0.20722985  0.14248769  1
  Al  Al10  1  0.44867474  0.08676494  0.88164400  1
  Al  Al11  1  0.55978521  0.19909337  0.64048717  1
  Al  Al12  1  0.11110177  0.42743512  0.38680214  1
  Al  Al13  1  0.22551905  0.53744963  0.14232534  1
  Al  Al14  1  0.77813082  0.42743493  0.88680222  1
  Al  Al15  1  0.89432993  0.53702739  0.63455886  1
  Al  Al16  1  0.44652198  0.42675670  0.38910645  1
  Al  Al17  1  0.55762132  0.54272087  0.13619582  1
  Al  Al18  1  0.10997935  0.42997295  0.88841659  1
  Al  Al19  1  0.21632548  0.54272034  0.63619584  1
  Al  Al20  1  0.77671440  0.42997384  0.38841664  1
  Al  Al21  1  0.88531089  0.53702681  0.13455860  1
  Al  Al22  1  0.44338881  0.42675620  0.88910637  1
  Al  Al23  1  0.55369896  0.53745032  0.64232533  1
  Al  Al24  1  0.10538704  0.76431833  0.38027526  1
  Al  Al25  1  0.22947920  0.87450051  0.14066707  1
  Al  Al26  1  0.78134212  0.77041760  0.81824737  1
  Al  Al27  1  0.44332439  0.75843184  0.39572734  1
  Al  Al28  1  0.11491144  0.75843058  0.89572716  1
  Al  Al29  1  0.21268631  0.87450068  0.64066677  1
  Al  Al30  1  0.76490598  0.77041704  0.31824666  1
  Al  Al31  1  0.88528206  0.87454955  0.10522157  1
  Al  Al32  1  0.44696084  0.76431795  0.88027519  1
  Al  Al33  1  0.55683484  0.87455091  0.60522171  1
  B  B34  1  0.89099908  0.87018347  0.59535988  1
  B  B35  1  0.55548371  0.87018349  0.09535966  1
  N  N36  1  0.22461565  0.20456112  0.32559006  1
  N  N37  1  0.10977766  0.09556484  0.07877646  1
  N  N38  1  0.88748975  0.20456090  0.82559008  1
  N  N39  1  0.79298146  0.06331916  0.57855582  1
  N  N40  1  0.55547688  0.20420311  0.32935944  1
  N  N41  1  0.46036556  0.06331915  0.07855601  1
  N  N42  1  0.22138485  0.20625476  0.83207469  1
  N  N43  1  0.11132300  0.09556511  0.57877642  1
  N  N44  1  0.88902632  0.20625543  0.33207458  1
  N  N45  1  0.77335017  0.10679343  0.08265838  1
  N  N46  1  0.55698687  0.20420270  0.82935930  1
  N  N47  1  0.43652206  0.10679440  0.58265837  1
  N  N48  1  0.22371867  0.53825476  0.33142501  1
  N  N49  1  0.11205272  0.42860158  0.07817362  1
  N  N50  1  0.88976987  0.53602017  0.82536466  1
  N  N51  1  0.77601306  0.42860211  0.57817367  1
  N  N52  1  0.55497948  0.54052317  0.32551063  1
  N  N53  1  0.44535514  0.42550510  0.07909767  1
  N  N54  1  0.22116498  0.54052216  0.82551059  1
  N  N55  1  0.11158945  0.42686307  0.57549819  1
  N  N56  1  0.89087738  0.53602002  0.32536442  1
  N  N57  1  0.77821471  0.42686307  0.07549828  1
  N  N58  1  0.55469402  0.53825447  0.83142505  1
  N  N59  1  0.44580727  0.42550551  0.57909774  1
  N  N60  1  0.22434324  0.87259361  0.32957275  1
  N  N61  1  0.12625891  0.75613685  0.08404177  1
  N  N62  1  0.88682878  0.86891957  0.89185363  1
  N  N63  1  0.80164005  0.77693186  0.62061372  1
  N  N64  1  0.56091816  0.86892038  0.39185362  1
  N  N65  1  0.45847649  0.77686954  0.07739402  1
  N  N66  1  0.21972970  0.87259306  0.82957247  1
  N  N67  1  0.08132028  0.77686934  0.57739411  1
  N  N68  1  0.89134676  0.87325182  0.31257064  1
  N  N69  1  0.73809456  0.77693139  0.12061328  1
  N  N70  1  0.55206698  0.87325219  0.81257082  1
  N  N71  1  0.43427080  0.75613779  0.58404192  1
