# generated using pymatgen
data_Al17BN18
_symmetry_space_group_name_H-M   'P 1'
_cell_length_a   9.36117392
_cell_length_b   9.30095482
_cell_length_c   10.21052335
_cell_angle_alpha   89.36859347
_cell_angle_beta   90.00001609
_cell_angle_gamma   59.78564864
_symmetry_Int_Tables_number   1
_chemical_formula_structural   Al17BN18
_chemical_formula_sum   'Al34 B2 N36'
_cell_volume   768.17303117
_cell_formula_units_Z   2
loop_
 _symmetry_equiv_pos_site_id
 _symmetry_equiv_pos_as_xyz
  1  'x, y, z'
loop_
 _atom_site_type_symbol
 _atom_site_label
 _atom_site_symmetry_multiplicity
 _atom_site_fract_x
 _atom_site_fract_y
 _atom_site_fract_z
 _atom_site_occupancy
  Al  Al0  1  0.11173107  0.09612602  0.39065541  1
  Al  Al1  1  0.22896843  0.19513213  0.13884007  1
  Al  Al2  1  0.77568511  0.09915906  0.89698305  1
  Al  Al3  1  0.89256664  0.19513153  0.63884036  1
  Al  Al4  1  0.44182295  0.09915888  0.39698293  1
  Al  Al5  1  0.56178578  0.19230824  0.14424117  1
  Al  Al6  1  0.10881043  0.09612478  0.89065568  1
  Al  Al7  1  0.22515239  0.20063314  0.64546503  1
  Al  Al8  1  0.78264174  0.08337396  0.38898462  1
  Al  Al9  1  0.89088113  0.20063411  0.14546488  1
  Al  Al10  1  0.45065154  0.08337295  0.88898449  1
  Al  Al11  1  0.56257403  0.19230758  0.64424129  1
  Al  Al12  1  0.10796783  0.43492098  0.31796861  1
  Al  Al13  1  0.22495420  0.53737707  0.06540793  1
  Al  Al14  1  0.77377831  0.43492078  0.81796881  1
  Al  Al15  1  0.89258288  0.54350869  0.56743379  1
  Al  Al16  1  0.44124212  0.43297160  0.32051194  1
  Al  Al17  1  0.55859032  0.54136263  0.07016912  1
  Al  Al18  1  0.10771029  0.43362558  0.82269035  1
  Al  Al19  1  0.21671486  0.54136125  0.57016908  1
  Al  Al20  1  0.77533013  0.43362659  0.32269005  1
  Al  Al21  1  0.88057491  0.54350948  0.06743381  1
  Al  Al22  1  0.44245363  0.43297116  0.82051175  1
  Al  Al23  1  0.55433633  0.53737721  0.56540791  1
  Al  Al24  1  0.11129184  0.75903905  0.31376143  1
  Al  Al25  1  0.22829730  0.87558506  0.11976043  1
  Al  Al26  1  0.78215591  0.76545467  0.82031037  1
  Al  Al27  1  0.45026302  0.76507220  0.32993974  1
  Al  Al28  1  0.10133119  0.76507085  0.82993964  1
  Al  Al29  1  0.21278305  0.87558484  0.61975919  1
  Al  Al30  1  0.76905564  0.76545480  0.32031064  1
  Al  Al31  1  0.88433715  0.87187330  0.09701137  1
  Al  Al32  1  0.44633496  0.75903791  0.81376103  1
  Al  Al33  1  0.56045554  0.87187373  0.59701212  1
  B  B34  1  0.89095015  0.86913549  0.60736445  1
  B  B35  1  0.55658061  0.86913618  0.10736481  1
  N  N36  1  0.22705384  0.19952596  0.32652110  1
  N  N37  1  0.10687381  0.10032581  0.07758489  1
  N  N38  1  0.89008763  0.19952579  0.82652124  1
  N  N39  1  0.79374546  0.06200976  0.58369372  1
  N  N40  1  0.55931837  0.19818303  0.33256699  1
  N  N41  1  0.46091151  0.06201020  0.08369371  1
  N  N42  1  0.22647820  0.19963219  0.83519887  1
  N  N43  1  0.10946728  0.10032564  0.57758464  1
  N  N44  1  0.89055594  0.19963330  0.33519879  1
  N  N45  1  0.77317413  0.10622482  0.08150660  1
  N  N46  1  0.55916571  0.19818242  0.83256701  1
  N  N47  1  0.43726827  0.10622479  0.58150650  1
  N  N48  1  0.22189983  0.53882095  0.38358643  1
  N  N49  1  0.10599775  0.43611026  0.12746580  1
  N  N50  1  0.88710193  0.53992487  0.88080146  1
  N  N51  1  0.77455909  0.43611003  0.62746603  1
  N  N52  1  0.55552641  0.53776231  0.37943041  1
  N  N53  1  0.44266201  0.43212073  0.13034510  1
  N  N54  1  0.22337879  0.53776123  0.87943038  1
  N  N55  1  0.10728142  0.43393566  0.63344411  1
  N  N56  1  0.88964014  0.53992491  0.38080149  1
  N  N57  1  0.77544920  0.43393653  0.13344392  1
  N  N58  1  0.55594648  0.53882061  0.88358649  1
  N  N59  1  0.44188521  0.43212015  0.63034491  1
  N  N60  1  0.22304853  0.87341942  0.34229054  1
  N  N61  1  0.11985188  0.75538430  0.12359197  1
  N  N62  1  0.88950696  0.86555225  0.89557509  1
  N  N63  1  0.80038435  0.77452137  0.62531469  1
  N  N64  1  0.56160698  0.86555243  0.39557534  1
  N  N65  1  0.46258001  0.77609293  0.12897542  1
  N  N66  1  0.22019874  0.87341821  0.84229138  1
  N  N67  1  0.07799355  0.77609200  0.62897518  1
  N  N68  1  0.88652125  0.87266742  0.32289012  1
  N  N69  1  0.74176000  0.77452188  0.12531480  1
  N  N70  1  0.55747744  0.87266660  0.82288914  1
  N  N71  1  0.44142941  0.75538464  0.62359148  1
