# generated using pymatgen
data_Al17BN18
_symmetry_space_group_name_H-M   'P 1'
_cell_length_a   9.33410110
_cell_length_b   9.30858102
_cell_length_c   10.14480293
_cell_angle_alpha   89.62126476
_cell_angle_beta   90.02926485
_cell_angle_gamma   59.95066574
_symmetry_Int_Tables_number   1
_chemical_formula_structural   Al17BN18
_chemical_formula_sum   'Al34 B2 N36'
_cell_volume   762.95759024
_cell_formula_units_Z   2
loop_
 _symmetry_equiv_pos_site_id
 _symmetry_equiv_pos_as_xyz
  1  'x, y, z'
loop_
 _atom_site_type_symbol
 _atom_site_label
 _atom_site_symmetry_multiplicity
 _atom_site_fract_x
 _atom_site_fract_y
 _atom_site_fract_z
 _atom_site_occupancy
  Al  Al0  1  0.10987705  0.09512788  0.30975915  1
  Al  Al1  1  0.21986595  0.20461840  0.06167566  1
  Al  Al2  1  0.77574870  0.09348482  0.88763777  1
  Al  Al3  1  0.89104111  0.20188458  0.56111827  1
  Al  Al4  1  0.44859446  0.09359441  0.38709324  1
  Al  Al5  1  0.55775476  0.19322811  0.12919584  1
  Al  Al6  1  0.11208568  0.09579252  0.80922079  1
  Al  Al7  1  0.21308460  0.21224829  0.56110593  1
  Al  Al8  1  0.78066192  0.08298705  0.36210087  1
  Al  Al9  1  0.89158956  0.21299633  0.06154790  1
  Al  Al10  1  0.45453845  0.08058447  0.87417198  1
  Al  Al11  1  0.56590076  0.19093328  0.63454279  1
  Al  Al12  1  0.10980099  0.43010183  0.30860598  1
  Al  Al13  1  0.22418862  0.53945930  0.05458448  1
  Al  Al14  1  0.77690405  0.42981759  0.80784653  1
  Al  Al15  1  0.89080070  0.54564275  0.55737564  1
  Al  Al16  1  0.44022464  0.43284109  0.30830912  1
  Al  Al17  1  0.55697676  0.54342152  0.06020939  1
  Al  Al18  1  0.11152268  0.42767904  0.80995723  1
  Al  Al19  1  0.21751218  0.54222693  0.56117399  1
  Al  Al20  1  0.77728379  0.42813652  0.31024790  1
  Al  Al21  1  0.87960465  0.54618864  0.05680397  1
  Al  Al22  1  0.44306000  0.43314975  0.81059105  1
  Al  Al23  1  0.55321211  0.53776141  0.55532301  1
  Al  Al24  1  0.11608381  0.75855317  0.30274788  1
  Al  Al25  1  0.22847916  0.87552041  0.05771441  1
  Al  Al26  1  0.78453751  0.76306946  0.81005165  1
  Al  Al27  1  0.44568179  0.76599213  0.31661294  1
  Al  Al28  1  0.10468533  0.76665012  0.81609449  1
  Al  Al29  1  0.21317321  0.87492546  0.55807808  1
  Al  Al30  1  0.76909776  0.76264624  0.31016178  1
  Al  Al31  1  0.88703011  0.87099738  0.09272221  1
  Al  Al32  1  0.44222301  0.75940862  0.80233095  1
  Al  Al33  1  0.55851312  0.87223058  0.59355274  1
  B  B34  1  0.89164718  0.87102195  0.59910291  1
  B  B35  1  0.55443498  0.86965311  0.09820969  1
  N  N36  1  0.21552443  0.20923469  0.36882755  1
  N  N37  1  0.11107358  0.09512331  0.12231684  1
  N  N38  1  0.89245772  0.20943898  0.86965754  1
  N  N39  1  0.79478079  0.05890981  0.57681987  1
  N  N40  1  0.55600742  0.19883684  0.31800108  1
  N  N41  1  0.46249095  0.05852188  0.07261577  1
  N  N42  1  0.22091015  0.20728198  0.87245149  1
  N  N43  1  0.11032406  0.09508191  0.62155258  1
  N  N44  1  0.88864830  0.20670776  0.37112899  1
  N  N45  1  0.77327724  0.10299000  0.07776341  1
  N  N46  1  0.56007742  0.19909544  0.82414334  1
  N  N47  1  0.44142130  0.10348070  0.57530030  1
  N  N48  1  0.22154364  0.53947417  0.37258449  1
  N  N49  1  0.10843028  0.43232661  0.11865181  1
  N  N50  1  0.88837494  0.54001305  0.86875303  1
  N  N51  1  0.77648106  0.43044881  0.61803591  1
  N  N52  1  0.55457452  0.53834084  0.36678275  1
  N  N53  1  0.44261170  0.43141737  0.11694518  1
  N  N54  1  0.22249352  0.53946972  0.86670319  1
  N  N55  1  0.10885805  0.43006721  0.62197695  1
  N  N56  1  0.88832186  0.53991185  0.36921057  1
  N  N57  1  0.77726621  0.43084370  0.12216647  1
  N  N58  1  0.55604624  0.54034131  0.87217181  1
  N  N59  1  0.44346647  0.42964750  0.61957999  1
  N  N60  1  0.22030378  0.87257475  0.36957844  1
  N  N61  1  0.12616583  0.75661191  0.11508994  1
  N  N62  1  0.89278278  0.86334498  0.88550779  1
  N  N63  1  0.80255563  0.77309437  0.61503633  1
  N  N64  1  0.56062813  0.86349379  0.38416243  1
  N  N65  1  0.45707388  0.77766004  0.11908102  1
  N  N66  1  0.22388802  0.87311936  0.86926484  1
  N  N67  1  0.08207123  0.77734687  0.61930240  1
  N  N68  1  0.88928382  0.86918469  0.30690967  1
  N  N69  1  0.74058302  0.77338447  0.11436352  1
  N  N70  1  0.55750613  0.87123295  0.80751730  1
  N  N71  1  0.43492066  0.75607965  0.61479187  1
