# generated using pymatgen
data_Al17BN18
_symmetry_space_group_name_H-M   'P 1'
_cell_length_a   9.31806374
_cell_length_b   9.31724522
_cell_length_c   9.98165860
_cell_angle_alpha   89.95770373
_cell_angle_beta   89.96613230
_cell_angle_gamma   60.01658349
_symmetry_Int_Tables_number   1
_chemical_formula_structural   Al17BN18
_chemical_formula_sum   'Al34 B2 N36'
_cell_volume   750.61797950
_cell_formula_units_Z   2
loop_
 _symmetry_equiv_pos_site_id
 _symmetry_equiv_pos_as_xyz
  1  'x, y, z'
loop_
 _atom_site_type_symbol
 _atom_site_label
 _atom_site_symmetry_multiplicity
 _atom_site_fract_x
 _atom_site_fract_y
 _atom_site_fract_z
 _atom_site_occupancy
  Al  Al0  1  0.10989558  0.09510799  0.30969239  1
  Al  Al1  1  0.22776719  0.19801091  0.06131102  1
  Al  Al2  1  0.78138224  0.08793105  0.80780492  1
  Al  Al3  1  0.89067095  0.20135316  0.56224748  1
  Al  Al4  1  0.44527340  0.08883083  0.32458102  1
  Al  Al5  1  0.55897791  0.19774734  0.08253229  1
  Al  Al6  1  0.11297157  0.09328035  0.81185341  1
  Al  Al7  1  0.21880739  0.20778143  0.56032175  1
  Al  Al8  1  0.78182769  0.09107233  0.32153993  1
  Al  Al9  1  0.88864070  0.20434377  0.05993233  1
  Al  Al10  1  0.44620177  0.09217081  0.80833254  1
  Al  Al11  1  0.55912589  0.20200668  0.57022189  1
  Al  Al12  1  0.11091842  0.42829831  0.30928245  1
  Al  Al13  1  0.22104756  0.54055001  0.05923425  1
  Al  Al14  1  0.77697008  0.42927583  0.81132869  1
  Al  Al15  1  0.89100630  0.54286473  0.56028773  1
  Al  Al16  1  0.44206548  0.43063313  0.31337323  1
  Al  Al17  1  0.55822733  0.54322499  0.06114504  1
  Al  Al18  1  0.11159074  0.42716791  0.81258291  1
  Al  Al19  1  0.21553825  0.54349515  0.56145083  1
  Al  Al20  1  0.77848264  0.42738121  0.31081991  1
  Al  Al21  1  0.88175776  0.54452363  0.06108983  1
  Al  Al22  1  0.44505073  0.42834047  0.81148320  1
  Al  Al23  1  0.55451131  0.53979228  0.55899278  1
  Al  Al24  1  0.10839296  0.76217194  0.31586295  1
  Al  Al25  1  0.22530257  0.87339991  0.06155697  1
  Al  Al26  1  0.78049188  0.76392906  0.80580192  1
  Al  Al27  1  0.44630603  0.76367786  0.31673768  1
  Al  Al28  1  0.10602353  0.76410590  0.80781679  1
  Al  Al29  1  0.21557448  0.87399342  0.55952149  1
  Al  Al30  1  0.77482713  0.76482875  0.32363984  1
  Al  Al31  1  0.88199952  0.87401435  0.06280863  1
  Al  Al32  1  0.44503452  0.76126865  0.80884906  1
  Al  Al33  1  0.55925517  0.87190843  0.57604920  1
  B  B34  1  0.89138152  0.86910404  0.55773719  1
  B  B35  1  0.55600814  0.87180404  0.10349188  1
  N  N36  1  0.21953207  0.20683652  0.36904095  1
  N  N37  1  0.11057195  0.09439023  0.11970914  1
  N  N38  1  0.88868886  0.20451090  0.86854132  1
  N  N39  1  0.79247144  0.06843755  0.61247388  1
  N  N40  1  0.55499161  0.20602173  0.36483569  1
  N  N41  1  0.45853322  0.06303543  0.12452891  1
  N  N42  1  0.22457326  0.20421819  0.87193162  1
  N  N43  1  0.11130188  0.09446779  0.62136300  1
  N  N44  1  0.88993887  0.20669803  0.37234684  1
  N  N45  1  0.78312177  0.09081880  0.12870204  1
  N  N46  1  0.55799732  0.20420125  0.86130453  1
  N  N47  1  0.43902356  0.09942340  0.61535715  1
  N  N48  1  0.22042111  0.53945071  0.37129195  1
  N  N49  1  0.11120371  0.42712780  0.11837339  1
  N  N50  1  0.88825999  0.54136932  0.87040360  1
  N  N51  1  0.77726677  0.42925495  0.61964945  1
  N  N52  1  0.55579551  0.53966877  0.36808434  1
  N  N53  1  0.44337871  0.43024062  0.12120035  1
  N  N54  1  0.22131975  0.54137795  0.86832146  1
  N  N55  1  0.11035362  0.42770464  0.62176528  1
  N  N56  1  0.88942045  0.53893975  0.36900056  1
  N  N57  1  0.77880918  0.42642061  0.12028226  1
  N  N58  1  0.55502929  0.54014311  0.87197433  1
  N  N59  1  0.44233910  0.43068901  0.61865772  1
  N  N60  1  0.22172875  0.87297615  0.36824589  1
  N  N61  1  0.10847361  0.76200263  0.12377292  1
  N  N62  1  0.88959353  0.87100861  0.87554087  1
  N  N63  1  0.79655710  0.77144829  0.61148568  1
  N  N64  1  0.55613558  0.86983686  0.38333406  1
  N  N65  1  0.45950456  0.77577539  0.12037128  1
  N  N66  1  0.22238818  0.87003788  0.87079083  1
  N  N67  1  0.08601302  0.77419713  0.61324778  1
  N  N68  1  0.89039532  0.87111240  0.39102970  1
  N  N69  1  0.74855767  0.77662178  0.12501463  1
  N  N70  1  0.55891408  0.86955419  0.84171410  1
  N  N71  1  0.43873524  0.75929941  0.61732144  1
