# generated using pymatgen
data_Al17BN18
_symmetry_space_group_name_H-M   'P 1'
_cell_length_a   9.29830559
_cell_length_b   9.30053566
_cell_length_c   9.94034382
_cell_angle_alpha   90.03198826
_cell_angle_beta   89.99999495
_cell_angle_gamma   60.00793747
_symmetry_Int_Tables_number   1
_chemical_formula_structural   Al17BN18
_chemical_formula_sum   'Al34 B2 N36'
_cell_volume   744.52357801
_cell_formula_units_Z   2
loop_
 _symmetry_equiv_pos_site_id
 _symmetry_equiv_pos_as_xyz
  1  'x, y, z'
loop_
 _atom_site_type_symbol
 _atom_site_label
 _atom_site_symmetry_multiplicity
 _atom_site_fract_x
 _atom_site_fract_y
 _atom_site_fract_z
 _atom_site_occupancy
  Al  Al0  1  0.11110227  0.09412862  0.41312103  1
  Al  Al1  1  0.22550002  0.20041464  0.16302644  1
  Al  Al2  1  0.77893318  0.09174394  0.90605502  1
  Al  Al3  1  0.89075189  0.20041519  0.66302652  1
  Al  Al4  1  0.44599001  0.09174432  0.40605495  1
  Al  Al5  1  0.55886331  0.19944163  0.16275282  1
  Al  Al6  1  0.11143689  0.09412844  0.91312108  1
  Al  Al7  1  0.22436191  0.20432719  0.66296051  1
  Al  Al8  1  0.78047314  0.08882597  0.41739534  1
  Al  Al9  1  0.88797803  0.20432698  0.16296049  1
  Al  Al10  1  0.44736834  0.08882584  0.91739540  1
  Al  Al11  1  0.55836110  0.19944180  0.66275282  1
  Al  Al12  1  0.11074198  0.42779897  0.41280934  1
  Al  Al13  1  0.22091743  0.54062010  0.16343217  1
  Al  Al14  1  0.77812651  0.42779879  0.91280934  1
  Al  Al15  1  0.88988013  0.54414827  0.66313713  1
  Al  Al16  1  0.44489319  0.42768245  0.41284935  1
  Al  Al17  1  0.55712177  0.54232673  0.16293539  1
  Al  Al18  1  0.11137836  0.42773981  0.91362476  1
  Al  Al19  1  0.21721792  0.54232724  0.66293533  1
  Al  Al20  1  0.77754883  0.42773993  0.41362482  1
  Al  Al21  1  0.88263848  0.54414762  0.16313726  1
  Al  Al22  1  0.44409056  0.42768219  0.91284938  1
  Al  Al23  1  0.55512929  0.54061963  0.66343228  1
  Al  Al24  1  0.10543204  0.76406664  0.41690840  1
  Al  Al25  1  0.22436902  0.87294049  0.16266622  1
  Al  Al26  1  0.77388879  0.76504422  0.91070079  1
  Al  Al27  1  0.44588440  0.76226743  0.40615497  1
  Al  Al28  1  0.10851425  0.76226746  0.90615482  1
  Al  Al29  1  0.21935674  0.87294129  0.66266623  1
  Al  Al30  1  0.77773287  0.76504429  0.41070076  1
  Al  Al31  1  0.88333325  0.87362425  0.16128230  1
  Al  Al32  1  0.44716770  0.76406599  0.91690824  1
  Al  Al33  1  0.55970859  0.87362458  0.66128226  1
  B  B34  1  0.88806385  0.87232017  0.66559851  1
  B  B35  1  0.55628271  0.87231972  0.16559848  1
  N  N36  1  0.22162513  0.20560127  0.35306980  1
  N  N37  1  0.11024788  0.09433319  0.10387904  1
  N  N38  1  0.88944116  0.20560098  0.85306997  1
  N  N39  1  0.79025455  0.06920962  0.61154993  1
  N  N40  1  0.55844451  0.20446100  0.35451910  1
  N  N41  1  0.45720275  0.06920914  0.11154982  1
  N  N42  1  0.22474572  0.20430987  0.85577532  1
  N  N43  1  0.11208561  0.09433373  0.60387900  1
  N  N44  1  0.88761185  0.20430989  0.35577540  1
  N  N45  1  0.77881014  0.09272969  0.09815121  1
  N  N46  1  0.55376177  0.20446079  0.85451912  1
  N  N47  1  0.44512675  0.09272977  0.59815099  1
  N  N48  1  0.22106983  0.54118675  0.35577433  1
  N  N49  1  0.11040860  0.42770695  0.10522386  1
  N  N50  1  0.88846423  0.54078335  0.85503788  1
  N  N51  1  0.77855112  0.42770723  0.60522388  1
  N  N52  1  0.55604171  0.53834095  0.35318077  1
  N  N53  1  0.44464204  0.42723199  0.10482530  1
  N  N54  1  0.22228389  0.53834111  0.85318063  1
  N  N55  1  0.11148958  0.42669684  0.60385163  1
  N  N56  1  0.88741948  0.54078333  0.35503796  1
  N  N57  1  0.77848048  0.42669649  0.10385162  1
  N  N58  1  0.55441047  0.54118601  0.85577445  1
  N  N59  1  0.44479225  0.42723206  0.60482527  1
  N  N60  1  0.22065695  0.87119107  0.35444585  1
  N  N61  1  0.10838852  0.76244216  0.09924876  1
  N  N62  1  0.88776207  0.87131735  0.83302146  1
  N  N63  1  0.78917062  0.77423776  0.60685962  1
  N  N64  1  0.55758681  0.87131741  0.33302146  1
  N  N65  1  0.45657005  0.77392849  0.11127118  1
  N  N66  1  0.22481841  0.87119095  0.85444585  1
  N  N67  1  0.08616771  0.77392909  0.61127129  1
  N  N68  1  0.88896207  0.87262122  0.34946898  1
  N  N69  1  0.75325817  0.77423730  0.10685964  1
  N  N70  1  0.55508287  0.87262112  0.84946895  1
  N  N71  1  0.44583569  0.76244214  0.59924895  1
