# generated using pymatgen
data_Al17BN18
_symmetry_space_group_name_H-M   'P 1'
_cell_length_a   9.33113954
_cell_length_b   9.29885686
_cell_length_c   10.27972080
_cell_angle_alpha   89.73925601
_cell_angle_beta   90.15178120
_cell_angle_gamma   59.81304536
_symmetry_Int_Tables_number   1
_chemical_formula_structural   Al17BN18
_chemical_formula_sum   'Al34 B2 N36'
_cell_volume   770.98045861
_cell_formula_units_Z   2
loop_
 _symmetry_equiv_pos_site_id
 _symmetry_equiv_pos_as_xyz
  1  'x, y, z'
loop_
 _atom_site_type_symbol
 _atom_site_label
 _atom_site_symmetry_multiplicity
 _atom_site_fract_x
 _atom_site_fract_y
 _atom_site_fract_z
 _atom_site_occupancy
  Al  Al0  1  0.11351298  0.09246422  0.39169400  1
  Al  Al1  1  0.22977988  0.19462214  0.13939207  1
  Al  Al2  1  0.77429578  0.10129141  0.89680179  1
  Al  Al3  1  0.89381890  0.19236163  0.63720279  1
  Al  Al4  1  0.44305409  0.09736538  0.39720834  1
  Al  Al5  1  0.56233625  0.19096556  0.14510373  1
  Al  Al6  1  0.10845198  0.09830170  0.89098795  1
  Al  Al7  1  0.22228625  0.20210381  0.64234448  1
  Al  Al8  1  0.78401522  0.08128376  0.38678775  1
  Al  Al9  1  0.89361419  0.19993687  0.14576513  1
  Al  Al10  1  0.44929291  0.08722824  0.88361054  1
  Al  Al11  1  0.56248489  0.19259295  0.64140538  1
  Al  Al12  1  0.10688452  0.43398776  0.31884578  1
  Al  Al13  1  0.23017394  0.52752965  0.06983287  1
  Al  Al14  1  0.77472119  0.43414219  0.81593072  1
  Al  Al15  1  0.88998127  0.54720007  0.56616232  1
  Al  Al16  1  0.44399262  0.43085653  0.32161950  1
  Al  Al17  1  0.56327341  0.53218484  0.06938703  1
  Al  Al18  1  0.10671761  0.43630950  0.81912347  1
  Al  Al19  1  0.21203462  0.54846377  0.56774131  1
  Al  Al20  1  0.77481391  0.43379798  0.32314888  1
  Al  Al21  1  0.88035440  0.54356697  0.06575301  1
  Al  Al22  1  0.44069429  0.43348404  0.81756465  1
  Al  Al23  1  0.55657099  0.53078440  0.57066614  1
  Al  Al24  1  0.11252052  0.75761517  0.31110941  1
  Al  Al25  1  0.23821676  0.87669714  0.13572970  1
  Al  Al26  1  0.78455021  0.76560258  0.81655734  1
  Al  Al27  1  0.43894091  0.76684238  0.39835633  1
  Al  Al28  1  0.10898734  0.76600094  0.88807999  1
  Al  Al29  1  0.21174876  0.87215092  0.64517152  1
  Al  Al30  1  0.76497064  0.76540582  0.31393837  1
  Al  Al31  1  0.87864654  0.87687386  0.10181811  1
  Al  Al32  1  0.44739479  0.76752821  0.87892351  1
  Al  Al33  1  0.55575066  0.87449573  0.61147572  1
  B  B34  1  0.89502576  0.86776801  0.60424647  1
  B  B35  1  0.55620950  0.86933391  0.09556246  1
  N  N36  1  0.22660086  0.19899599  0.32671148  1
  N  N37  1  0.10987758  0.09766494  0.07635596  1
  N  N38  1  0.89108064  0.19824858  0.82499751  1
  N  N39  1  0.79188294  0.06341953  0.57932776  1
  N  N40  1  0.55991857  0.19641983  0.33161711  1
  N  N41  1  0.46127346  0.06365442  0.07828254  1
  N  N42  1  0.22452122  0.20141809  0.83178382  1
  N  N43  1  0.11217335  0.09363186  0.57774541  1
  N  N44  1  0.89280406  0.19765507  0.33393039  1
  N  N45  1  0.77189960  0.11027862  0.08021102  1
  N  N46  1  0.55973777  0.19829773  0.82881871  1
  N  N47  1  0.43599621  0.10650339  0.58089945  1
  N  N48  1  0.22225182  0.53944996  0.37941815  1
  N  N49  1  0.10493866  0.43545837  0.12964863  1
  N  N50  1  0.88633653  0.54114021  0.88016140  1
  N  N51  1  0.77631542  0.43504284  0.62851798  1
  N  N52  1  0.55839913  0.53191528  0.38364740  1
  N  N53  1  0.44516910  0.42991905  0.13331471  1
  N  N54  1  0.22581849  0.53319684  0.88486702  1
  N  N55  1  0.10622651  0.43590925  0.63127847  1
  N  N56  1  0.88801444  0.54226382  0.38033766  1
  N  N57  1  0.77712051  0.43361996  0.13496673  1
  N  N58  1  0.55839385  0.53236537  0.88282980  1
  N  N59  1  0.43806199  0.43269998  0.63060888  1
  N  N60  1  0.22865206  0.87317171  0.32146487  1
  N  N61  1  0.12368154  0.75816202  0.10391891  1
  N  N62  1  0.88411365  0.86883124  0.89836163  1
  N  N63  1  0.79903023  0.77598391  0.62596839  1
  N  N64  1  0.56117062  0.86914279  0.38705847  1
  N  N65  1  0.46055167  0.77899340  0.07433585  1
  N  N66  1  0.22141033  0.87315102  0.83383332  1
  N  N67  1  0.07670707  0.77948871  0.60858101  1
  N  N68  1  0.88664241  0.87312146  0.30759638  1
  N  N69  1  0.73950124  0.77406084  0.12080520  1
  N  N70  1  0.55370808  0.87280750  0.81258109  1
  N  N71  1  0.43103079  0.76251523  0.58673146  1
