# generated using pymatgen
data_Al17BN18
_symmetry_space_group_name_H-M   'P 1'
_cell_length_a   9.33439343
_cell_length_b   9.31755100
_cell_length_c   10.10251123
_cell_angle_alpha   89.79711969
_cell_angle_beta   90.04490527
_cell_angle_gamma   59.99338076
_symmetry_Int_Tables_number   1
_chemical_formula_structural   Al17BN18
_chemical_formula_sum   'Al34 B2 N36'
_cell_volume   760.87667366
_cell_formula_units_Z   2
loop_
 _symmetry_equiv_pos_site_id
 _symmetry_equiv_pos_as_xyz
  1  'x, y, z'
loop_
 _atom_site_type_symbol
 _atom_site_label
 _atom_site_symmetry_multiplicity
 _atom_site_fract_x
 _atom_site_fract_y
 _atom_site_fract_z
 _atom_site_occupancy
  Al  Al0  1  0.11410166  0.09314778  0.38874323  1
  Al  Al1  1  0.22618030  0.19994232  0.13561285  1
  Al  Al2  1  0.77699670  0.09625313  0.89372562  1
  Al  Al3  1  0.89219083  0.19605600  0.63297794  1
  Al  Al4  1  0.44369877  0.09610597  0.39319910  1
  Al  Al5  1  0.55806994  0.19942520  0.13892536  1
  Al  Al6  1  0.11065695  0.09317537  0.88860734  1
  Al  Al7  1  0.21954369  0.20817788  0.64116562  1
  Al  Al8  1  0.78077541  0.08414872  0.38032018  1
  Al  Al9  1  0.89140795  0.20379918  0.14027157  1
  Al  Al10  1  0.45092996  0.08494529  0.87989857  1
  Al  Al11  1  0.55899874  0.19948586  0.63893307  1
  Al  Al12  1  0.11860125  0.42348416  0.38476261  1
  Al  Al13  1  0.22519893  0.53751297  0.14092342  1
  Al  Al14  1  0.77957917  0.42721529  0.83960188  1
  Al  Al15  1  0.88523836  0.54931730  0.56486032  1
  Al  Al16  1  0.44586914  0.42655629  0.38867054  1
  Al  Al17  1  0.55428632  0.54434546  0.13443773  1
  Al  Al18  1  0.11825108  0.42595650  0.88729198  1
  Al  Al19  1  0.21508930  0.54279605  0.63602079  1
  Al  Al20  1  0.77677580  0.42934328  0.34790182  1
  Al  Al21  1  0.87530111  0.54883394  0.06442495  1
  Al  Al22  1  0.44414560  0.42628557  0.88868661  1
  Al  Al23  1  0.54849409  0.54030073  0.63901105  1
  Al  Al24  1  0.10479210  0.76427535  0.37823294  1
  Al  Al25  1  0.22965935  0.87444107  0.13925780  1
  Al  Al26  1  0.78587738  0.76560576  0.81254459  1
  Al  Al27  1  0.44233038  0.76020561  0.39435477  1
  Al  Al28  1  0.11490143  0.75895350  0.89408824  1
  Al  Al29  1  0.21219667  0.87489210  0.63946148  1
  Al  Al30  1  0.76609419  0.76570390  0.31203041  1
  Al  Al31  1  0.88609360  0.87471964  0.10512968  1
  Al  Al32  1  0.44748526  0.76486772  0.87917578  1
  Al  Al33  1  0.55508216  0.87565178  0.60612824  1
  B  B34  1  0.89105792  0.87035432  0.59456216  1
  B  B35  1  0.55443166  0.87144233  0.09454385  1
  N  N36  1  0.22489835  0.20322542  0.32405635  1
  N  N37  1  0.11107699  0.09449722  0.07711988  1
  N  N38  1  0.89166370  0.19793363  0.82358479  1
  N  N39  1  0.79251104  0.06199469  0.57700035  1
  N  N40  1  0.55544791  0.20417859  0.32807348  1
  N  N41  1  0.46065108  0.06311178  0.07720463  1
  N  N42  1  0.22293795  0.20447982  0.83053814  1
  N  N43  1  0.11232372  0.09482312  0.57713881  1
  N  N44  1  0.89165581  0.19988379  0.33242459  1
  N  N45  1  0.77354522  0.10573079  0.08084837  1
  N  N46  1  0.55756138  0.20406564  0.82794967  1
  N  N47  1  0.43636895  0.10640900  0.58098253  1
  N  N48  1  0.22433211  0.53847228  0.32954518  1
  N  N49  1  0.11557627  0.42703425  0.07888113  1
  N  N50  1  0.88584960  0.54494117  0.87200113  1
  N  N51  1  0.77611582  0.42978278  0.60489003  1
  N  N52  1  0.54837787  0.54358493  0.32554611  1
  N  N53  1  0.44493422  0.42533220  0.07778778  1
  N  N54  1  0.22249835  0.54063310  0.82446001  1
  N  N55  1  0.11519340  0.42522068  0.57649599  1
  N  N56  1  0.88629325  0.54578581  0.37242546  1
  N  N57  1  0.77840928  0.42744277  0.10633449  1
  N  N58  1  0.55037278  0.54042991  0.83027070  1
  N  N59  1  0.44422945  0.42555933  0.57781561  1
  N  N60  1  0.22389410  0.87229515  0.32795812  1
  N  N61  1  0.12632555  0.75620833  0.08231625  1
  N  N62  1  0.88762764  0.86859234  0.88723896  1
  N  N63  1  0.80192464  0.77533599  0.61963521  1
  N  N64  1  0.56104856  0.86884175  0.38675077  1
  N  N65  1  0.45847227  0.77768949  0.07575145  1
  N  N66  1  0.22099304  0.87188727  0.82817515  1
  N  N67  1  0.08043985  0.77704457  0.57607523  1
  N  N68  1  0.89119167  0.87134660  0.30987526  1
  N  N69  1  0.73871509  0.77649385  0.11876262  1
  N  N70  1  0.55449762  0.87144779  0.81020870  1
  N  N71  1  0.43279321  0.75827975  0.58195607  1
