# generated using pymatgen
data_Al17BN18
_symmetry_space_group_name_H-M   'P 1'
_cell_length_a   9.33558509
_cell_length_b   9.34026190
_cell_length_c   10.20230307
_cell_angle_alpha   89.69842046
_cell_angle_beta   89.97462095
_cell_angle_gamma   59.89500686
_symmetry_Int_Tables_number   1
_chemical_formula_structural   Al17BN18
_chemical_formula_sum   'Al34 B2 N36'
_cell_volume   769.59384043
_cell_formula_units_Z   2
loop_
 _symmetry_equiv_pos_site_id
 _symmetry_equiv_pos_as_xyz
  1  'x, y, z'
loop_
 _atom_site_type_symbol
 _atom_site_label
 _atom_site_symmetry_multiplicity
 _atom_site_fract_x
 _atom_site_fract_y
 _atom_site_fract_z
 _atom_site_occupancy
  Al  Al0  1  0.11168516  0.09470294  0.39044353  1
  Al  Al1  1  0.23007628  0.19378846  0.13580766  1
  Al  Al2  1  0.77720960  0.09769652  0.89540192  1
  Al  Al3  1  0.89315481  0.19302768  0.63664615  1
  Al  Al4  1  0.44250339  0.09671226  0.39555669  1
  Al  Al5  1  0.55901899  0.19747676  0.14133079  1
  Al  Al6  1  0.10835957  0.09569189  0.89079669  1
  Al  Al7  1  0.22304476  0.19911216  0.64202672  1
  Al  Al8  1  0.78100382  0.08488689  0.38201935  1
  Al  Al9  1  0.89321999  0.20054780  0.14338649  1
  Al  Al10  1  0.45083141  0.08528138  0.88310986  1
  Al  Al11  1  0.55955834  0.19678030  0.64211144  1
  Al  Al12  1  0.10420653  0.43051730  0.31897206  1
  Al  Al13  1  0.22767654  0.54077983  0.13644082  1
  Al  Al14  1  0.77440510  0.43471728  0.81551234  1
  Al  Al15  1  0.89155529  0.54515159  0.56328599  1
  Al  Al16  1  0.44409874  0.42013113  0.38898044  1
  Al  Al17  1  0.56378819  0.53904205  0.06934646  1
  Al  Al18  1  0.10556430  0.43283556  0.82040739  1
  Al  Al19  1  0.21841806  0.54453412  0.62744799  1
  Al  Al20  1  0.77283880  0.43546713  0.31984169  1
  Al  Al21  1  0.88122053  0.54485244  0.06411679  1
  Al  Al22  1  0.44151752  0.42326620  0.88691983  1
  Al  Al23  1  0.56048631  0.53382402  0.57141021  1
  Al  Al24  1  0.10405879  0.76578726  0.37894456  1
  Al  Al25  1  0.23202558  0.87379610  0.14086717  1
  Al  Al26  1  0.78601321  0.76585980  0.81500150  1
  Al  Al27  1  0.43900886  0.76753598  0.39533674  1
  Al  Al28  1  0.11411244  0.76040186  0.89545394  1
  Al  Al29  1  0.21200842  0.87383258  0.64203523  1
  Al  Al30  1  0.76589836  0.76607445  0.31331372  1
  Al  Al31  1  0.88517680  0.87516182  0.10606739  1
  Al  Al32  1  0.44455395  0.76968364  0.87469059  1
  Al  Al33  1  0.55679874  0.87477887  0.60941314  1
  B  B34  1  0.89052805  0.87000530  0.59550638  1
  B  B35  1  0.55570932  0.87060179  0.09604282  1
  N  N36  1  0.22662627  0.19797479  0.32577472  1
  N  N37  1  0.11063653  0.09459074  0.07764395  1
  N  N38  1  0.89017838  0.20007247  0.82531700  1
  N  N39  1  0.79193152  0.06201629  0.57816441  1
  N  N40  1  0.55604056  0.20129027  0.32808226  1
  N  N41  1  0.46263339  0.06276464  0.07809886  1
  N  N42  1  0.22530168  0.20001759  0.83351954  1
  N  N43  1  0.11127082  0.09330397  0.57734232  1
  N  N44  1  0.89067212  0.20075203  0.33352764  1
  N  N45  1  0.77376612  0.10697041  0.08118361  1
  N  N46  1  0.55820107  0.20231042  0.82866971  1
  N  N47  1  0.43714975  0.10502046  0.58132957  1
  N  N48  1  0.22353975  0.54030976  0.33774776  1
  N  N49  1  0.10431355  0.43278738  0.12487352  1
  N  N50  1  0.88567372  0.54272993  0.87779943  1
  N  N51  1  0.77824687  0.43374668  0.62696981  1
  N  N52  1  0.55782301  0.53690750  0.37762159  1
  N  N53  1  0.44505437  0.41987544  0.07928155  1
  N  N54  1  0.22362423  0.54523157  0.82682145  1
  N  N55  1  0.10471363  0.42899287  0.62674906  1
  N  N56  1  0.88611187  0.54342924  0.37775481  1
  N  N57  1  0.77803686  0.43306877  0.13150288  1
  N  N58  1  0.55901963  0.53798071  0.87858648  1
  N  N59  1  0.44557531  0.41843328  0.58009149  1
  N  N60  1  0.22326546  0.87315506  0.32796299  1
  N  N61  1  0.12602640  0.75904212  0.08270084  1
  N  N62  1  0.88625525  0.86966667  0.88959795  1
  N  N63  1  0.80262908  0.77443848  0.62141986  1
  N  N64  1  0.56150155  0.86996664  0.38733260  1
  N  N65  1  0.45770225  0.78181439  0.07668572  1
  N  N66  1  0.21828128  0.87450474  0.82866647  1
  N  N67  1  0.07993056  0.77837989  0.57532201  1
  N  N68  1  0.89052635  0.87215702  0.31046722  1
  N  N69  1  0.74046833  0.77484956  0.12050582  1
  N  N70  1  0.55510795  0.87292644  0.81071095  1
  N  N71  1  0.43196089  0.76191752  0.58674477  1
