# generated using pymatgen
data_MgSiN2
_symmetry_space_group_name_H-M   'P 1'
_cell_length_a   5.02584536
_cell_length_b   5.32613274
_cell_length_c   6.56990158
_cell_angle_alpha   90.04172687
_cell_angle_beta   91.23794484
_cell_angle_gamma   89.24027845
_symmetry_Int_Tables_number   1
_chemical_formula_structural   MgSiN2
_chemical_formula_sum   'Mg4 Si4 N8'
_cell_volume   175.80870342
_cell_formula_units_Z   4
loop_
 _symmetry_equiv_pos_site_id
 _symmetry_equiv_pos_as_xyz
  1  'x, y, z'
loop_
 _atom_site_type_symbol
 _atom_site_label
 _atom_site_symmetry_multiplicity
 _atom_site_fract_x
 _atom_site_fract_y
 _atom_site_fract_z
 _atom_site_occupancy
  Mg  Mg0  1  0.00688191  0.42378768  0.88471111  1
  Mg  Mg1  1  0.01010537  0.90908364  0.62260522  1
  Mg  Mg2  1  0.48123773  0.57799558  0.13444953  1
  Mg  Mg3  1  0.48029395  0.08314700  0.38664381  1
  Si  Si4  1  0.96149237  0.92229423  0.13981549  1
  Si  Si5  1  0.61046445  0.06809395  0.87721601  1
  Si  Si6  1  0.97443912  0.42407620  0.38251123  1
  Si  Si7  1  0.47891553  0.56469873  0.63295845  1
  N  N8  1  0.01615711  0.04727308  0.90392837  1
  N  N9  1  0.60414393  0.93906457  0.11815920  1
  N  N10  1  0.06154713  0.60397186  0.16737166  1
  N  N11  1  0.06295733  0.10444066  0.35133417  1
  N  N12  1  0.56562064  0.39351638  0.85575279  1
  N  N13  1  0.56061364  0.88561251  0.65975260  1
  N  N14  1  0.13275394  0.54137929  0.60076912  1
  N  N15  1  0.62857822  0.44493496  0.41536411  1
