# generated using pymatgen
data_MgSiN2
_symmetry_space_group_name_H-M   'P 1'
_cell_length_a   5.02540355
_cell_length_b   5.30798884
_cell_length_c   6.48854683
_cell_angle_alpha   89.99999772
_cell_angle_beta   89.99999967
_cell_angle_gamma   89.99999686
_symmetry_Int_Tables_number   1
_chemical_formula_structural   MgSiN2
_chemical_formula_sum   'Mg4 Si4 N8'
_cell_volume   173.08059771
_cell_formula_units_Z   4
loop_
 _symmetry_equiv_pos_site_id
 _symmetry_equiv_pos_as_xyz
  1  'x, y, z'
loop_
 _atom_site_type_symbol
 _atom_site_label
 _atom_site_symmetry_multiplicity
 _atom_site_fract_x
 _atom_site_fract_y
 _atom_site_fract_z
 _atom_site_occupancy
  Mg  Mg0  1  0.00193317  0.41102499  0.88547939  1
  Mg  Mg1  1  0.00193317  0.91102499  0.63118727  1
  Mg  Mg2  1  0.50193317  0.58064169  0.13118728  1
  Mg  Mg3  1  0.50193317  0.08064168  0.38547939  1
  Si  Si4  1  0.99065574  0.92562843  0.13376979  1
  Si  Si5  1  0.49065574  0.06603820  0.88289692  1
  Si  Si6  1  0.99065573  0.42562843  0.38289688  1
  Si  Si7  1  0.49065574  0.56603820  0.63376974  1
  N  N8  1  0.14350669  0.04461747  0.91257555  1
  N  N9  1  0.64350670  0.94704922  0.10409110  1
  N  N10  1  0.08057111  0.60500256  0.16351178  1
  N  N11  1  0.08057112  0.10500257  0.35315488  1
  N  N12  1  0.58057115  0.38666410  0.85315488  1
  N  N13  1  0.58057114  0.88666410  0.66351180  1
  N  N14  1  0.14350672  0.54461747  0.60409110  1
  N  N15  1  0.64350674  0.44704922  0.41257558  1
