# generated using pymatgen
data_MgSiN2
_symmetry_space_group_name_H-M   'P 1'
_cell_length_a   5.02578656
_cell_length_b   5.32392122
_cell_length_c   6.56449885
_cell_angle_alpha   89.97037396
_cell_angle_beta   88.84664442
_cell_angle_gamma   89.29263051
_symmetry_Int_Tables_number   1
_chemical_formula_structural   MgSiN2
_chemical_formula_sum   'Mg4 Si4 N8'
_cell_volume   175.59660977
_cell_formula_units_Z   4
loop_
 _symmetry_equiv_pos_site_id
 _symmetry_equiv_pos_as_xyz
  1  'x, y, z'
loop_
 _atom_site_type_symbol
 _atom_site_label
 _atom_site_symmetry_multiplicity
 _atom_site_fract_x
 _atom_site_fract_y
 _atom_site_fract_z
 _atom_site_occupancy
  Mg  Mg0  1  0.09902432  0.40850388  0.88606254  1
  Mg  Mg1  1  0.09851818  0.91324650  0.63462017  1
  Mg  Mg2  1  0.57357576  0.58160449  0.12493638  1
  Mg  Mg3  1  0.57522987  0.07072117  0.38510326  1
  Si  Si4  1  0.10152055  0.92702236  0.13222625  1
  Si  Si5  1  0.60452523  0.06778228  0.88248921  1
  Si  Si6  1  0.00828063  0.42307516  0.37750326  1
  Si  Si7  1  0.61368749  0.56777613  0.63674360  1
  N  N8  1  0.95100046  0.04653615  0.91522135  1
  N  N9  1  0.44694452  0.94992127  0.10119671  1
  N  N10  1  0.01598129  0.60645289  0.15938916  1
  N  N11  1  0.01241543  0.09770525  0.35545304  1
  N  N12  1  0.51678736  0.38769091  0.85222263  1
  N  N13  1  0.51803647  0.88788668  0.66751756  1
  N  N14  1  0.97027633  0.55162537  0.61616654  1
  N  N15  1  0.53039844  0.44581982  0.40649121  1
