# generated using pymatgen
data_MgSiN2
_symmetry_space_group_name_H-M   'P 1'
_cell_length_a   5.02540361
_cell_length_b   5.30809919
_cell_length_c   6.48788092
_cell_angle_alpha   89.99970299
_cell_angle_beta   90.01165575
_cell_angle_gamma   90.00879684
_symmetry_Int_Tables_number   1
_chemical_formula_structural   MgSiN2
_chemical_formula_sum   'Mg4 Si4 N8'
_cell_volume   173.06642909
_cell_formula_units_Z   4
loop_
 _symmetry_equiv_pos_site_id
 _symmetry_equiv_pos_as_xyz
  1  'x, y, z'
loop_
 _atom_site_type_symbol
 _atom_site_label
 _atom_site_symmetry_multiplicity
 _atom_site_fract_x
 _atom_site_fract_y
 _atom_site_fract_z
 _atom_site_occupancy
  Mg  Mg0  1  0.09050105  0.41102197  0.88547606  1
  Mg  Mg1  1  0.09050037  0.91101411  0.63118728  1
  Mg  Mg2  1  0.59053967  0.58068356  0.13121380  1
  Mg  Mg3  1  0.59054253  0.08070404  0.38548270  1
  Si  Si4  1  0.10183206  0.92563845  0.13376782  1
  Si  Si5  1  0.60181373  0.06605272  0.88290476  1
  Si  Si6  1  0.10182132  0.42563941  0.38290149  1
  Si  Si7  1  0.60180879  0.56605737  0.63377659  1
  N  N8  1  0.94890662  0.04459215  0.91262118  1
  N  N9  1  0.44892035  0.94708746  0.10404034  1
  N  N10  1  0.01195617  0.60503875  0.16354721  1
  N  N11  1  0.01196213  0.10503631  0.35310408  1
  N  N12  1  0.51195571  0.38664771  0.85312557  1
  N  N13  1  0.51194407  0.88664457  0.66354095  1
  N  N14  1  0.94888604  0.54458578  0.60401803  1
  N  N15  1  0.44888259  0.44708979  0.41263599  1
