# generated using pymatgen
data_MgSiN2
_symmetry_space_group_name_H-M   'P 1'
_cell_length_a   5.02617481
_cell_length_b   5.32901718
_cell_length_c   6.57852426
_cell_angle_alpha   89.90821809
_cell_angle_beta   88.40961447
_cell_angle_gamma   88.99624956
_symmetry_Int_Tables_number   1
_chemical_formula_structural   MgSiN2
_chemical_formula_sum   'Mg4 Si4 N8'
_cell_volume   176.10794277
_cell_formula_units_Z   4
loop_
 _symmetry_equiv_pos_site_id
 _symmetry_equiv_pos_as_xyz
  1  'x, y, z'
loop_
 _atom_site_type_symbol
 _atom_site_label
 _atom_site_symmetry_multiplicity
 _atom_site_fract_x
 _atom_site_fract_y
 _atom_site_fract_z
 _atom_site_occupancy
  Mg  Mg0  1  0.09657747  0.40760577  0.88616100  1
  Mg  Mg1  1  0.09838914  0.91406588  0.63383883  1
  Mg  Mg2  1  0.53965369  0.57942990  0.12288011  1
  Mg  Mg3  1  0.56959760  0.06577836  0.38422154  1
  Si  Si4  1  0.09905670  0.92777156  0.13409747  1
  Si  Si5  1  0.60633405  0.06730997  0.88234660  1
  Si  Si6  1  0.95045624  0.42488532  0.37590041  1
  Si  Si7  1  0.62501111  0.57166098  0.64302524  1
  N  N8  1  0.95109518  0.04614301  0.91560594  1
  N  N9  1  0.44634295  0.95333658  0.10048383  1
  N  N10  1  0.03491836  0.60371983  0.16105438  1
  N  N11  1  0.01432717  0.09899698  0.35622194  1
  N  N12  1  0.51655424  0.38655853  0.84934483  1
  N  N13  1  0.51901034  0.88801546  0.66741047  1
  N  N14  1  0.98118413  0.55295032  0.61827233  1
  N  N15  1  0.58769397  0.44514187  0.40247798  1
