# generated using pymatgen
data_MgSiN2
_symmetry_space_group_name_H-M   'P 1'
_cell_length_a   5.02612392
_cell_length_b   5.32190162
_cell_length_c   6.60469809
_cell_angle_alpha   90.14117809
_cell_angle_beta   91.65918811
_cell_angle_gamma   89.02992498
_symmetry_Int_Tables_number   1
_chemical_formula_structural   MgSiN2
_chemical_formula_sum   'Mg4 Si4 N8'
_cell_volume   176.56628750
_cell_formula_units_Z   4
loop_
 _symmetry_equiv_pos_site_id
 _symmetry_equiv_pos_as_xyz
  1  'x, y, z'
loop_
 _atom_site_type_symbol
 _atom_site_label
 _atom_site_symmetry_multiplicity
 _atom_site_fract_x
 _atom_site_fract_y
 _atom_site_fract_z
 _atom_site_occupancy
  Mg  Mg0  1  0.00228849  0.42740616  0.88270425  1
  Mg  Mg1  1  0.08044998  0.92085637  0.62911889  1
  Mg  Mg2  1  0.48278748  0.57370244  0.13201575  1
  Mg  Mg3  1  0.49793286  0.08256752  0.38574460  1
  Si  Si4  1  0.95857216  0.91960594  0.14286865  1
  Si  Si5  1  0.62483981  0.06424793  0.87563679  1
  Si  Si6  1  0.97263778  0.42568725  0.38285020  1
  Si  Si7  1  0.47842830  0.56209215  0.63395978  1
  N  N8  1  0.98360723  0.04486501  0.90202191  1
  N  N9  1  0.58801283  0.93836577  0.11562002  1
  N  N10  1  0.05897006  0.60153042  0.16644375  1
  N  N11  1  0.06075429  0.10482261  0.35028297  1
  N  N12  1  0.56505221  0.39191478  0.85429101  1
  N  N13  1  0.52293171  0.89035767  0.66331106  1
  N  N14  1  0.13112310  0.53669946  0.60094548  1
  N  N15  1  0.62781405  0.44864884  0.41552776  1
