# generated using pymatgen
data_MgSiN2
_symmetry_space_group_name_H-M   'P 1'
_cell_length_a   5.02600120
_cell_length_b   5.32566429
_cell_length_c   6.61325718
_cell_angle_alpha   90.11738931
_cell_angle_beta   91.50464929
_cell_angle_gamma   89.11639917
_symmetry_Int_Tables_number   1
_chemical_formula_structural   MgSiN2
_chemical_formula_sum   'Mg4 Si4 N8'
_cell_volume   176.93338305
_cell_formula_units_Z   4
loop_
 _symmetry_equiv_pos_site_id
 _symmetry_equiv_pos_as_xyz
  1  'x, y, z'
loop_
 _atom_site_type_symbol
 _atom_site_label
 _atom_site_symmetry_multiplicity
 _atom_site_fract_x
 _atom_site_fract_y
 _atom_site_fract_z
 _atom_site_occupancy
  Mg  Mg0  1  0.00003457  0.42715525  0.88191642  1
  Mg  Mg1  1  0.08031944  0.92089897  0.63009741  1
  Mg  Mg2  1  0.48838653  0.57148627  0.13106123  1
  Mg  Mg3  1  0.50756735  0.08139976  0.38612784  1
  Si  Si4  1  0.99350866  0.92036188  0.14178931  1
  Si  Si5  1  0.61870639  0.06250358  0.87881923  1
  Si  Si6  1  0.97203428  0.42684606  0.38411791  1
  Si  Si7  1  0.47884134  0.56287997  0.63417437  1
  N  N8  1  0.97786055  0.04422939  0.90308492  1
  N  N9  1  0.55404694  0.94145601  0.11102627  1
  N  N10  1  0.05900133  0.59877473  0.16599330  1
  N  N11  1  0.05797838  0.10565977  0.35286272  1
  N  N12  1  0.56595635  0.39186984  0.85285682  1
  N  N13  1  0.52304558  0.89102105  0.66256094  1
  N  N14  1  0.13091670  0.53719311  0.60117297  1
  N  N15  1  0.62799795  0.44963466  0.41568121  1
