# generated using pymatgen
data_MgSiN2
_symmetry_space_group_name_H-M   'P 1'
_cell_length_a   5.02601328
_cell_length_b   5.32409863
_cell_length_c   6.61395293
_cell_angle_alpha   89.86956801
_cell_angle_beta   88.46932458
_cell_angle_gamma   89.10751739
_symmetry_Int_Tables_number   1
_chemical_formula_structural   MgSiN2
_chemical_formula_sum   'Mg4 Si4 N8'
_cell_volume   176.89778006
_cell_formula_units_Z   4
loop_
 _symmetry_equiv_pos_site_id
 _symmetry_equiv_pos_as_xyz
  1  'x, y, z'
loop_
 _atom_site_type_symbol
 _atom_site_label
 _atom_site_symmetry_multiplicity
 _atom_site_fract_x
 _atom_site_fract_y
 _atom_site_fract_z
 _atom_site_occupancy
  Mg  Mg0  1  0.07327802  0.41019526  0.88612069  1
  Mg  Mg1  1  0.09238566  0.91982126  0.63114303  1
  Mg  Mg2  1  0.49865241  0.57059410  0.13005943  1
  Mg  Mg3  1  0.57903125  0.06444829  0.38204788  1
  Si  Si4  1  0.10076333  0.92892960  0.13402087  1
  Si  Si5  1  0.60721030  0.06507477  0.88388045  1
  Si  Si6  1  0.95927625  0.42861376  0.37779910  1
  Si  Si7  1  0.59951516  0.57164734  0.64227159  1
  N  N8  1  0.95153202  0.04199152  0.91558050  1
  N  N9  1  0.44850214  0.95455002  0.10115452  1
  N  N10  1  0.05646243  0.60071738  0.16271527  1
  N  N11  1  0.01366429  0.09972744  0.35298548  1
  N  N12  1  0.52114075  0.38641762  0.85235651  1
  N  N13  1  0.52047978  0.89224946  0.66607820  1
  N  N14  1  0.01429755  0.55113182  0.61233429  1
  N  N15  1  0.60001099  0.44726068  0.40279508  1
