# generated using pymatgen
data_Al17BN18
_symmetry_space_group_name_H-M   'P 1'
_cell_length_a   9.34274296
_cell_length_b   9.33046811
_cell_length_c   10.12896630
_cell_angle_alpha   89.64160017
_cell_angle_beta   89.75784702
_cell_angle_gamma   59.97492067
_symmetry_Int_Tables_number   1
_chemical_formula_structural   Al17BN18
_chemical_formula_sum   'Al34 B2 N36'
_cell_volume   764.46030210
_cell_formula_units_Z   2
loop_
 _symmetry_equiv_pos_site_id
 _symmetry_equiv_pos_as_xyz
  1  'x, y, z'
loop_
 _atom_site_type_symbol
 _atom_site_label
 _atom_site_symmetry_multiplicity
 _atom_site_fract_x
 _atom_site_fract_y
 _atom_site_fract_z
 _atom_site_occupancy
  Al  Al0  1  0.11379390  0.08895808  0.38553554  1
  Al  Al1  1  0.22588772  0.20117632  0.13962852  1
  Al  Al2  1  0.77576022  0.09300859  0.82172604  1
  Al  Al3  1  0.87982219  0.20667686  0.56653132  1
  Al  Al4  1  0.44973609  0.08741660  0.37562279  1
  Al  Al5  1  0.56182498  0.20016270  0.08127807  1
  Al  Al6  1  0.11657373  0.09013804  0.89001073  1
  Al  Al7  1  0.22405349  0.20455442  0.63664028  1
  Al  Al8  1  0.88436588  0.20482435  0.07681568  1
  Al  Al9  1  0.44493461  0.08575126  0.89430848  1
  Al  Al10  1  0.56251083  0.20512968  0.56268704  1
  Al  Al11  1  0.10905892  0.42450053  0.38975497  1
  Al  Al12  1  0.22508286  0.54178728  0.06795868  1
  Al  Al13  1  0.77910324  0.42458837  0.83661373  1
  Al  Al14  1  0.89010436  0.54424090  0.63573606  1
  Al  Al15  1  0.44568294  0.42112452  0.31900196  1
  Al  Al16  1  0.55400261  0.54909012  0.13683663  1
  Al  Al17  1  0.10852864  0.42423753  0.88748836  1
  Al  Al18  1  0.22506168  0.54254668  0.56985257  1
  Al  Al19  1  0.78050927  0.41844947  0.32805313  1
  Al  Al20  1  0.88855321  0.54507456  0.13816385  1
  Al  Al21  1  0.44187812  0.42135487  0.82135512  1
  Al  Al22  1  0.55364174  0.54486988  0.63581231  1
  Al  Al23  1  0.10479091  0.76317541  0.31848140  1
  Al  Al24  1  0.23083508  0.87551590  0.13956140  1
  Al  Al25  1  0.76854545  0.76283075  0.89511490  1
  Al  Al26  1  0.88826708  0.88091592  0.56250683  1
  Al  Al27  1  0.44618030  0.76142669  0.38521435  1
  Al  Al28  1  0.10422924  0.76030213  0.82060190  1
  Al  Al29  1  0.22457479  0.87681745  0.63776190  1
  Al  Al30  1  0.77112841  0.76636866  0.37654789  1
  Al  Al31  1  0.88443262  0.87869361  0.08105950  1
  Al  Al32  1  0.44582691  0.76357061  0.89199479  1
  Al  Al33  1  0.55692832  0.87433638  0.63510848  1
  B  B34  1  0.77974716  0.09472480  0.31565795  1
  B  B35  1  0.55534790  0.87228213  0.14162620  1
  N  N36  1  0.22224865  0.20621249  0.32619758  1
  N  N37  1  0.11700272  0.09148143  0.07958311  1
  N  N38  1  0.88367998  0.20385055  0.88396557  1
  N  N39  1  0.77595480  0.09361289  0.63504027  1
  N  N40  1  0.58403511  0.19359799  0.37004999  1
  N  N41  1  0.45597351  0.06553602  0.08813039  1
  N  N42  1  0.22529560  0.20358963  0.82695226  1
  N  N43  1  0.11285131  0.09437040  0.57562606  1
  N  N44  1  0.87539013  0.19144532  0.37197830  1
  N  N45  1  0.77881578  0.09456908  0.15402543  1
  N  N46  1  0.55857062  0.20519869  0.88918229  1
  N  N47  1  0.44257180  0.09150361  0.56825348  1
  N  N48  1  0.22538200  0.54207886  0.38025830  1
  N  N49  1  0.10927658  0.42346321  0.07735947  1
  N  N50  1  0.88951805  0.54590893  0.82887960  1
  N  N51  1  0.78004254  0.42521010  0.61586353  1
  N  N52  1  0.55296473  0.54385970  0.33098278  1
  N  N53  1  0.44147306  0.42493512  0.12952959  1
  N  N54  1  0.22403560  0.54171855  0.87847877  1
  N  N55  1  0.10914281  0.42499453  0.57954560  1
  N  N56  1  0.89299923  0.54160663  0.32728339  1
  N  N57  1  0.78050428  0.42497136  0.11983301  1
  N  N58  1  0.55078640  0.54542081  0.83294924  1
  N  N59  1  0.44331590  0.42141310  0.62936377  1
  N  N60  1  0.22704378  0.87307238  0.32779575  1
  N  N61  1  0.10915894  0.75863194  0.12962027  1
  N  N62  1  0.88895379  0.87619974  0.88939707  1
  N  N63  1  0.77368360  0.76164225  0.56831160  1
  N  N64  1  0.55501170  0.87069849  0.30405643  1
  N  N65  1  0.45642081  0.77383937  0.08241780  1
  N  N66  1  0.22616865  0.87348317  0.82885474  1
  N  N67  1  0.10452994  0.76151778  0.62900461  1
  N  N68  1  0.87793717  0.90085962  0.37010553  1
  N  N69  1  0.74884712  0.77339710  0.08756885  1
  N  N70  1  0.55605527  0.87285459  0.82257130  1
  N  N71  1  0.44415574  0.76387712  0.57388091  1
