# generated using pymatgen
data_Al17BN18
_symmetry_space_group_name_H-M   'P 1'
_cell_length_a   9.32460376
_cell_length_b   9.32067467
_cell_length_c   10.14097857
_cell_angle_alpha   89.64963947
_cell_angle_beta   89.60697699
_cell_angle_gamma   60.04010894
_symmetry_Int_Tables_number   1
_chemical_formula_structural   Al17BN18
_chemical_formula_sum   'Al34 B2 N36'
_cell_volume   763.57430755
_cell_formula_units_Z   2
loop_
 _symmetry_equiv_pos_site_id
 _symmetry_equiv_pos_as_xyz
  1  'x, y, z'
loop_
 _atom_site_type_symbol
 _atom_site_label
 _atom_site_symmetry_multiplicity
 _atom_site_fract_x
 _atom_site_fract_y
 _atom_site_fract_z
 _atom_site_occupancy
  Al  Al0  1  0.10330515  0.08989568  0.32168095  1
  Al  Al1  1  0.23070196  0.20073827  0.14360250  1
  Al  Al2  1  0.77462972  0.09381065  0.82614127  1
  Al  Al3  1  0.88640051  0.20325134  0.56907206  1
  Al  Al4  1  0.44987185  0.08926194  0.38240755  1
  Al  Al5  1  0.56200929  0.20098264  0.08483789  1
  Al  Al6  1  0.10506972  0.09189778  0.82184980  1
  Al  Al7  1  0.22731519  0.20775398  0.64056504  1
  Al  Al8  1  0.88786634  0.20343837  0.07602862  1
  Al  Al9  1  0.44338623  0.08496197  0.89974285  1
  Al  Al10  1  0.56369954  0.20582261  0.56691071  1
  Al  Al11  1  0.11720721  0.42076762  0.38676399  1
  Al  Al12  1  0.22703016  0.54207380  0.07361225  1
  Al  Al13  1  0.77753039  0.42761980  0.82195902  1
  Al  Al14  1  0.88281448  0.53764317  0.56875399  1
  Al  Al15  1  0.45158311  0.42489983  0.32125428  1
  Al  Al16  1  0.55651985  0.54346641  0.06983276  1
  Al  Al17  1  0.11284517  0.42193692  0.89181253  1
  Al  Al18  1  0.22482927  0.54289317  0.57404438  1
  Al  Al19  1  0.77572951  0.42232694  0.31984290  1
  Al  Al20  1  0.88131513  0.53865185  0.08415027  1
  Al  Al21  1  0.44570061  0.42361207  0.82341822  1
  Al  Al22  1  0.55428171  0.54025299  0.57070224  1
  Al  Al23  1  0.11057130  0.76578398  0.32061133  1
  Al  Al24  1  0.22752124  0.87435960  0.06995290  1
  Al  Al25  1  0.76403427  0.76870901  0.89892709  1
  Al  Al26  1  0.88865239  0.88146201  0.56625066  1
  Al  Al27  1  0.44440223  0.75996422  0.31586638  1
  Al  Al28  1  0.10611858  0.76245654  0.82307639  1
  Al  Al29  1  0.22278098  0.87374307  0.57036340  1
  Al  Al30  1  0.77316532  0.76963741  0.37449487  1
  Al  Al31  1  0.88525310  0.87851272  0.08670512  1
  Al  Al32  1  0.44059861  0.75740525  0.82033577  1
  Al  Al33  1  0.55895474  0.87698901  0.63891964  1
  B  B34  1  0.77915000  0.09617500  0.31946950  1
  B  B35  1  0.55799252  0.87486263  0.14955061  1
  N  N36  1  0.22723782  0.20379561  0.33105194  1
  N  N37  1  0.10768488  0.09127700  0.13206627  1
  N  N38  1  0.88609152  0.20553496  0.88638925  1
  N  N39  1  0.77626737  0.09439059  0.63862244  1
  N  N40  1  0.58517851  0.19563904  0.37394929  1
  N  N41  1  0.45632288  0.06441530  0.09070730  1
  N  N42  1  0.22767097  0.20459199  0.83167729  1
  N  N43  1  0.10594803  0.09375172  0.63022347  1
  N  N44  1  0.87645026  0.19445990  0.37744010  1
  N  N45  1  0.77832842  0.09589432  0.15703696  1
  N  N46  1  0.55724291  0.20635204  0.89289258  1
  N  N47  1  0.44289326  0.09227886  0.57183167  1
  N  N48  1  0.22807926  0.54288073  0.38187417  1
  N  N49  1  0.11572649  0.42110510  0.08684161  1
  N  N50  1  0.88284880  0.53931583  0.88425855  1
  N  N51  1  0.77649613  0.42585338  0.63162545  1
  N  N52  1  0.55603807  0.54154409  0.38258639  1
  N  N53  1  0.44623672  0.42847163  0.13431462  1
  N  N54  1  0.22506716  0.54230582  0.88162661  1
  N  N55  1  0.11181825  0.42437319  0.58250843  1
  N  N56  1  0.88763054  0.53463462  0.36972584  1
  N  N57  1  0.77456685  0.42440290  0.13380686  1
  N  N58  1  0.55518500  0.53802680  0.88179838  1
  N  N59  1  0.44621494  0.42424655  0.63312751  1
  N  N60  1  0.22592298  0.87159384  0.38254476  1
  N  N61  1  0.11337836  0.76159966  0.13382774  1
  N  N62  1  0.88916366  0.87649194  0.89321162  1
  N  N63  1  0.77083868  0.76734760  0.57003337  1
  N  N64  1  0.55943617  0.87816961  0.30878169  1
  N  N65  1  0.45341489  0.76920126  0.12650371  1
  N  N66  1  0.22121106  0.87218291  0.88230858  1
  N  N67  1  0.10699106  0.76420022  0.63264353  1
  N  N68  1  0.88141742  0.90138850  0.37202818  1
  N  N69  1  0.74726152  0.77618631  0.09492022  1
  N  N70  1  0.55660297  0.87593377  0.82583100  1
  N  N71  1  0.44128529  0.75886927  0.63036126  1
