# generated using pymatgen
data_Al17BN18
_symmetry_space_group_name_H-M   'P 1'
_cell_length_a   9.31975245
_cell_length_b   9.31995539
_cell_length_c   10.07725153
_cell_angle_alpha   89.71797361
_cell_angle_beta   89.71153058
_cell_angle_gamma   59.97574154
_symmetry_Int_Tables_number   1
_chemical_formula_structural   Al17BN18
_chemical_formula_sum   'Al34 B2 N36'
_cell_volume   757.84004710
_cell_formula_units_Z   2
loop_
 _symmetry_equiv_pos_site_id
 _symmetry_equiv_pos_as_xyz
  1  'x, y, z'
loop_
 _atom_site_type_symbol
 _atom_site_label
 _atom_site_symmetry_multiplicity
 _atom_site_fract_x
 _atom_site_fract_y
 _atom_site_fract_z
 _atom_site_occupancy
  Al  Al0  1  0.10559203  0.09264557  0.32214527  1
  Al  Al1  1  0.21981379  0.20195936  0.08042283  1
  Al  Al2  1  0.77695731  0.09367391  0.82720717  1
  Al  Al3  1  0.88647947  0.20317152  0.57059357  1
  Al  Al4  1  0.45187365  0.09015673  0.37793822  1
  Al  Al5  1  0.56130355  0.20160505  0.08808969  1
  Al  Al6  1  0.11021719  0.09538081  0.82372185  1
  Al  Al7  1  0.21736587  0.20745443  0.56983263  1
  Al  Al8  1  0.88696064  0.20357332  0.07721317  1
  Al  Al9  1  0.45041698  0.08316068  0.89907838  1
  Al  Al10  1  0.56434461  0.20596825  0.56796296  1
  Al  Al11  1  0.11168105  0.42838834  0.32049114  1
  Al  Al12  1  0.22271137  0.53935970  0.07196133  1
  Al  Al13  1  0.77868426  0.42689498  0.82370208  1
  Al  Al14  1  0.89078833  0.53400653  0.56986370  1
  Al  Al15  1  0.44925532  0.42643786  0.32259173  1
  Al  Al16  1  0.55615797  0.54378671  0.07172857  1
  Al  Al17  1  0.11065182  0.42732888  0.82471450  1
  Al  Al18  1  0.22195176  0.53864725  0.57457427  1
  Al  Al19  1  0.77603340  0.42224696  0.32211448  1
  Al  Al20  1  0.88533540  0.53641284  0.08019735  1
  Al  Al21  1  0.44597485  0.42382395  0.82449043  1
  Al  Al22  1  0.55522743  0.54010022  0.57211319  1
  Al  Al23  1  0.10979090  0.76590677  0.32259417  1
  Al  Al24  1  0.22716772  0.87278406  0.07173102  1
  Al  Al25  1  0.76640064  0.76719678  0.89905151  1
  Al  Al26  1  0.88930761  0.88104456  0.56800862  1
  Al  Al27  1  0.44380039  0.76040511  0.31712479  1
  Al  Al28  1  0.10712965  0.76267888  0.82450749  1
  Al  Al29  1  0.22345077  0.87189240  0.57212371  1
  Al  Al30  1  0.77353903  0.76849066  0.37809097  1
  Al  Al31  1  0.88495900  0.87792482  0.08809587  1
  Al  Al32  1  0.44100590  0.75768701  0.82171343  1
  Al  Al33  1  0.55994614  0.87664716  0.63948442  1
  B  B34  1  0.77997314  0.09663908  0.32005121  1
  B  B35  1  0.55837035  0.87489684  0.15096802  1
  N  N36  1  0.21527624  0.20755224  0.37675576  1
  N  N37  1  0.10856526  0.09237090  0.13454716  1
  N  N38  1  0.88798907  0.20468976  0.88674695  1
  N  N39  1  0.77763408  0.09435699  0.63926221  1
  N  N40  1  0.58460634  0.19724420  0.37297498  1
  N  N41  1  0.45811652  0.06480283  0.09561583  1
  N  N42  1  0.21912335  0.20633413  0.88669737  1
  N  N43  1  0.10923572  0.09508203  0.63226529  1
  N  N44  1  0.87680858  0.19348119  0.37797733  1
  N  N45  1  0.77912142  0.09575091  0.15753919  1
  N  N46  1  0.55930499  0.20654813  0.89350648  1
  N  N47  1  0.44839064  0.09058045  0.57355422  1
  N  N48  1  0.22240252  0.53907688  0.38424034  1
  N  N49  1  0.11160267  0.42831506  0.13269142  1
  N  N50  1  0.88960562  0.53586358  0.88661296  1
  N  N51  1  0.77838981  0.42591215  0.63227984  1
  N  N52  1  0.55512743  0.54174122  0.38301982  1
  N  N53  1  0.44368384  0.43024192  0.13427666  1
  N  N54  1  0.22221431  0.53892436  0.88231785  1
  N  N55  1  0.11046052  0.42712841  0.63432674  1
  N  N56  1  0.89090465  0.53188897  0.37687888  1
  N  N57  1  0.77576931  0.42520579  0.13450974  1
  N  N58  1  0.55573684  0.53802688  0.88265172  1
  N  N59  1  0.44590814  0.42506152  0.63294268  1
  N  N60  1  0.22511900  0.87175505  0.38303300  1
  N  N61  1  0.11359905  0.76033085  0.13427615  1
  N  N62  1  0.88983485  0.87603924  0.89350350  1
  N  N63  1  0.77394534  0.76505409  0.57363460  1
  N  N64  1  0.56011184  0.87663342  0.31075849  1
  N  N65  1  0.45312078  0.76973704  0.12702391  1
  N  N66  1  0.22133824  0.87243449  0.88265624  1
  N  N67  1  0.10838995  0.76260325  0.63296423  1
  N  N68  1  0.88059319  0.90125965  0.37300759  1
  N  N69  1  0.74815799  0.77472583  0.09552154  1
  N  N70  1  0.55792442  0.87468743  0.82708741  1
  N  N71  1  0.44226158  0.75891609  0.63087578  1
