# generated using pymatgen
data_Al17BN18
_symmetry_space_group_name_H-M   'P 1'
_cell_length_a   9.33297259
_cell_length_b   9.32877994
_cell_length_c   10.11914509
_cell_angle_alpha   89.65758795
_cell_angle_beta   89.74989020
_cell_angle_gamma   60.00650347
_symmetry_Int_Tables_number   1
_chemical_formula_structural   Al17BN18
_chemical_formula_sum   'Al34 B2 N36'
_cell_volume   763.02619136
_cell_formula_units_Z   2
loop_
 _symmetry_equiv_pos_site_id
 _symmetry_equiv_pos_as_xyz
  1  'x, y, z'
loop_
 _atom_site_type_symbol
 _atom_site_label
 _atom_site_symmetry_multiplicity
 _atom_site_fract_x
 _atom_site_fract_y
 _atom_site_fract_z
 _atom_site_occupancy
  Al  Al0  1  0.10208852  0.09162887  0.31935065  1
  Al  Al1  1  0.22856206  0.20355285  0.14024689  1
  Al  Al2  1  0.77632671  0.09256307  0.82387592  1
  Al  Al3  1  0.88744418  0.20321720  0.56728989  1
  Al  Al4  1  0.44901635  0.08843293  0.37773618  1
  Al  Al5  1  0.56209047  0.20025658  0.08273830  1
  Al  Al6  1  0.10803959  0.09067900  0.82105660  1
  Al  Al7  1  0.22906514  0.20642435  0.63812279  1
  Al  Al8  1  0.88733012  0.20501522  0.07381104  1
  Al  Al9  1  0.44505579  0.08650563  0.89614932  1
  Al  Al10  1  0.56454768  0.20403028  0.56433251  1
  Al  Al11  1  0.10832855  0.42498400  0.39070025  1
  Al  Al12  1  0.22441267  0.54220477  0.06940208  1
  Al  Al13  1  0.77550365  0.42378074  0.82192359  1
  Al  Al14  1  0.89074225  0.54547826  0.63791529  1
  Al  Al15  1  0.44700641  0.42322508  0.32026242  1
  Al  Al16  1  0.55736819  0.54085673  0.08688255  1
  Al  Al17  1  0.10823340  0.42426317  0.88859394  1
  Al  Al18  1  0.22515051  0.54245248  0.57197271  1
  Al  Al19  1  0.77624167  0.41873519  0.32074354  1
  Al  Al20  1  0.88718132  0.54585519  0.14038944  1
  Al  Al21  1  0.44546210  0.42469590  0.82270919  1
  Al  Al22  1  0.55863032  0.53510396  0.57607022  1
  Al  Al23  1  0.10736251  0.76525743  0.31913190  1
  Al  Al24  1  0.21992397  0.87763220  0.07396189  1
  Al  Al25  1  0.77110431  0.76135131  0.89606874  1
  Al  Al26  1  0.88833164  0.88089825  0.56446336  1
  Al  Al27  1  0.44766676  0.76426353  0.37974278  1
  Al  Al28  1  0.10915964  0.76202865  0.82202533  1
  Al  Al29  1  0.21701577  0.87657294  0.56922316  1
  Al  Al30  1  0.77178598  0.76636124  0.37754324  1
  Al  Al31  1  0.88354083  0.87921806  0.08313326  1
  Al  Al32  1  0.45143672  0.76388869  0.89034534  1
  Al  Al33  1  0.55732787  0.87349088  0.63697645  1
  B  B34  1  0.77793128  0.09457882  0.31739220  1
  B  B35  1  0.55310328  0.87152272  0.14331518  1
  N  N36  1  0.22421673  0.20801388  0.32921030  1
  N  N37  1  0.10611572  0.09390148  0.13088094  1
  N  N38  1  0.88866031  0.20379974  0.88494893  1
  N  N39  1  0.77731329  0.09366878  0.63627952  1
  N  N40  1  0.58441950  0.19341416  0.37106276  1
  N  N41  1  0.45530195  0.06623288  0.08867979  1
  N  N42  1  0.22877185  0.20518494  0.82978231  1
  N  N43  1  0.10674607  0.09367911  0.62982421  1
  N  N44  1  0.87695637  0.19315239  0.37648604  1
  N  N45  1  0.77842158  0.09587020  0.15470058  1
  N  N46  1  0.55928386  0.20582685  0.89042115  1
  N  N47  1  0.44438113  0.09090350  0.56958315  1
  N  N48  1  0.22483993  0.54291540  0.38139382  1
  N  N49  1  0.10778978  0.42468523  0.07855138  1
  N  N50  1  0.88944675  0.54515056  0.82949912  1
  N  N51  1  0.77888501  0.42256708  0.62885893  1
  N  N52  1  0.55692080  0.53477179  0.37252251  1
  N  N53  1  0.44193325  0.42672153  0.13324264  1
  N  N54  1  0.22492158  0.54150768  0.87907440  1
  N  N55  1  0.10907615  0.42509449  0.58046035  1
  N  N56  1  0.89153357  0.54162477  0.32942077  1
  N  N57  1  0.77813210  0.42319454  0.13112421  1
  N  N58  1  0.55653587  0.53592095  0.87864303  1
  N  N59  1  0.44593631  0.42303016  0.63149198  1
  N  N60  1  0.21612173  0.87525816  0.37872613  1
  N  N61  1  0.11092582  0.76049511  0.13245391  1
  N  N62  1  0.89070683  0.87531352  0.89045433  1
  N  N63  1  0.77470570  0.76128740  0.56957539  1
  N  N64  1  0.55492226  0.87220556  0.30474571  1
  N  N65  1  0.45741900  0.77636088  0.08906891  1
  N  N66  1  0.21994985  0.87284722  0.88292804  1
  N  N67  1  0.10772384  0.76326855  0.63174838  1
  N  N68  1  0.87738295  0.90113740  0.37060205  1
  N  N69  1  0.74928560  0.77278433  0.08865235  1
  N  N70  1  0.55773773  0.87351359  0.82366820  1
  N  N71  1  0.44816368  0.76493332  0.57723877  1
