# generated using pymatgen
data_Al17BN18
_symmetry_space_group_name_H-M   'P 1'
_cell_length_a   9.31872267
_cell_length_b   9.31872206
_cell_length_c   10.13024509
_cell_angle_alpha   89.67908185
_cell_angle_beta   89.68049933
_cell_angle_gamma   60.07388611
_symmetry_Int_Tables_number   1
_chemical_formula_structural   Al17BN18
_chemical_formula_sum   'Al34 B2 N36'
_cell_volume   762.38991385
_cell_formula_units_Z   2
loop_
 _symmetry_equiv_pos_site_id
 _symmetry_equiv_pos_as_xyz
  1  'x, y, z'
loop_
 _atom_site_type_symbol
 _atom_site_label
 _atom_site_symmetry_multiplicity
 _atom_site_fract_x
 _atom_site_fract_y
 _atom_site_fract_z
 _atom_site_occupancy
  Al  Al0  1  0.11120129  0.09020544  0.38452213  1
  Al  Al1  1  0.22605733  0.20161090  0.13921239  1
  Al  Al2  1  0.77627985  0.09295573  0.82199978  1
  Al  Al3  1  0.88475058  0.20142254  0.57701212  1
  Al  Al4  1  0.44951276  0.08790758  0.37485580  1
  Al  Al5  1  0.56107016  0.20090656  0.08013640  1
  Al  Al6  1  0.11524638  0.09070169  0.88872460  1
  Al  Al7  1  0.22541642  0.20461766  0.63658787  1
  Al  Al8  1  0.88635697  0.20302787  0.08604771  1
  Al  Al9  1  0.44513003  0.08577046  0.89357774  1
  Al  Al10  1  0.56281122  0.20547562  0.56153731  1
  Al  Al11  1  0.10799401  0.42466456  0.38834290  1
  Al  Al12  1  0.22493251  0.54160596  0.06749184  1
  Al  Al13  1  0.77402693  0.43192116  0.88872520  1
  Al  Al14  1  0.88794555  0.54208755  0.63658747  1
  Al  Al15  1  0.44657301  0.42125417  0.31772105  1
  Al  Al16  1  0.55830147  0.54799155  0.13877447  1
  Al  Al17  1  0.10751432  0.42418803  0.88625145  1
  Al  Al18  1  0.22539852  0.54207115  0.56925695  1
  Al  Al19  1  0.77353219  0.42787389  0.38452205  1
  Al  Al20  1  0.88493972  0.54272839  0.13921252  1
  Al  Al21  1  0.44318167  0.42125063  0.82017795  1
  Al  Al22  1  0.55821705  0.54332281  0.63762896  1
  Al  Al23  1  0.10458049  0.76324717  0.31772151  1
  Al  Al24  1  0.23131971  0.87497302  0.13877456  1
  Al  Al25  1  0.76909720  0.76180345  0.89357746  1
  Al  Al26  1  0.88880161  0.87948429  0.56153732  1
  Al  Al27  1  0.44558767  0.76226050  0.38390572  1
  Al  Al28  1  0.10457510  0.75985707  0.82017734  1
  Al  Al29  1  0.22665101  0.87488894  0.63762890  1
  Al  Al30  1  0.77123696  0.76618279  0.37485539  1
  Al  Al31  1  0.88423324  0.87774328  0.08013593  1
  Al  Al32  1  0.44637234  0.76304704  0.89077820  1
  Al  Al33  1  0.55754017  0.87421261  0.63408481  1
  B  B34  1  0.77971171  0.09638341  0.31539644  1
  B  B35  1  0.55537326  0.87204677  0.14050398  1
  N  N36  1  0.22215158  0.20620930  0.32569387  1
  N  N37  1  0.11675673  0.09166806  0.07936930  1
  N  N38  1  0.88620369  0.20287950  0.87521935  1
  N  N39  1  0.77525267  0.09192322  0.63507539  1
  N  N40  1  0.58399279  0.19462258  0.36963052  1
  N  N41  1  0.45576530  0.06557087  0.08714416  1
  N  N42  1  0.22615388  0.20334365  0.82649251  1
  N  N43  1  0.11489691  0.09294413  0.57596798  1
  N  N44  1  0.87552285  0.19219610  0.36677803  1
  N  N45  1  0.77733930  0.09401053  0.15353290  1
  N  N46  1  0.55867324  0.20580290  0.88878972  1
  N  N47  1  0.44324518  0.09120399  0.56734020  1
  N  N48  1  0.22539643  0.54206773  0.37951336  1
  N  N49  1  0.10736031  0.42403409  0.07703633  1
  N  N50  1  0.88666810  0.54282918  0.82649222  1
  N  N51  1  0.77627049  0.43156886  0.57596844  1
  N  N52  1  0.55681151  0.54340296  0.32720888  1
  N  N53  1  0.44201733  0.42561430  0.12896771  1
  N  N54  1  0.22452304  0.54119624  0.87790637  1
  N  N55  1  0.10813064  0.42480462  0.57887970  1
  N  N56  1  0.88953663  0.53882346  0.32569414  1
  N  N57  1  0.77499518  0.43342846  0.07937021  1
  N  N58  1  0.55600978  0.54378857  0.82862470  1
  N  N59  1  0.44443802  0.42160041  0.62859102  1
  N  N60  1  0.22672813  0.87348677  0.32720889  1
  N  N61  1  0.10894265  0.75868876  0.12896802  1
  N  N62  1  0.88913007  0.87534594  0.88878929  1
  N  N63  1  0.77452908  0.75991885  0.56733998  1
  N  N64  1  0.55473383  0.87140638  0.30308372  1
  N  N65  1  0.45655878  0.77323274  0.08169126  1
  N  N66  1  0.22711184  0.87268634  0.82862465  1
  N  N67  1  0.10492928  0.76110900  0.62859031  1
  N  N68  1  0.87795129  0.90066423  0.36963076  1
  N  N69  1  0.74889740  0.77243889  0.08714429  1
  N  N70  1  0.55638449  0.87306032  0.82154611  1
  N  N71  1  0.44561818  0.76229209  0.57285097  1
