# generated using pymatgen
data_Al17BN18
_symmetry_space_group_name_H-M   'P 1'
_cell_length_a   9.33551770
_cell_length_b   9.32793446
_cell_length_c   10.03330677
_cell_angle_alpha   89.70774496
_cell_angle_beta   89.89833174
_cell_angle_gamma   59.94883810
_symmetry_Int_Tables_number   1
_chemical_formula_structural   Al17BN18
_chemical_formula_sum   'Al34 B2 N36'
_cell_volume   756.25570101
_cell_formula_units_Z   2
loop_
 _symmetry_equiv_pos_site_id
 _symmetry_equiv_pos_as_xyz
  1  'x, y, z'
loop_
 _atom_site_type_symbol
 _atom_site_label
 _atom_site_symmetry_multiplicity
 _atom_site_fract_x
 _atom_site_fract_y
 _atom_site_fract_z
 _atom_site_occupancy
  Al  Al0  1  0.10620466  0.09370157  0.38672801  1
  Al  Al1  1  0.22349451  0.20094014  0.13606075  1
  Al  Al2  1  0.77423932  0.09013580  0.81958977  1
  Al  Al3  1  0.89286123  0.20942212  0.63649844  1
  Al  Al4  1  0.44825290  0.08891111  0.37218158  1
  Al  Al5  1  0.55486004  0.20022892  0.11861666  1
  Al  Al6  1  0.11088448  0.09463562  0.88627895  1
  Al  Al7  1  0.22541755  0.20425606  0.63552176  1
  Al  Al8  1  0.89136929  0.20649562  0.13976314  1
  Al  Al9  1  0.44670206  0.08820847  0.89231860  1
  Al  Al10  1  0.55873161  0.20352576  0.58457822  1
  Al  Al11  1  0.11065477  0.42716707  0.38668771  1
  Al  Al12  1  0.22177248  0.53835073  0.13777995  1
  Al  Al13  1  0.77794390  0.42657556  0.88634314  1
  Al  Al14  1  0.88744392  0.54327000  0.63417545  1
  Al  Al15  1  0.44869617  0.42800747  0.37907142  1
  Al  Al16  1  0.55752554  0.54404181  0.13636492  1
  Al  Al17  1  0.11174086  0.42794178  0.88403351  1
  Al  Al18  1  0.22156903  0.54051390  0.63465320  1
  Al  Al19  1  0.77683839  0.42275209  0.38680426  1
  Al  Al20  1  0.88417601  0.54061727  0.13598118  1
  Al  Al21  1  0.44482066  0.42798550  0.88970272  1
  Al  Al22  1  0.55497781  0.54037110  0.63599123  1
  Al  Al23  1  0.11357112  0.76434434  0.37789866  1
  Al  Al24  1  0.22805981  0.87378939  0.13634861  1
  Al  Al25  1  0.76854296  0.76079983  0.88997077  1
  Al  Al26  1  0.88238630  0.88445787  0.55871687  1
  Al  Al27  1  0.44632999  0.76239156  0.38144595  1
  Al  Al28  1  0.11672615  0.75862785  0.88780262  1
  Al  Al29  1  0.22306817  0.87144710  0.63497653  1
  Al  Al30  1  0.77184359  0.76497968  0.37018580  1
  Al  Al31  1  0.88271842  0.87528250  0.07799766  1
  Al  Al32  1  0.44684134  0.76376517  0.88829102  1
  Al  Al33  1  0.55670465  0.87227488  0.63251934  1
  B  B34  1  0.77968407  0.08929245  0.30451263  1
  B  B35  1  0.55358997  0.86989317  0.13949723  1
  N  N36  1  0.21959370  0.20606906  0.32517443  1
  N  N37  1  0.10969293  0.09467555  0.07587807  1
  N  N38  1  0.89176644  0.20758350  0.82813456  1
  N  N39  1  0.77753479  0.09263662  0.62845259  1
  N  N40  1  0.57779866  0.19460110  0.34120555  1
  N  N41  1  0.45375919  0.06666116  0.08702174  1
  N  N42  1  0.22527013  0.20377722  0.82706754  1
  N  N43  1  0.11235716  0.09450457  0.57628187  1
  N  N44  1  0.87969896  0.19651492  0.33146885  1
  N  N45  1  0.78085433  0.08685332  0.14373065  1
  N  N46  1  0.55516912  0.20387060  0.86398533  1
  N  N47  1  0.44355058  0.09088984  0.56565784  1
  N  N48  1  0.22181627  0.53802901  0.32640125  1
  N  N49  1  0.11070497  0.42789528  0.07509160  1
  N  N50  1  0.88732929  0.54150098  0.82605861  1
  N  N51  1  0.77733315  0.42942578  0.57644932  1
  N  N52  1  0.55706581  0.54075872  0.32481214  1
  N  N53  1  0.44366768  0.43186211  0.08236746  1
  N  N54  1  0.22322964  0.53942166  0.82507736  1
  N  N55  1  0.11125704  0.42786410  0.57698446  1
  N  N56  1  0.88944149  0.53622042  0.32497042  1
  N  N57  1  0.77827046  0.42558313  0.07607233  1
  N  N58  1  0.55435078  0.54085263  0.82771018  1
  N  N59  1  0.44329608  0.43167789  0.57179721  1
  N  N60  1  0.22450937  0.87411603  0.32451749  1
  N  N61  1  0.11912218  0.75856645  0.08141010  1
  N  N62  1  0.88576610  0.87459200  0.88289469  1
  N  N63  1  0.77375547  0.76103951  0.56549939  1
  N  N64  1  0.55374605  0.87071012  0.30226402  1
  N  N65  1  0.45666273  0.77344372  0.08147202  1
  N  N66  1  0.22415678  0.87163000  0.82659287  1
  N  N67  1  0.11375105  0.76088423  0.57198528  1
  N  N68  1  0.87473834  0.90209498  0.36213902  1
  N  N69  1  0.74890500  0.76990010  0.08611660  1
  N  N70  1  0.55472907  0.87312144  0.82060979  1
  N  N71  1  0.44516025  0.76226401  0.57243925  1
