# generated using pymatgen
data_Al17BN18
_symmetry_space_group_name_H-M   'P 1'
_cell_length_a   9.32831672
_cell_length_b   9.33806449
_cell_length_c   10.06145732
_cell_angle_alpha   89.71532921
_cell_angle_beta   89.62666480
_cell_angle_gamma   59.96012911
_symmetry_Int_Tables_number   1
_chemical_formula_structural   Al17BN18
_chemical_formula_sum   'Al34 B2 N36'
_cell_volume   758.69458563
_cell_formula_units_Z   2
loop_
 _symmetry_equiv_pos_site_id
 _symmetry_equiv_pos_as_xyz
  1  'x, y, z'
loop_
 _atom_site_type_symbol
 _atom_site_label
 _atom_site_symmetry_multiplicity
 _atom_site_fract_x
 _atom_site_fract_y
 _atom_site_fract_z
 _atom_site_occupancy
  Al  Al0  1  0.10560075  0.09418810  0.38822481  1
  Al  Al1  1  0.22322753  0.20079655  0.13724506  1
  Al  Al2  1  0.77308271  0.09046810  0.81898239  1
  Al  Al3  1  0.89228199  0.20877643  0.63710723  1
  Al  Al4  1  0.44786843  0.08888312  0.37108121  1
  Al  Al5  1  0.55947081  0.19814852  0.08161429  1
  Al  Al6  1  0.10978226  0.09544005  0.88745011  1
  Al  Al7  1  0.22671511  0.20359331  0.63477097  1
  Al  Al8  1  0.88888394  0.20687038  0.14194916  1
  Al  Al9  1  0.44431181  0.08534100  0.89126242  1
  Al  Al10  1  0.56824094  0.19833366  0.55984224  1
  Al  Al11  1  0.11024141  0.42687443  0.38792933  1
  Al  Al12  1  0.22275072  0.53418681  0.13716094  1
  Al  Al13  1  0.77834099  0.42654459  0.88694386  1
  Al  Al14  1  0.88774891  0.54331317  0.63447859  1
  Al  Al15  1  0.44718862  0.43105021  0.38002694  1
  Al  Al16  1  0.55714686  0.54452836  0.13746380  1
  Al  Al17  1  0.11164438  0.42631686  0.88511032  1
  Al  Al18  1  0.22440127  0.53633563  0.63342263  1
  Al  Al19  1  0.77672491  0.42331963  0.38758925  1
  Al  Al20  1  0.88355232  0.54090880  0.13670383  1
  Al  Al21  1  0.44390088  0.43184520  0.88990549  1
  Al  Al22  1  0.55496137  0.53978517  0.63553695  1
  Al  Al23  1  0.10423125  0.76912312  0.33166715  1
  Al  Al24  1  0.22944846  0.87659102  0.13538177  1
  Al  Al25  1  0.76933698  0.76028011  0.89186076  1
  Al  Al26  1  0.88967079  0.88084373  0.55817458  1
  Al  Al27  1  0.44577340  0.76320956  0.38263389  1
  Al  Al28  1  0.11009195  0.76151741  0.85162064  1
  Al  Al29  1  0.22505366  0.87248516  0.63447812  1
  Al  Al30  1  0.77101403  0.76502881  0.37240507  1
  Al  Al31  1  0.88237720  0.87692289  0.08016469  1
  Al  Al32  1  0.44837519  0.76297072  0.88910829  1
  Al  Al33  1  0.55820036  0.87288046  0.63183309  1
  B  B34  1  0.77279645  0.09380283  0.30771463  1
  B  B35  1  0.55410617  0.86997619  0.13965153  1
  N  N36  1  0.21919615  0.20636514  0.32544442  1
  N  N37  1  0.10755616  0.09628310  0.07614723  1
  N  N38  1  0.89107703  0.20756337  0.82849458  1
  N  N39  1  0.77645626  0.09090203  0.63121523  1
  N  N40  1  0.58431770  0.19254128  0.36299393  1
  N  N41  1  0.45246130  0.06550896  0.08661235  1
  N  N42  1  0.22545173  0.20334036  0.82642314  1
  N  N43  1  0.11218721  0.09487603  0.57693842  1
  N  N44  1  0.87945626  0.19734510  0.33235805  1
  N  N45  1  0.77256009  0.09088836  0.14788834  1
  N  N46  1  0.55996684  0.20086720  0.88582505  1
  N  N47  1  0.44409918  0.09038728  0.56586175  1
  N  N48  1  0.22281331  0.53473566  0.32753558  1
  N  N49  1  0.11038377  0.42650236  0.07497259  1
  N  N50  1  0.88793309  0.54168327  0.82655971  1
  N  N51  1  0.77806877  0.42873000  0.57689000  1
  N  N52  1  0.55697945  0.54177356  0.32513594  1
  N  N53  1  0.44277690  0.43484293  0.08222631  1
  N  N54  1  0.22589378  0.53374442  0.82678667  1
  N  N55  1  0.11147360  0.42659322  0.57724986  1
  N  N56  1  0.88931487  0.53688154  0.32512746  1
  N  N57  1  0.77798467  0.42543767  0.07636234  1
  N  N58  1  0.55522415  0.54068345  0.82718333  1
  N  N59  1  0.44527192  0.42968130  0.57306623  1
  N  N60  1  0.22584679  0.87665769  0.32559276  1
  N  N61  1  0.11063822  0.76275061  0.11220362  1
  N  N62  1  0.88649022  0.87601678  0.88738961  1
  N  N63  1  0.77562484  0.76035539  0.56554540  1
  N  N64  1  0.55414801  0.87089791  0.30200448  1
  N  N65  1  0.45752726  0.77272553  0.08130717  1
  N  N66  1  0.22690755  0.87319837  0.82932785  1
  N  N67  1  0.11017102  0.76221674  0.60152312  1
  N  N68  1  0.87362494  0.90298276  0.36366645  1
  N  N69  1  0.74869920  0.77017298  0.08614993  1
  N  N70  1  0.55694612  0.87209558  0.82015528  1
  N  N71  1  0.44698416  0.76178859  0.57284911  1
