# generated using pymatgen
data_Al17BN18
_symmetry_space_group_name_H-M   'P 1'
_cell_length_a   9.29732784
_cell_length_b   9.29597241
_cell_length_c   9.95890693
_cell_angle_alpha   89.91181262
_cell_angle_beta   89.97903071
_cell_angle_gamma   59.99994368
_symmetry_Int_Tables_number   1
_chemical_formula_structural   Al17BN18
_chemical_formula_sum   'Al34 B2 N36'
_cell_volume   745.40871936
_cell_formula_units_Z   2
loop_
 _symmetry_equiv_pos_site_id
 _symmetry_equiv_pos_as_xyz
  1  'x, y, z'
loop_
 _atom_site_type_symbol
 _atom_site_label
 _atom_site_symmetry_multiplicity
 _atom_site_fract_x
 _atom_site_fract_y
 _atom_site_fract_z
 _atom_site_occupancy
  Al  Al0  1  0.10698208  0.09281032  0.39606236  1
  Al  Al1  1  0.22553047  0.20089884  0.14639702  1
  Al  Al2  1  0.77747886  0.09432460  0.89168315  1
  Al  Al3  1  0.88752286  0.20421856  0.64146648  1
  Al  Al4  1  0.45144624  0.09044318  0.38912624  1
  Al  Al5  1  0.56247631  0.19784183  0.14719769  1
  Al  Al6  1  0.11046349  0.09482032  0.89581889  1
  Al  Al7  1  0.22411120  0.20414927  0.64507182  1
  Al  Al8  1  0.88624061  0.20281948  0.14716896  1
  Al  Al9  1  0.44745337  0.08943645  0.89986205  1
  Al  Al10  1  0.55744190  0.20322969  0.64098112  1
  Al  Al11  1  0.11103565  0.42750731  0.39681407  1
  Al  Al12  1  0.22209563  0.53867580  0.14709500  1
  Al  Al13  1  0.77808875  0.42719002  0.89583868  1
  Al  Al14  1  0.88735991  0.54088773  0.64483426  1
  Al  Al15  1  0.45075895  0.42315946  0.39562006  1
  Al  Al16  1  0.55723585  0.54260326  0.14604694  1
  Al  Al17  1  0.11108275  0.42793934  0.89544764  1
  Al  Al18  1  0.22240885  0.53914851  0.64521709  1
  Al  Al19  1  0.77631836  0.42340460  0.39606605  1
  Al  Al20  1  0.88420264  0.54220167  0.14636484  1
  Al  Al21  1  0.44452898  0.42694367  0.89607010  1
  Al  Al22  1  0.55501200  0.54013410  0.64575186  1
  Al  Al23  1  0.10671404  0.76722812  0.39542930  1
  Al  Al24  1  0.22606771  0.87386280  0.14601602  1
  Al  Al25  1  0.77270183  0.76413727  0.89964236  1
  Al  Al26  1  0.88650316  0.87421055  0.64085541  1
  Al  Al27  1  0.44594889  0.76229685  0.39011797  1
  Al  Al28  1  0.11035241  0.76125846  0.89579221  1
  Al  Al29  1  0.22347445  0.87173007  0.64557413  1
  Al  Al30  1  0.77404796  0.76797559  0.38885046  1
  Al  Al31  1  0.88143106  0.87896202  0.14667031  1
  Al  Al32  1  0.44719248  0.76393974  0.89961775  1
  Al  Al33  1  0.55580570  0.87252406  0.64376399  1
  B  B34  1  0.77791603  0.09428625  0.39144570  1
  B  B35  1  0.55560532  0.87240737  0.14991059  1
  N  N36  1  0.22213094  0.20493891  0.33673755  1
  N  N37  1  0.10901087  0.09574274  0.08727996  1
  N  N38  1  0.88871436  0.20553098  0.83331860  1
  N  N39  1  0.77759655  0.09439481  0.57106084  1
  N  N40  1  0.58262933  0.19218319  0.34057132  1
  N  N41  1  0.45747488  0.07038069  0.09500292  1
  N  N42  1  0.22465825  0.20413994  0.83800669  1
  N  N43  1  0.11130118  0.09433073  0.58639409  1
  N  N44  1  0.87586874  0.19233060  0.34142313  1
  N  N45  1  0.77798469  0.09486693  0.07962526  1
  N  N46  1  0.55429228  0.20445113  0.83472833  1
  N  N47  1  0.44527585  0.09286011  0.58064957  1
  N  N48  1  0.22264998  0.53912952  0.33787746  1
  N  N49  1  0.11078354  0.42762128  0.08680741  1
  N  N50  1  0.88727390  0.54145330  0.83779094  1
  N  N51  1  0.77743358  0.42810866  0.58639146  1
  N  N52  1  0.55578712  0.53899542  0.33553717  1
  N  N53  1  0.44568959  0.42591973  0.08851937  1
  N  N54  1  0.22239905  0.53913935  0.83653472  1
  N  N55  1  0.11084023  0.42766406  0.58765199  1
  N  N56  1  0.88839671  0.53861955  0.33671319  1
  N  N57  1  0.77899092  0.42573730  0.08730500  1
  N  N58  1  0.55435209  0.54092828  0.83851578  1
  N  N59  1  0.44497136  0.42756573  0.58625672  1
  N  N60  1  0.22255791  0.87232919  0.33552018  1
  N  N61  1  0.10947727  0.76234128  0.08824341  1
  N  N62  1  0.88763851  0.87116179  0.83467910  1
  N  N63  1  0.77596391  0.76222194  0.58044149  1
  N  N64  1  0.55544126  0.87196904  0.31434395  1
  N  N65  1  0.45720130  0.77392886  0.09329908  1
  N  N66  1  0.22419143  0.87121570  0.83832252  1
  N  N67  1  0.11073959  0.76180572  0.58612185  1
  N  N68  1  0.87582452  0.89906689  0.34018519  1
  N  N69  1  0.75368627  0.77416723  0.09479730  1
  N  N70  1  0.55564896  0.87254146  0.83274164  1
  N  N71  1  0.44529146  0.76200629  0.58234570  1
