# generated using pymatgen
data_Al17BN18
_symmetry_space_group_name_H-M   'P 1'
_cell_length_a   9.32359245
_cell_length_b   9.31102109
_cell_length_c   10.04241307
_cell_angle_alpha   89.59442067
_cell_angle_beta   89.94600617
_cell_angle_gamma   59.94271141
_symmetry_Int_Tables_number   1
_chemical_formula_structural   Al17BN18
_chemical_formula_sum   'Al34 B2 N36'
_cell_volume   754.54554849
_cell_formula_units_Z   2
loop_
 _symmetry_equiv_pos_site_id
 _symmetry_equiv_pos_as_xyz
  1  'x, y, z'
loop_
 _atom_site_type_symbol
 _atom_site_label
 _atom_site_symmetry_multiplicity
 _atom_site_fract_x
 _atom_site_fract_y
 _atom_site_fract_z
 _atom_site_occupancy
  Al  Al0  1  0.10521180  0.09285464  0.31290025  1
  Al  Al1  1  0.21917610  0.20260101  0.06968704  1
  Al  Al2  1  0.77756400  0.09394984  0.81640135  1
  Al  Al3  1  0.88672088  0.20333181  0.56036111  1
  Al  Al4  1  0.45069819  0.09010740  0.37845391  1
  Al  Al5  1  0.56247193  0.20059485  0.07772471  1
  Al  Al6  1  0.11114616  0.09459451  0.81429882  1
  Al  Al7  1  0.21502268  0.21046318  0.56307190  1
  Al  Al8  1  0.88689883  0.20457345  0.06833110  1
  Al  Al9  1  0.45295827  0.08076693  0.88181653  1
  Al  Al10  1  0.56461225  0.20836696  0.56102911  1
  Al  Al11  1  0.10972250  0.42949738  0.31174803  1
  Al  Al12  1  0.22185025  0.53976845  0.06200874  1
  Al  Al13  1  0.77843034  0.42693181  0.81314061  1
  Al  Al14  1  0.88912248  0.53991315  0.56045438  1
  Al  Al15  1  0.44887137  0.42498957  0.31286795  1
  Al  Al16  1  0.55782729  0.54329016  0.06310241  1
  Al  Al17  1  0.11263885  0.42594232  0.81448718  1
  Al  Al18  1  0.22248372  0.53873205  0.56485978  1
  Al  Al19  1  0.77614772  0.42428360  0.31307166  1
  Al  Al20  1  0.88095111  0.54426923  0.06325998  1
  Al  Al21  1  0.44648944  0.42431288  0.81533742  1
  Al  Al22  1  0.55533032  0.53964226  0.56099219  1
  Al  Al23  1  0.10742389  0.76553907  0.31266036  1
  Al  Al24  1  0.22609221  0.87404975  0.06343849  1
  Al  Al25  1  0.78442084  0.75920053  0.81000724  1
  Al  Al26  1  0.88735198  0.87766614  0.55750504  1
  Al  Al27  1  0.44554199  0.76311444  0.31644400  1
  Al  Al28  1  0.10970248  0.76246030  0.81378295  1
  Al  Al29  1  0.22148696  0.87204424  0.56113989  1
  Al  Al30  1  0.77164714  0.76930641  0.31630344  1
  Al  Al31  1  0.88140757  0.87685931  0.07038182  1
  Al  Al32  1  0.44237918  0.75826320  0.80974343  1
  Al  Al33  1  0.55442108  0.87624498  0.60992020  1
  B  B34  1  0.77840469  0.09539849  0.31047292  1
  B  B35  1  0.55466177  0.87228667  0.11291592  1
  N  N36  1  0.21368814  0.20831994  0.36870416  1
  N  N37  1  0.10902727  0.09297346  0.12489789  1
  N  N38  1  0.88878821  0.20424857  0.87725949  1
  N  N39  1  0.77942378  0.09368327  0.62837241  1
  N  N40  1  0.58428795  0.19532407  0.36339237  1
  N  N41  1  0.46134400  0.05892638  0.08666200  1
  N  N42  1  0.22053362  0.20551522  0.87761213  1
  N  N43  1  0.10932300  0.09486166  0.62282650  1
  N  N44  1  0.87641451  0.19302598  0.36722412  1
  N  N45  1  0.78006322  0.09390072  0.14636713  1
  N  N46  1  0.56028160  0.20554332  0.88411036  1
  N  N47  1  0.44303665  0.10271807  0.57547131  1
  N  N48  1  0.22276355  0.53816497  0.37376334  1
  N  N49  1  0.10889319  0.43018802  0.12218571  1
  N  N50  1  0.88905286  0.53872815  0.87396881  1
  N  N51  1  0.77888956  0.42658342  0.62101956  1
  N  N52  1  0.55489340  0.53905813  0.37127377  1
  N  N53  1  0.44370779  0.43011585  0.12384431  1
  N  N54  1  0.22298389  0.53847494  0.87232703  1
  N  N55  1  0.10990165  0.42862739  0.62460536  1
  N  N56  1  0.88783812  0.54000595  0.36984186  1
  N  N57  1  0.77768768  0.42734400  0.12396200  1
  N  N58  1  0.55613115  0.53826718  0.87412367  1
  N  N59  1  0.44644981  0.42681285  0.62391719  1
  N  N60  1  0.22200237  0.87125310  0.37127406  1
  N  N61  1  0.11104648  0.76139183  0.12296788  1
  N  N62  1  0.88854290  0.87272867  0.87984284  1
  N  N63  1  0.78867800  0.75822969  0.61823584  1
  N  N64  1  0.55665759  0.86739149  0.36692473  1
  N  N65  1  0.45843946  0.77466391  0.11995310  1
  N  N66  1  0.22309917  0.87137638  0.87441006  1
  N  N67  1  0.10886819  0.76288370  0.62203742  1
  N  N68  1  0.87673510  0.89714914  0.36420676  1
  N  N69  1  0.74846434  0.77546584  0.12066289  1
  N  N70  1  0.55596607  0.87335427  0.81598778  1
  N  N71  1  0.43952814  0.75706385  0.61987066  1
