# generated using pymatgen
data_Al17BN18
_symmetry_space_group_name_H-M   'P 1'
_cell_length_a   9.33102606
_cell_length_b   9.32828501
_cell_length_c   10.04438611
_cell_angle_alpha   89.70768054
_cell_angle_beta   89.84180759
_cell_angle_gamma   59.94812531
_symmetry_Int_Tables_number   1
_chemical_formula_structural   Al17BN18
_chemical_formula_sum   'Al34 B2 N36'
_cell_volume   756.74981118
_cell_formula_units_Z   2
loop_
 _symmetry_equiv_pos_site_id
 _symmetry_equiv_pos_as_xyz
  1  'x, y, z'
loop_
 _atom_site_type_symbol
 _atom_site_label
 _atom_site_symmetry_multiplicity
 _atom_site_fract_x
 _atom_site_fract_y
 _atom_site_fract_z
 _atom_site_occupancy
  Al  Al0  1  0.10538965  0.09283085  0.32247367  1
  Al  Al1  1  0.22003688  0.20200615  0.08063109  1
  Al  Al2  1  0.77697553  0.09371033  0.82696032  1
  Al  Al3  1  0.88645233  0.20309629  0.57063540  1
  Al  Al4  1  0.45110076  0.09078910  0.37954993  1
  Al  Al5  1  0.56133976  0.20165156  0.08842653  1
  Al  Al6  1  0.11020129  0.09527705  0.82394341  1
  Al  Al7  1  0.21691988  0.20782233  0.57086087  1
  Al  Al8  1  0.88701883  0.20401506  0.07722196  1
  Al  Al9  1  0.45079029  0.08257662  0.89922905  1
  Al  Al10  1  0.56446124  0.20601544  0.56865668  1
  Al  Al11  1  0.11195024  0.42809943  0.32073257  1
  Al  Al12  1  0.22283992  0.53943495  0.07207388  1
  Al  Al13  1  0.77868682  0.42679385  0.82349232  1
  Al  Al14  1  0.88985533  0.53570540  0.56912457  1
  Al  Al15  1  0.44923837  0.42615660  0.32285601  1
  Al  Al16  1  0.55631801  0.54391253  0.07199429  1
  Al  Al17  1  0.11088538  0.42701708  0.82471487  1
  Al  Al18  1  0.22178210  0.53868670  0.57479326  1
  Al  Al19  1  0.77583102  0.42224853  0.32225006  1
  Al  Al20  1  0.88549378  0.53679760  0.08098414  1
  Al  Al21  1  0.44600198  0.42356140  0.82477889  1
  Al  Al22  1  0.55519686  0.54018284  0.57244936  1
  Al  Al23  1  0.11005124  0.76572214  0.32260957  1
  Al  Al24  1  0.22723395  0.87292212  0.07197673  1
  Al  Al25  1  0.76853162  0.76608017  0.89619428  1
  Al  Al26  1  0.88824637  0.88037551  0.56697136  1
  Al  Al27  1  0.44290169  0.76036815  0.31815664  1
  Al  Al28  1  0.10728690  0.76256555  0.82410433  1
  Al  Al29  1  0.22287074  0.87204448  0.57253160  1
  Al  Al30  1  0.77479787  0.76808025  0.36929138  1
  Al  Al31  1  0.88534102  0.87812999  0.08822853  1
  Al  Al32  1  0.44098127  0.75745437  0.82213951  1
  Al  Al33  1  0.56011579  0.87627083  0.63927371  1
  B  B34  1  0.78008279  0.09669337  0.31946061  1
  B  B35  1  0.55661326  0.87594325  0.15237858  1
  N  N36  1  0.21479859  0.20769762  0.37737920  1
  N  N37  1  0.10876219  0.09255097  0.13440174  1
  N  N38  1  0.88808054  0.20456227  0.88642473  1
  N  N39  1  0.77819367  0.09385903  0.63870691  1
  N  N40  1  0.58447027  0.19686387  0.37294272  1
  N  N41  1  0.45829020  0.06481779  0.09616679  1
  N  N42  1  0.21949026  0.20593850  0.88655481  1
  N  N43  1  0.10911303  0.09511030  0.63228063  1
  N  N44  1  0.87671012  0.19335980  0.37768133  1
  N  N45  1  0.77930884  0.09623373  0.15696706  1
  N  N46  1  0.55952202  0.20592771  0.89329892  1
  N  N47  1  0.44785432  0.09155467  0.57539658  1
  N  N48  1  0.22253137  0.53889355  0.38400827  1
  N  N49  1  0.11212514  0.42817433  0.13251332  1
  N  N50  1  0.88991929  0.53545996  0.88687338  1
  N  N51  1  0.77869994  0.42603986  0.63162657  1
  N  N52  1  0.55509446  0.54139647  0.38291302  1
  N  N53  1  0.44391682  0.43032068  0.13405873  1
  N  N54  1  0.22226679  0.53878785  0.88198294  1
  N  N55  1  0.10991275  0.42760968  0.63401877  1
  N  N56  1  0.89082254  0.53228660  0.37568230  1
  N  N57  1  0.77597944  0.42540479  0.13425366  1
  N  N58  1  0.55596780  0.53756378  0.88247697  1
  N  N59  1  0.44596921  0.42519654  0.63288779  1
  N  N60  1  0.22443061  0.87189165  0.38306608  1
  N  N61  1  0.11406559  0.76038023  0.13392059  1
  N  N62  1  0.89004921  0.87582341  0.89331493  1
  N  N63  1  0.77406423  0.76508914  0.57491568  1
  N  N64  1  0.55699439  0.87799659  0.31238739  1
  N  N65  1  0.45334417  0.76995596  0.12717231  1
  N  N66  1  0.22131998  0.87220945  0.88248019  1
  N  N67  1  0.10794056  0.76276693  0.63227172  1
  N  N68  1  0.88059270  0.90103733  0.37159022  1
  N  N69  1  0.75052262  0.77408474  0.10093713  1
  N  N70  1  0.55806040  0.87375593  0.82827544  1
  N  N71  1  0.44198620  0.75909323  0.63074939  1
