# generated using pymatgen
data_Al17BN18
_symmetry_space_group_name_H-M   'P 1'
_cell_length_a   9.29940847
_cell_length_b   9.29941016
_cell_length_c   9.93903276
_cell_angle_alpha   90.02511872
_cell_angle_beta   90.02509938
_cell_angle_gamma   60.01363771
_symmetry_Int_Tables_number   1
_chemical_formula_structural   Al17BN18
_chemical_formula_sum   'Al34 B2 N36'
_cell_volume   744.46638286
_cell_formula_units_Z   2
loop_
 _symmetry_equiv_pos_site_id
 _symmetry_equiv_pos_as_xyz
  1  'x, y, z'
loop_
 _atom_site_type_symbol
 _atom_site_label
 _atom_site_symmetry_multiplicity
 _atom_site_fract_x
 _atom_site_fract_y
 _atom_site_fract_z
 _atom_site_occupancy
  Al  Al0  1  0.10783342  0.09268546  0.30669650  1
  Al  Al1  1  0.22590474  0.20005635  0.05653227  1
  Al  Al2  1  0.77770102  0.09436827  0.80795739  1
  Al  Al3  1  0.88598602  0.20265112  0.55211008  1
  Al  Al4  1  0.45218992  0.08743893  0.30203525  1
  Al  Al5  1  0.55942672  0.19934405  0.06282811  1
  Al  Al6  1  0.10930315  0.09520260  0.80618795  1
  Al  Al7  1  0.22398794  0.20475248  0.55674065  1
  Al  Al8  1  0.88755523  0.20422142  0.06264814  1
  Al  Al9  1  0.44671608  0.09250796  0.81355919  1
  Al  Al10  1  0.56026599  0.20175550  0.55259642  1
  Al  Al11  1  0.11131560  0.42798085  0.30565278  1
  Al  Al12  1  0.22242451  0.53909147  0.05581255  1
  Al  Al13  1  0.77853666  0.42596918  0.80618804  1
  Al  Al14  1  0.88808701  0.54065319  0.55674075  1
  Al  Al15  1  0.44937710  0.42451021  0.30626931  1
  Al  Al16  1  0.55721196  0.54237259  0.05595636  1
  Al  Al17  1  0.11091468  0.42758043  0.80658461  1
  Al  Al18  1  0.22215852  0.53882512  0.55634140  1
  Al  Al19  1  0.77601835  0.42450063  0.30669638  1
  Al  Al20  1  0.88339063  0.54257058  0.05653213  1
  Al  Al21  1  0.44579196  0.42580278  0.80675490  1
  Al  Al22  1  0.55494692  0.54044793  0.55684953  1
  Al  Al23  1  0.10784339  0.76604346  0.30626910  1
  Al  Al24  1  0.22570634  0.87387818  0.05595671  1
  Al  Al25  1  0.77584118  0.76338267  0.81355922  1
  Al  Al26  1  0.88508957  0.87693247  0.55259643  1
  Al  Al27  1  0.44727027  0.76393703  0.30208993  1
  Al  Al28  1  0.10913554  0.76245931  0.80675514  1
  Al  Al29  1  0.22378303  0.87161189  0.55684926  1
  Al  Al30  1  0.77077350  0.76885541  0.30203523  1
  Al  Al31  1  0.88267650  0.87609418  0.06282804  1
  Al  Al32  1  0.44573318  0.76240029  0.81304153  1
  Al  Al33  1  0.55577143  0.87243628  0.55857490  1
  B  B34  1  0.77747283  0.09413984  0.30202683  1
  B  B35  1  0.55557815  0.87224450  0.05278193  1
  N  N36  1  0.22510805  0.20400230  0.36371301  1
  N  N37  1  0.11095473  0.09429665  0.11680757  1
  N  N38  1  0.88802835  0.20469463  0.86992432  1
  N  N39  1  0.77754389  0.09421036  0.61890738  1
  N  N40  1  0.57939140  0.19215021  0.35685546  1
  N  N41  1  0.45702776  0.06883637  0.10875449  1
  N  N42  1  0.22190052  0.20514894  0.86562780  1
  N  N43  1  0.10900211  0.09563403  0.61330828  1
  N  N44  1  0.87615835  0.19282531  0.35855634  1
  N  N45  1  0.77789495  0.09456215  0.13758508  1
  N  N46  1  0.55773333  0.20477831  0.87114176  1
  N  N47  1  0.44640639  0.09400215  0.61939411  1
  N  N48  1  0.22263590  0.53930242  0.36500366  1
  N  N49  1  0.11082217  0.42748802  0.11445671  1
  N  N50  1  0.88848277  0.53856686  0.86562765  1
  N  N51  1  0.77896884  0.42566726  0.61330838  1
  N  N52  1  0.55401013  0.54199908  0.36483609  1
  N  N53  1  0.44506717  0.42799927  0.11551860  1
  N  N54  1  0.22244288  0.53911009  0.86443218  1
  N  N55  1  0.11093054  0.42759609  0.61508642  1
  N  N56  1  0.88733667  0.54177374  0.36371302  1
  N  N57  1  0.77763028  0.42762113  0.11680743  1
  N  N58  1  0.55624923  0.53799194  0.86535956  1
  N  N59  1  0.44598073  0.42520841  0.61363355  1
  N  N60  1  0.22533222  0.87067681  0.36483581  1
  N  N61  1  0.11133199  0.76173414  0.11551846  1
  N  N62  1  0.88811090  0.87440064  0.87114169  1
  N  N63  1  0.77733690  0.76307189  0.61939410  1
  N  N64  1  0.55538817  0.87205382  0.37006783  1
  N  N65  1  0.45691637  0.77358265  0.10791254  1
  N  N66  1  0.22132522  0.87291576  0.86535992  1
  N  N67  1  0.10854231  0.76264716  0.61363374  1
  N  N68  1  0.87548351  0.89605807  0.35685550  1
  N  N69  1  0.75217016  0.77369384  0.10875442  1
  N  N70  1  0.55564970  0.87231646  0.88696114  1
  N  N71  1  0.44538926  0.76205457  0.62073448  1
