# generated using pymatgen
data_Al17BN18
_symmetry_space_group_name_H-M   'P 1'
_cell_length_a   9.33513043
_cell_length_b   9.32447374
_cell_length_c   10.03534086
_cell_angle_alpha   89.70829740
_cell_angle_beta   89.91300522
_cell_angle_gamma   59.95202832
_symmetry_Int_Tables_number   1
_chemical_formula_structural   Al17BN18
_chemical_formula_sum   'Al34 B2 N36'
_cell_volume   756.12118281
_cell_formula_units_Z   2
loop_
 _symmetry_equiv_pos_site_id
 _symmetry_equiv_pos_as_xyz
  1  'x, y, z'
loop_
 _atom_site_type_symbol
 _atom_site_label
 _atom_site_symmetry_multiplicity
 _atom_site_fract_x
 _atom_site_fract_y
 _atom_site_fract_z
 _atom_site_occupancy
  Al  Al0  1  0.10524440  0.09292469  0.32260112  1
  Al  Al1  1  0.21960349  0.20260565  0.08124788  1
  Al  Al2  1  0.77660968  0.09459414  0.82648231  1
  Al  Al3  1  0.88656674  0.20288947  0.57067552  1
  Al  Al4  1  0.45039129  0.09174529  0.38106203  1
  Al  Al5  1  0.56166642  0.20168212  0.08892543  1
  Al  Al6  1  0.11040656  0.09523116  0.82410992  1
  Al  Al7  1  0.21654271  0.20813826  0.57114434  1
  Al  Al8  1  0.88704332  0.20440513  0.07775460  1
  Al  Al9  1  0.45147338  0.08158654  0.90097826  1
  Al  Al10  1  0.56496218  0.20596363  0.56899115  1
  Al  Al11  1  0.11100490  0.42887549  0.32142376  1
  Al  Al12  1  0.22254950  0.53960173  0.07240128  1
  Al  Al13  1  0.77834890  0.42616396  0.82302438  1
  Al  Al14  1  0.88840977  0.53935258  0.56994597  1
  Al  Al15  1  0.44914153  0.42611883  0.32294739  1
  Al  Al16  1  0.55666975  0.54399761  0.07223526  1
  Al  Al17  1  0.11223906  0.42568495  0.82439909  1
  Al  Al18  1  0.22173575  0.53868684  0.57494988  1
  Al  Al19  1  0.77583865  0.42315648  0.32277721  1
  Al  Al20  1  0.88366605  0.54070383  0.07835663  1
  Al  Al21  1  0.44592173  0.42331566  0.82488945  1
  Al  Al22  1  0.55547061  0.53993514  0.57262017  1
  Al  Al23  1  0.10942658  0.76579840  0.32304294  1
  Al  Al24  1  0.22708019  0.87301492  0.07239941  1
  Al  Al25  1  0.77883209  0.76124513  0.85456944  1
  Al  Al26  1  0.88646432  0.87789682  0.56710790  1
  Al  Al27  1  0.44167644  0.76019731  0.31955822  1
  Al  Al28  1  0.10827726  0.76244067  0.82345920  1
  Al  Al29  1  0.22231154  0.87204847  0.57263755  1
  Al  Al30  1  0.77940482  0.76608480  0.32915807  1
  Al  Al31  1  0.88445133  0.87710495  0.08522384  1
  Al  Al32  1  0.44046634  0.75725629  0.82280572  1
  Al  Al33  1  0.55724034  0.87746164  0.63969175  1
  B  B34  1  0.77938599  0.09679936  0.31964798  1
  B  B35  1  0.55304624  0.87768347  0.15530322  1
  N  N36  1  0.21380053  0.20851574  0.37766591  1
  N  N37  1  0.10889479  0.09259376  0.13454107  1
  N  N38  1  0.88828927  0.20435004  0.88668532  1
  N  N39  1  0.77868931  0.09355054  0.63834857  1
  N  N40  1  0.58444014  0.19684964  0.37284969  1
  N  N41  1  0.45879048  0.06450272  0.09739185  1
  N  N42  1  0.21984264  0.20563912  0.88727913  1
  N  N43  1  0.10928504  0.09503097  0.63247848  1
  N  N44  1  0.87666488  0.19324045  0.37748829  1
  N  N45  1  0.77989075  0.09546918  0.15675444  1
  N  N46  1  0.55966499  0.20553936  0.89364533  1
  N  N47  1  0.44770338  0.09219867  0.57588456  1
  N  N48  1  0.22275337  0.53873494  0.38390984  1
  N  N49  1  0.11090212  0.42911298  0.13268624  1
  N  N50  1  0.88994560  0.53536733  0.88683285  1
  N  N51  1  0.77903553  0.42582531  0.63125151  1
  N  N52  1  0.55508205  0.54100587  0.38295918  1
  N  N53  1  0.44392126  0.43054654  0.13401866  1
  N  N54  1  0.22212549  0.53879693  0.88206314  1
  N  N55  1  0.11042988  0.42704615  0.63397007  1
  N  N56  1  0.88858387  0.53715507  0.37815005  1
  N  N57  1  0.77659794  0.42638045  0.13417577  1
  N  N58  1  0.55604014  0.53712278  0.88259089  1
  N  N59  1  0.44607887  0.42513030  0.63299891  1
  N  N60  1  0.22325274  0.87205651  0.38311808  1
  N  N61  1  0.11330696  0.76086455  0.13379562  1
  N  N62  1  0.88944970  0.87536990  0.89282721  1
  N  N63  1  0.78124501  0.76124540  0.61022388  1
  N  N64  1  0.55135882  0.88013789  0.31698805  1
  N  N65  1  0.45380583  0.77029470  0.12778507  1
  N  N66  1  0.22095926  0.87216134  0.88284620  1
  N  N67  1  0.10830960  0.76284563  0.63190311  1
  N  N68  1  0.87864776  0.89903225  0.37315536  1
  N  N69  1  0.75748127  0.77134020  0.12499883  1
  N  N70  1  0.55466155  0.87432317  0.83120877  1
  N  N71  1  0.44149036  0.75896508  0.63070992  1
