# generated using pymatgen
data_Al17BN18
_symmetry_space_group_name_H-M   'P 1'
_cell_length_a   9.31433228
_cell_length_b   9.30795972
_cell_length_c   9.98341274
_cell_angle_alpha   89.76642515
_cell_angle_beta   89.94599794
_cell_angle_gamma   59.97339852
_symmetry_Int_Tables_number   1
_chemical_formula_structural   Al17BN18
_chemical_formula_sum   'Al34 B2 N36'
_cell_volume   749.36852055
_cell_formula_units_Z   2
loop_
 _symmetry_equiv_pos_site_id
 _symmetry_equiv_pos_as_xyz
  1  'x, y, z'
loop_
 _atom_site_type_symbol
 _atom_site_label
 _atom_site_symmetry_multiplicity
 _atom_site_fract_x
 _atom_site_fract_y
 _atom_site_fract_z
 _atom_site_occupancy
  Al  Al0  1  0.10703471  0.09211193  0.39625449  1
  Al  Al1  1  0.22549987  0.20135635  0.14717382  1
  Al  Al2  1  0.77643426  0.09620312  0.87795599  1
  Al  Al3  1  0.88893479  0.20591824  0.64871563  1
  Al  Al4  1  0.45241413  0.08952639  0.38920803  1
  Al  Al5  1  0.56204038  0.19787752  0.14160310  1
  Al  Al6  1  0.11188325  0.09486772  0.89758704  1
  Al  Al7  1  0.22402584  0.20395438  0.64533214  1
  Al  Al8  1  0.88656808  0.20326053  0.14156424  1
  Al  Al9  1  0.44586919  0.08928667  0.90133759  1
  Al  Al10  1  0.55394574  0.20493014  0.64836737  1
  Al  Al11  1  0.11119496  0.42738301  0.39761803  1
  Al  Al12  1  0.22252329  0.53826125  0.14811836  1
  Al  Al13  1  0.77801042  0.42839675  0.89783555  1
  Al  Al14  1  0.88715489  0.54063931  0.64426929  1
  Al  Al15  1  0.45210355  0.42243922  0.39608864  1
  Al  Al16  1  0.55692741  0.54315396  0.14690297  1
  Al  Al17  1  0.11090451  0.42804696  0.89495271  1
  Al  Al18  1  0.22253208  0.53897441  0.64493087  1
  Al  Al19  1  0.77577701  0.42296405  0.39631361  1
  Al  Al20  1  0.88441356  0.54207400  0.14713341  1
  Al  Al21  1  0.44314829  0.42806705  0.89828029  1
  Al  Al22  1  0.55542978  0.53904507  0.64614978  1
  Al  Al23  1  0.10665299  0.76804077  0.39409137  1
  Al  Al24  1  0.22728703  0.87385833  0.14697952  1
  Al  Al25  1  0.77106198  0.76139246  0.89880119  1
  Al  Al26  1  0.88687560  0.87290143  0.64262586  1
  Al  Al27  1  0.44638031  0.76185771  0.39116896  1
  Al  Al28  1  0.11397174  0.75886907  0.89571736  1
  Al  Al29  1  0.22280778  0.87228442  0.64530205  1
  Al  Al30  1  0.77374272  0.76911543  0.38678170  1
  Al  Al31  1  0.88212725  0.87770002  0.12494660  1
  Al  Al32  1  0.44681269  0.76379953  0.89937045  1
  Al  Al33  1  0.55564113  0.87299969  0.64331402  1
  B  B34  1  0.77949129  0.09196688  0.35615216  1
  B  B35  1  0.55460482  0.87222558  0.15002571  1
  N  N36  1  0.22227524  0.20506668  0.33714058  1
  N  N37  1  0.11056817  0.09528695  0.08863316  1
  N  N38  1  0.89262839  0.20956171  0.83930560  1
  N  N39  1  0.77650055  0.09585564  0.61875523  1
  N  N40  1  0.58670355  0.18975371  0.33695078  1
  N  N41  1  0.45690921  0.06967629  0.09586324  1
  N  N42  1  0.22451920  0.20407245  0.83810564  1
  N  N43  1  0.11044036  0.09523826  0.58587113  1
  N  N44  1  0.87444947  0.19014715  0.33780042  1
  N  N45  1  0.77637258  0.09849585  0.07336641  1
  N  N46  1  0.54633058  0.20824757  0.84096048  1
  N  N47  1  0.44505492  0.09381620  0.58019221  1
  N  N48  1  0.22311419  0.53857085  0.33837758  1
  N  N49  1  0.11062566  0.42827623  0.08674510  1
  N  N50  1  0.88708075  0.54067879  0.83685431  1
  N  N51  1  0.77779250  0.42758899  0.58584463  1
  N  N52  1  0.55586408  0.53892753  0.33605081  1
  N  N53  1  0.44513293  0.42737314  0.09017240  1
  N  N54  1  0.22292654  0.53858204  0.83591257  1
  N  N55  1  0.11076542  0.42768316  0.58788535  1
  N  N56  1  0.88872200  0.53827557  0.33695019  1
  N  N57  1  0.77820832  0.42757922  0.08879457  1
  N  N58  1  0.55438081  0.54050236  0.83915543  1
  N  N59  1  0.44487381  0.42709978  0.58592895  1
  N  N60  1  0.22334898  0.87230739  0.33593868  1
  N  N61  1  0.11426845  0.76071476  0.08801890  1
  N  N62  1  0.89050956  0.86469675  0.84622766  1
  N  N63  1  0.77588167  0.76220690  0.57913072  1
  N  N64  1  0.55508836  0.87173553  0.31429951  1
  N  N65  1  0.45698900  0.77408012  0.09339393  1
  N  N66  1  0.22423753  0.87178706  0.83783307  1
  N  N67  1  0.11053211  0.76180086  0.58520164  1
  N  N68  1  0.87451869  0.90233432  0.33785134  1
  N  N69  1  0.75164972  0.77280595  0.09388146  1
  N  N70  1  0.55443625  0.87301024  0.83220018  1
  N  N71  1  0.44527811  0.76181036  0.58274429  1
