# generated using pymatgen
data_Al17BN18
_symmetry_space_group_name_H-M   'P 1'
_cell_length_a   9.31429017
_cell_length_b   9.31429716
_cell_length_c   10.12662341
_cell_angle_alpha   89.63121604
_cell_angle_beta   89.62852821
_cell_angle_gamma   60.06774817
_symmetry_Int_Tables_number   1
_chemical_formula_structural   Al17BN18
_chemical_formula_sum   'Al34 B2 N36'
_cell_volume   761.34084612
_cell_formula_units_Z   2
loop_
 _symmetry_equiv_pos_site_id
 _symmetry_equiv_pos_as_xyz
  1  'x, y, z'
loop_
 _atom_site_type_symbol
 _atom_site_label
 _atom_site_symmetry_multiplicity
 _atom_site_fract_x
 _atom_site_fract_y
 _atom_site_fract_z
 _atom_site_occupancy
  Al  Al0  1  0.10794791  0.09153137  0.38616085  1
  Al  Al1  1  0.22575802  0.20135969  0.13868202  1
  Al  Al2  1  0.77501665  0.09169000  0.82153136  1
  Al  Al3  1  0.88956160  0.20623599  0.62056190  1
  Al  Al4  1  0.44917738  0.08800192  0.37462261  1
  Al  Al5  1  0.56030774  0.20114299  0.07904858  1
  Al  Al6  1  0.11142714  0.09274595  0.88858629  1
  Al  Al7  1  0.22610697  0.20448173  0.63652055  1
  Al  Al8  1  0.88916958  0.20584372  0.12994120  1
  Al  Al9  1  0.44476409  0.08570909  0.89329637  1
  Al  Al10  1  0.56372603  0.20555725  0.56061707  1
  Al  Al11  1  0.10783621  0.42451111  0.38807009  1
  Al  Al12  1  0.22491232  0.54158227  0.06742016  1
  Al  Al13  1  0.77607032  0.42810216  0.88858647  1
  Al  Al14  1  0.88780781  0.54278065  0.63652136  1
  Al  Al15  1  0.44659853  0.42147054  0.31754484  1
  Al  Al16  1  0.55867578  0.54753046  0.13821909  1
  Al  Al17  1  0.10746092  0.42413612  0.88598148  1
  Al  Al18  1  0.22537512  0.54204706  0.56922046  1
  Al  Al19  1  0.77485718  0.42462075  0.38616088  1
  Al  Al20  1  0.88468727  0.54242979  0.13868171  1
  Al  Al21  1  0.44320150  0.42148356  0.82003942  1
  Al  Al22  1  0.55795000  0.54362611  0.63763130  1
  Al  Al23  1  0.10479724  0.76327115  0.31754444  1
  Al  Al24  1  0.23085576  0.87535053  0.13821877  1
  Al  Al25  1  0.76903294  0.76144007  0.89329674  1
  Al  Al26  1  0.88888528  0.88039677  0.56061760  1
  Al  Al27  1  0.44558485  0.76225994  0.38351739  1
  Al  Al28  1  0.10481042  0.75987486  0.82004010  1
  Al  Al29  1  0.22695029  0.87462551  0.63763128  1
  Al  Al30  1  0.77132844  0.76584960  0.37462328  1
  Al  Al31  1  0.88447177  0.87697876  0.07904900  1
  Al  Al32  1  0.44636413  0.76303967  0.89055289  1
  Al  Al33  1  0.55775417  0.87442870  0.63387444  1
  B  B34  1  0.77804606  0.09472060  0.31245743  1
  B  B35  1  0.55531332  0.87198320  0.14039706  1
  N  N36  1  0.22160794  0.20588603  0.32546758  1
  N  N37  1  0.11215712  0.09349691  0.07753829  1
  N  N38  1  0.88995617  0.20662777  0.84006766  1
  N  N39  1  0.77414966  0.09082597  0.63328798  1
  N  N40  1  0.58465424  0.19466725  0.36918223  1
  N  N41  1  0.45490093  0.06550208  0.08675182  1
  N  N42  1  0.22637240  0.20317106  0.82654633  1
  N  N43  1  0.11337017  0.09339175  0.57510141  1
  N  N44  1  0.87889829  0.19556866  0.33861445  1
  N  N45  1  0.77383205  0.09050661  0.15096514  1
  N  N46  1  0.55865958  0.20597631  0.88862652  1
  N  N47  1  0.44325632  0.09141203  0.56690184  1
  N  N48  1  0.22534573  0.54202244  0.37944306  1
  N  N49  1  0.10730459  0.42397317  0.07696409  1
  N  N50  1  0.88649909  0.54304425  0.82654723  1
  N  N51  1  0.77672043  0.43004156  0.57510147  1
  N  N52  1  0.55759687  0.54300855  0.32715575  1
  N  N53  1  0.44201641  0.42560415  0.12882213  1
  N  N54  1  0.22451911  0.54119616  0.87785872  1
  N  N55  1  0.10802919  0.42469939  0.57880145  1
  N  N56  1  0.88921493  0.53827802  0.32546714  1
  N  N57  1  0.77682585  0.42882782  0.07753823  1
  N  N58  1  0.55647097  0.54358871  0.82891513  1
  N  N59  1  0.44451117  0.42165465  0.62840286  1
  N  N60  1  0.22633767  0.87426725  0.32715531  1
  N  N61  1  0.10892969  0.75869077  0.12882157  1
  N  N62  1  0.88929850  0.87533782  0.88862689  1
  N  N63  1  0.77474260  0.75992539  0.56690233  1
  N  N64  1  0.55484367  0.87151455  0.30284159  1
  N  N65  1  0.45652329  0.77319408  0.08165588  1
  N  N66  1  0.22691710  0.87314284  0.82891488  1
  N  N67  1  0.10497844  0.76118708  0.62840354  1
  N  N68  1  0.87799061  0.90132881  0.36918221  1
  N  N69  1  0.74883188  0.77156986  0.08675177  1
  N  N70  1  0.55647645  0.87314791  0.82128331  1
  N  N71  1  0.44576718  0.76243893  0.57266519  1
