# generated using pymatgen
data_Al17BN18
_symmetry_space_group_name_H-M   'P 1'
_cell_length_a   9.32399032
_cell_length_b   9.31048127
_cell_length_c   10.04689321
_cell_angle_alpha   89.59385792
_cell_angle_beta   89.94714439
_cell_angle_gamma   59.93944486
_symmetry_Int_Tables_number   1
_chemical_formula_structural   Al17BN18
_chemical_formula_sum   'Al34 B2 N36'
_cell_volume   754.84558880
_cell_formula_units_Z   2
loop_
 _symmetry_equiv_pos_site_id
 _symmetry_equiv_pos_as_xyz
  1  'x, y, z'
loop_
 _atom_site_type_symbol
 _atom_site_label
 _atom_site_symmetry_multiplicity
 _atom_site_fract_x
 _atom_site_fract_y
 _atom_site_fract_z
 _atom_site_occupancy
  Al  Al0  1  0.10714072  0.09280509  0.39598827  1
  Al  Al1  1  0.22601208  0.20103865  0.14672630  1
  Al  Al2  1  0.77948283  0.08921133  0.84398230  1
  Al  Al3  1  0.89115561  0.20877441  0.64901563  1
  Al  Al4  1  0.45189785  0.08999272  0.38905911  1
  Al  Al5  1  0.56049086  0.19780094  0.14401349  1
  Al  Al6  1  0.11182845  0.09459377  0.89817188  1
  Al  Al7  1  0.22360629  0.20431373  0.64560698  1
  Al  Al8  1  0.88869400  0.20406459  0.14393687  1
  Al  Al9  1  0.44609666  0.08899443  0.90183529  1
  Al  Al10  1  0.54839301  0.20784351  0.64868894  1
  Al  Al11  1  0.11151316  0.42691677  0.39727573  1
  Al  Al12  1  0.22381019  0.53701666  0.14763785  1
  Al  Al13  1  0.77795125  0.42700486  0.89825954  1
  Al  Al14  1  0.88682443  0.54270982  0.64397564  1
  Al  Al15  1  0.45242090  0.42227875  0.39617174  1
  Al  Al16  1  0.55728216  0.54226388  0.14631872  1
  Al  Al17  1  0.11086875  0.42799355  0.89454529  1
  Al  Al18  1  0.22043053  0.54107925  0.64482508  1
  Al  Al19  1  0.77564994  0.42327554  0.39634979  1
  Al  Al20  1  0.88449542  0.54156029  0.14651843  1
  Al  Al21  1  0.44435616  0.42674812  0.89878799  1
  Al  Al22  1  0.55482289  0.53996507  0.64624096  1
  Al  Al23  1  0.11422361  0.76400526  0.38933121  1
  Al  Al24  1  0.22818104  0.87380076  0.14649286  1
  Al  Al25  1  0.76863488  0.75850305  0.89872249  1
  Al  Al26  1  0.88010183  0.88649995  0.57528964  1
  Al  Al27  1  0.44646013  0.76212307  0.39096470  1
  Al  Al28  1  0.11829609  0.75639310  0.89664061  1
  Al  Al29  1  0.22219537  0.87203334  0.64499477  1
  Al  Al30  1  0.77092784  0.76602068  0.38127919  1
  Al  Al31  1  0.88283859  0.87628167  0.08178721  1
  Al  Al32  1  0.44663160  0.76337927  0.89901133  1
  Al  Al33  1  0.55585508  0.87267816  0.64292054  1
  B  B34  1  0.77889791  0.09406410  0.34094379  1
  B  B35  1  0.55494516  0.87118559  0.14887386  1
  N  N36  1  0.22232568  0.20526444  0.33636981  1
  N  N37  1  0.11155963  0.09535506  0.08782101  1
  N  N38  1  0.89345296  0.20921833  0.83954045  1
  N  N39  1  0.77739931  0.09328034  0.64301643  1
  N  N40  1  0.58351199  0.19193310  0.33895094  1
  N  N41  1  0.45655763  0.06947119  0.09490875  1
  N  N42  1  0.22446012  0.20387862  0.83727822  1
  N  N43  1  0.11039049  0.09529632  0.58506523  1
  N  N44  1  0.87556668  0.19274816  0.33963719  1
  N  N45  1  0.77793730  0.09708941  0.10261093  1
  N  N46  1  0.54540558  0.20810020  0.84115392  1
  N  N47  1  0.44466980  0.09393366  0.57964000  1
  N  N48  1  0.22455442  0.53640804  0.33711020  1
  N  N49  1  0.11063346  0.42846019  0.08556813  1
  N  N50  1  0.88689950  0.54006858  0.83543431  1
  N  N51  1  0.77710505  0.42873978  0.58538120  1
  N  N52  1  0.55570404  0.53928045  0.33539265  1
  N  N53  1  0.44567044  0.42651406  0.08922388  1
  N  N54  1  0.22329796  0.53824031  0.83472663  1
  N  N55  1  0.11033571  0.42828482  0.58697803  1
  N  N56  1  0.88965638  0.53648454  0.33545351  1
  N  N57  1  0.77847672  0.42751578  0.08780125  1
  N  N58  1  0.55444409  0.54017159  0.83825550  1
  N  N59  1  0.44410406  0.42828353  0.58551490  1
  N  N60  1  0.22432186  0.87380170  0.33441296  1
  N  N61  1  0.11999314  0.75805887  0.09066594  1
  N  N62  1  0.88968816  0.86529221  0.88542087  1
  N  N63  1  0.77301488  0.76135970  0.57507067  1
  N  N64  1  0.55321558  0.87285924  0.31289634  1
  N  N65  1  0.45696360  0.77356867  0.09209072  1
  N  N66  1  0.22398701  0.87181476  0.83645908  1
  N  N67  1  0.11260648  0.76140485  0.58157389  1
  N  N68  1  0.87219712  0.90739339  0.37249694  1
  N  N69  1  0.74910083  0.77106602  0.09598528  1
  N  N70  1  0.55402927  0.87299047  0.83094614  1
  N  N71  1  0.44452223  0.76252501  0.58204338  1
