# generated using pymatgen
data_Al17BN18
_symmetry_space_group_name_H-M   'P 1'
_cell_length_a   9.32258727
_cell_length_b   9.32146427
_cell_length_c   10.11829945
_cell_angle_alpha   89.60409452
_cell_angle_beta   89.60310818
_cell_angle_gamma   60.01946520
_symmetry_Int_Tables_number   1
_chemical_formula_structural   Al17BN18
_chemical_formula_sum   'Al34 B2 N36'
_cell_volume   761.60545552
_cell_formula_units_Z   2
loop_
 _symmetry_equiv_pos_site_id
 _symmetry_equiv_pos_as_xyz
  1  'x, y, z'
loop_
 _atom_site_type_symbol
 _atom_site_label
 _atom_site_symmetry_multiplicity
 _atom_site_fract_x
 _atom_site_fract_y
 _atom_site_fract_z
 _atom_site_occupancy
  Al  Al0  1  0.10367347  0.08999022  0.32142380  1
  Al  Al1  1  0.23069446  0.20094284  0.14280268  1
  Al  Al2  1  0.77473498  0.09238631  0.82620977  1
  Al  Al3  1  0.88676683  0.20217652  0.56864004  1
  Al  Al4  1  0.44925662  0.09008104  0.38197641  1
  Al  Al5  1  0.56219305  0.20137371  0.08449922  1
  Al  Al6  1  0.10540129  0.09183553  0.82213146  1
  Al  Al7  1  0.22755017  0.20722170  0.64048931  1
  Al  Al8  1  0.88795839  0.20438917  0.07539121  1
  Al  Al9  1  0.44400687  0.08451603  0.89917206  1
  Al  Al10  1  0.56378163  0.20583719  0.56683857  1
  Al  Al11  1  0.11321103  0.42328378  0.38638312  1
  Al  Al12  1  0.22719600  0.54233053  0.07268760  1
  Al  Al13  1  0.77656998  0.42576300  0.82229760  1
  Al  Al14  1  0.88610031  0.54118117  0.60880128  1
  Al  Al15  1  0.45083686  0.42519997  0.32072597  1
  Al  Al16  1  0.55770431  0.54374955  0.06914500  1
  Al  Al17  1  0.10784343  0.42405074  0.89329625  1
  Al  Al18  1  0.22497883  0.54275322  0.57285662  1
  Al  Al19  1  0.77389169  0.42054307  0.32092760  1
  Al  Al20  1  0.88597934  0.54318366  0.13212521  1
  Al  Al21  1  0.44487859  0.42351084  0.82349547  1
  Al  Al22  1  0.55385504  0.54027481  0.57028507  1
  Al  Al23  1  0.11023237  0.76605151  0.32047071  1
  Al  Al24  1  0.22757082  0.87434529  0.06970470  1
  Al  Al25  1  0.76692981  0.76198556  0.90089598  1
  Al  Al26  1  0.88874579  0.88115685  0.56536758  1
  Al  Al27  1  0.44409330  0.76046056  0.31584393  1
  Al  Al28  1  0.10564394  0.76176811  0.82342876  1
  Al  Al29  1  0.22274456  0.87348950  0.57054037  1
  Al  Al30  1  0.77360792  0.76835460  0.37481489  1
  Al  Al31  1  0.88528939  0.87934156  0.08561149  1
  Al  Al32  1  0.44092186  0.75746258  0.82050923  1
  Al  Al33  1  0.55912276  0.87666629  0.63899590  1
  B  B34  1  0.77903577  0.09582591  0.31885266  1
  B  B35  1  0.55732435  0.87546134  0.14957528  1
  N  N36  1  0.22634453  0.20506852  0.33088927  1
  N  N37  1  0.10798330  0.09137010  0.13151039  1
  N  N38  1  0.88619414  0.20451378  0.88595505  1
  N  N39  1  0.77639870  0.09321570  0.63832771  1
  N  N40  1  0.58497717  0.19600402  0.37358446  1
  N  N41  1  0.45661290  0.06465695  0.09075716  1
  N  N42  1  0.22736597  0.20531863  0.83205786  1
  N  N43  1  0.10619371  0.09348754  0.63008140  1
  N  N44  1  0.87704766  0.19380706  0.37736465  1
  N  N45  1  0.77854078  0.09611572  0.15667927  1
  N  N46  1  0.55736261  0.20620623  0.89244234  1
  N  N47  1  0.44328336  0.09205499  0.57195197  1
  N  N48  1  0.22765307  0.54300900  0.38134728  1
  N  N49  1  0.11301881  0.42287305  0.08548248  1
  N  N50  1  0.88603232  0.54199462  0.85140485  1
  N  N51  1  0.77510531  0.42343851  0.62890496  1
  N  N52  1  0.55530469  0.54202575  0.38238593  1
  N  N53  1  0.44621827  0.42885933  0.13371554  1
  N  N54  1  0.22468216  0.54161025  0.88158296  1
  N  N55  1  0.11037564  0.42398946  0.57854820  1
  N  N56  1  0.89076949  0.53934499  0.33697851  1
  N  N57  1  0.77417254  0.42397555  0.13237963  1
  N  N58  1  0.55484601  0.53787014  0.88126591  1
  N  N59  1  0.44555289  0.42413571  0.63275706  1
  N  N60  1  0.22568115  0.87170000  0.38241433  1
  N  N61  1  0.11327337  0.76168342  0.13359830  1
  N  N62  1  0.88872887  0.87550375  0.89339742  1
  N  N63  1  0.77185699  0.76396381  0.56710348  1
  N  N64  1  0.55907109  0.87865662  0.30914296  1
  N  N65  1  0.45361706  0.76966059  0.12617632  1
  N  N66  1  0.22117805  0.87173285  0.88189126  1
  N  N67  1  0.10666813  0.76351834  0.63232000  1
  N  N68  1  0.88077409  0.90174852  0.37183005  1
  N  N69  1  0.74830681  0.77497174  0.09465310  1
  N  N70  1  0.55795714  0.87493481  0.82632641  1
  N  N71  1  0.44151192  0.75876275  0.63006708  1
