# generated using pymatgen
data_Al17BN18
_symmetry_space_group_name_H-M   'P 1'
_cell_length_a   9.32423363
_cell_length_b   9.33717667
_cell_length_c   10.07840713
_cell_angle_alpha   89.70548113
_cell_angle_beta   89.62712836
_cell_angle_gamma   59.95327480
_symmetry_Int_Tables_number   1
_chemical_formula_structural   Al17BN18
_chemical_formula_sum   'Al34 B2 N36'
_cell_volume   759.51500272
_cell_formula_units_Z   2
loop_
 _symmetry_equiv_pos_site_id
 _symmetry_equiv_pos_as_xyz
  1  'x, y, z'
loop_
 _atom_site_type_symbol
 _atom_site_label
 _atom_site_symmetry_multiplicity
 _atom_site_fract_x
 _atom_site_fract_y
 _atom_site_fract_z
 _atom_site_occupancy
  Al  Al0  1  0.10363069  0.08981306  0.32369938  1
  Al  Al1  1  0.23130872  0.19633880  0.13843980  1
  Al  Al2  1  0.77479213  0.09383191  0.82690323  1
  Al  Al3  1  0.88539156  0.20366877  0.56966864  1
  Al  Al4  1  0.44955751  0.09010401  0.38066268  1
  Al  Al5  1  0.56203563  0.20170252  0.08617387  1
  Al  Al6  1  0.10668545  0.09269288  0.82406813  1
  Al  Al7  1  0.22734641  0.20341857  0.62992093  1
  Al  Al8  1  0.88755179  0.20352846  0.07649641  1
  Al  Al9  1  0.44310988  0.08595040  0.90060553  1
  Al  Al10  1  0.56375460  0.20640534  0.56700798  1
  Al  Al11  1  0.11061004  0.43293236  0.32182759  1
  Al  Al12  1  0.22309264  0.53985365  0.07112415  1
  Al  Al13  1  0.77821356  0.42701081  0.82311867  1
  Al  Al14  1  0.88998063  0.53437198  0.56859028  1
  Al  Al15  1  0.44995930  0.42555063  0.32219521  1
  Al  Al16  1  0.55661995  0.54333590  0.07133410  1
  Al  Al17  1  0.10731701  0.43357951  0.82516901  1
  Al  Al18  1  0.22151269  0.54039779  0.57352329  1
  Al  Al19  1  0.77616237  0.42218813  0.32133314  1
  Al  Al20  1  0.88631096  0.53544816  0.07902267  1
  Al  Al21  1  0.44567289  0.42349947  0.82427642  1
  Al  Al22  1  0.55498795  0.54014059  0.57190499  1
  Al  Al23  1  0.11015645  0.76591916  0.32156071  1
  Al  Al24  1  0.22775352  0.87263613  0.07079799  1
  Al  Al25  1  0.76489026  0.76852391  0.89939249  1
  Al  Al26  1  0.88909819  0.88137864  0.56758549  1
  Al  Al27  1  0.44461495  0.75986379  0.31687571  1
  Al  Al28  1  0.10667548  0.76315407  0.82389196  1
  Al  Al29  1  0.22343565  0.87178470  0.57122362  1
  Al  Al30  1  0.77365400  0.76880549  0.37731056  1
  Al  Al31  1  0.88546931  0.87786466  0.08786782  1
  Al  Al32  1  0.44126300  0.75777677  0.82153827  1
  Al  Al33  1  0.56047043  0.87610929  0.63968558  1
  B  B34  1  0.77893247  0.09666343  0.31938514  1
  B  B35  1  0.56025918  0.87283001  0.15080886  1
  N  N36  1  0.22499402  0.20282544  0.33758463  1
  N  N37  1  0.10753164  0.09013311  0.13230870  1
  N  N38  1  0.88605438  0.20514657  0.88640664  1
  N  N39  1  0.77623717  0.09467113  0.63881728  1
  N  N40  1  0.58446048  0.19631616  0.37309721  1
  N  N41  1  0.45857908  0.06399907  0.09327930  1
  N  N42  1  0.22648770  0.20293488  0.84090744  1
  N  N43  1  0.10594129  0.09308637  0.62941961  1
  N  N44  1  0.87571478  0.19409921  0.37755865  1
  N  N45  1  0.77884307  0.09584522  0.15700038  1
  N  N46  1  0.55734704  0.20652580  0.89332624  1
  N  N47  1  0.44526021  0.09135941  0.57166161  1
  N  N48  1  0.22306209  0.54026323  0.38386862  1
  N  N49  1  0.11066294  0.43184511  0.13030265  1
  N  N50  1  0.88787301  0.53685524  0.88629122  1
  N  N51  1  0.77811489  0.42606827  0.63180179  1
  N  N52  1  0.55536008  0.54130412  0.38265027  1
  N  N53  1  0.44411102  0.42971953  0.13391640  1
  N  N54  1  0.22204788  0.54030544  0.88203520  1
  N  N55  1  0.10673838  0.43458332  0.63208551  1
  N  N56  1  0.89067356  0.53174549  0.37651958  1
  N  N57  1  0.77628080  0.42496170  0.13390153  1
  N  N58  1  0.55527027  0.53800855  0.88217237  1
  N  N59  1  0.44532918  0.42502589  0.63248630  1
  N  N60  1  0.22592305  0.87033965  0.38270740  1
  N  N61  1  0.11417440  0.76037691  0.13358472  1
  N  N62  1  0.88930763  0.87632698  0.89314265  1
  N  N63  1  0.77330866  0.76580423  0.57263080  1
  N  N64  1  0.56049770  0.87654530  0.31065427  1
  N  N65  1  0.45399389  0.76926825  0.12668586  1
  N  N66  1  0.22145780  0.87155053  0.88233211  1
  N  N67  1  0.10803914  0.76342286  0.63252615  1
  N  N68  1  0.88094124  0.90123788  0.37234305  1
  N  N69  1  0.74883326  0.77426569  0.09573520  1
  N  N70  1  0.55700195  0.87579256  0.82742997  1
  N  N71  1  0.44225920  0.75909879  0.63051782  1
