# generated using pymatgen
data_Al17BN18
_symmetry_space_group_name_H-M   'P 1'
_cell_length_a   9.32733457
_cell_length_b   9.32486805
_cell_length_c   10.12559775
_cell_angle_alpha   89.68173291
_cell_angle_beta   89.74611412
_cell_angle_gamma   60.03599878
_symmetry_Int_Tables_number   1
_chemical_formula_structural   Al17BN18
_chemical_formula_sum   'Al34 B2 N36'
_cell_volume   762.95949657
_cell_formula_units_Z   2
loop_
 _symmetry_equiv_pos_site_id
 _symmetry_equiv_pos_as_xyz
  1  'x, y, z'
loop_
 _atom_site_type_symbol
 _atom_site_label
 _atom_site_symmetry_multiplicity
 _atom_site_fract_x
 _atom_site_fract_y
 _atom_site_fract_z
 _atom_site_occupancy
  Al  Al0  1  0.11304068  0.08937913  0.38442699  1
  Al  Al1  1  0.22605461  0.20153834  0.13950301  1
  Al  Al2  1  0.77615145  0.09328654  0.82185066  1
  Al  Al3  1  0.88259764  0.20152297  0.56878563  1
  Al  Al4  1  0.44982817  0.08753828  0.37544565  1
  Al  Al5  1  0.56156210  0.20043732  0.08103482  1
  Al  Al6  1  0.11621567  0.09020529  0.88927894  1
  Al  Al7  1  0.22435951  0.20467420  0.63666270  1
  Al  Al8  1  0.88582023  0.20228743  0.07909915  1
  Al  Al9  1  0.44506681  0.08582647  0.89415728  1
  Al  Al10  1  0.56222538  0.20536613  0.56247948  1
  Al  Al11  1  0.10867796  0.42459410  0.38896963  1
  Al  Al12  1  0.22503496  0.54166806  0.06787922  1
  Al  Al13  1  0.77402157  0.43250473  0.88727157  1
  Al  Al14  1  0.88767963  0.54178097  0.63615446  1
  Al  Al15  1  0.44649317  0.42090514  0.31813138  1
  Al  Al16  1  0.55788847  0.54779953  0.13836727  1
  Al  Al17  1  0.10787880  0.42430355  0.88650242  1
  Al  Al18  1  0.22517977  0.54234225  0.56995006  1
  Al  Al19  1  0.77465418  0.42765946  0.37919047  1
  Al  Al20  1  0.88576723  0.54310233  0.13876015  1
  Al  Al21  1  0.44292483  0.42124694  0.82063834  1
  Al  Al22  1  0.55833434  0.54277706  0.63705343  1
  Al  Al23  1  0.10478279  0.76311978  0.31831505  1
  Al  Al24  1  0.23136624  0.87498487  0.13923156  1
  Al  Al25  1  0.76895997  0.76237819  0.89408858  1
  Al  Al26  1  0.88834509  0.87988316  0.56243061  1
  Al  Al27  1  0.44598266  0.76173592  0.38458869  1
  Al  Al28  1  0.10435058  0.76017660  0.82049807  1
  Al  Al29  1  0.22562232  0.87573088  0.63758823  1
  Al  Al30  1  0.77134644  0.76635010  0.37559018  1
  Al  Al31  1  0.88431283  0.87819330  0.08087362  1
  Al  Al32  1  0.44611779  0.76323579  0.89115449  1
  Al  Al33  1  0.55706946  0.87413715  0.63470426  1
  B  B34  1  0.78029000  0.09572653  0.31555426  1
  B  B35  1  0.55546085  0.87206824  0.14109691  1
  N  N36  1  0.22251440  0.20623939  0.32608720  1
  N  N37  1  0.11723305  0.09147078  0.07993128  1
  N  N38  1  0.88529966  0.20196205  0.88098460  1
  N  N39  1  0.77547241  0.09294504  0.63517869  1
  N  N40  1  0.58407902  0.19410089  0.37006804  1
  N  N41  1  0.45601164  0.06555585  0.08791869  1
  N  N42  1  0.22576043  0.20342394  0.82680937  1
  N  N43  1  0.11368938  0.09363111  0.57577094  1
  N  N44  1  0.87565552  0.19084952  0.36982285  1
  N  N45  1  0.77840354  0.09465277  0.15400456  1
  N  N46  1  0.55869206  0.20555542  0.88913532  1
  N  N47  1  0.44270316  0.09129012  0.56807572  1
  N  N48  1  0.22567436  0.54199219  0.38007805  1
  N  N49  1  0.10808281  0.42389883  0.07718837  1
  N  N50  1  0.88692207  0.54314316  0.82678200  1
  N  N51  1  0.77633637  0.43136646  0.57596339  1
  N  N52  1  0.55615393  0.54334598  0.32717394  1
  N  N53  1  0.44198106  0.42520578  0.12922914  1
  N  N54  1  0.22440750  0.54150354  0.87817470  1
  N  N55  1  0.10817877  0.42512303  0.57941039  1
  N  N56  1  0.89075839  0.53950173  0.32541859  1
  N  N57  1  0.77562928  0.43311088  0.08182175  1
  N  N58  1  0.55548412  0.54383080  0.82907747  1
  N  N59  1  0.44410549  0.42154270  0.62909413  1
  N  N60  1  0.22721117  0.87290157  0.32765960  1
  N  N61  1  0.10910687  0.75865145  0.12943588  1
  N  N62  1  0.88901120  0.87571248  0.88907623  1
  N  N63  1  0.77411100  0.76049027  0.56806513  1
  N  N64  1  0.55490790  0.87096468  0.30378589  1
  N  N65  1  0.45650210  0.77334263  0.08204146  1
  N  N66  1  0.22679766  0.87290461  0.82874115  1
  N  N67  1  0.10459693  0.76140631  0.62890693  1
  N  N68  1  0.87809592  0.90046707  0.37003717  1
  N  N69  1  0.74898211  0.77307409  0.08755674  1
  N  N70  1  0.55610692  0.87308795  0.82223271  1
  N  N71  1  0.44498075  0.76253282  0.57350066  1
