# generated using pymatgen
data_Al17BN18
_symmetry_space_group_name_H-M   'P 1'
_cell_length_a   9.33232577
_cell_length_b   9.33911987
_cell_length_c   10.08242431
_cell_angle_alpha   89.68652978
_cell_angle_beta   89.60267969
_cell_angle_gamma   59.99466539
_symmetry_Int_Tables_number   1
_chemical_formula_structural   Al17BN18
_chemical_formula_sum   'Al34 B2 N36'
_cell_volume   760.95064537
_cell_formula_units_Z   2
loop_
 _symmetry_equiv_pos_site_id
 _symmetry_equiv_pos_as_xyz
  1  'x, y, z'
loop_
 _atom_site_type_symbol
 _atom_site_label
 _atom_site_symmetry_multiplicity
 _atom_site_fract_x
 _atom_site_fract_y
 _atom_site_fract_z
 _atom_site_occupancy
  Al  Al0  1  0.10564025  0.09324365  0.38869076  1
  Al  Al1  1  0.22322683  0.19976488  0.13785412  1
  Al  Al2  1  0.77322401  0.09061526  0.82011468  1
  Al  Al3  1  0.89227708  0.20943913  0.63834665  1
  Al  Al4  1  0.44791249  0.08841874  0.37136273  1
  Al  Al5  1  0.56075215  0.19650577  0.08343793  1
  Al  Al6  1  0.11027339  0.09359850  0.88804419  1
  Al  Al7  1  0.22700106  0.20405394  0.63606548  1
  Al  Al8  1  0.88897819  0.20651248  0.14254095  1
  Al  Al9  1  0.44441418  0.08554253  0.89206662  1
  Al  Al10  1  0.56898179  0.19823780  0.55912109  1
  Al  Al11  1  0.10833131  0.42558360  0.38523582  1
  Al  Al12  1  0.22035956  0.53703116  0.12187969  1
  Al  Al13  1  0.77865547  0.42637819  0.88763032  1
  Al  Al14  1  0.88717572  0.54337167  0.63553705  1
  Al  Al15  1  0.44963083  0.42955704  0.37587042  1
  Al  Al16  1  0.55809742  0.54466852  0.13827044  1
  Al  Al17  1  0.11136028  0.42623055  0.88539021  1
  Al  Al18  1  0.22387252  0.53752946  0.60633618  1
  Al  Al19  1  0.77677892  0.42324126  0.38849272  1
  Al  Al20  1  0.88183448  0.54178278  0.13713639  1
  Al  Al21  1  0.44422755  0.43185098  0.89104439  1
  Al  Al22  1  0.55562632  0.53972764  0.63696513  1
  Al  Al23  1  0.10135958  0.76964489  0.31780110  1
  Al  Al24  1  0.23011574  0.87692123  0.13635187  1
  Al  Al25  1  0.76974450  0.76044281  0.89141485  1
  Al  Al26  1  0.88889816  0.88259119  0.55877587  1
  Al  Al27  1  0.44586985  0.76301331  0.38273162  1
  Al  Al28  1  0.10563880  0.76055816  0.81961471  1
  Al  Al29  1  0.22798499  0.87571971  0.63593961  1
  Al  Al30  1  0.77152106  0.76524527  0.37356633  1
  Al  Al31  1  0.88427843  0.87679728  0.07583409  1
  Al  Al32  1  0.44696583  0.76316683  0.88938565  1
  Al  Al33  1  0.55867772  0.87325708  0.63266154  1
  B  B34  1  0.77448568  0.09233742  0.30863169  1
  B  B35  1  0.55459075  0.87026297  0.13974362  1
  N  N36  1  0.21958347  0.20500277  0.32537802  1
  N  N37  1  0.10752498  0.09545149  0.07661048  1
  N  N38  1  0.89149509  0.20754454  0.82905405  1
  N  N39  1  0.77594140  0.09195591  0.63224692  1
  N  N40  1  0.58539857  0.19111860  0.36281009  1
  N  N41  1  0.45239838  0.06511300  0.08730796  1
  N  N42  1  0.22549081  0.20287030  0.82708004  1
  N  N43  1  0.11184825  0.09574391  0.57700114  1
  N  N44  1  0.87959521  0.19733168  0.33273961  1
  N  N45  1  0.77430852  0.08858853  0.14881956  1
  N  N46  1  0.56114973  0.20035035  0.88828928  1
  N  N47  1  0.44409947  0.09082344  0.56606643  1
  N  N48  1  0.22073467  0.53827195  0.34092098  1
  N  N49  1  0.10796386  0.42487341  0.07679087  1
  N  N50  1  0.88768343  0.54161067  0.82664556  1
  N  N51  1  0.77805198  0.42890102  0.57746536  1
  N  N52  1  0.55836035  0.54208286  0.32512434  1
  N  N53  1  0.44504212  0.43290153  0.08650046  1
  N  N54  1  0.22509486  0.53499803  0.84149211  1
  N  N55  1  0.10914702  0.42535415  0.57558274  1
  N  N56  1  0.88765179  0.53769815  0.32501145  1
  N  N57  1  0.77798457  0.42495155  0.07660132  1
  N  N58  1  0.55591776  0.54036259  0.82794997  1
  N  N59  1  0.44874085  0.42917517  0.57112264  1
  N  N60  1  0.22583881  0.87591529  0.32759232  1
  N  N61  1  0.10626605  0.76524517  0.12534194  1
  N  N62  1  0.88953551  0.87449973  0.88570212  1
  N  N63  1  0.77628274  0.76048809  0.56648816  1
  N  N64  1  0.55503697  0.87059004  0.30231797  1
  N  N65  1  0.45738803  0.77241153  0.08168186  1
  N  N66  1  0.22706484  0.87324409  0.82886138  1
  N  N67  1  0.10488133  0.76584827  0.62223939  1
  N  N68  1  0.87552199  0.90280489  0.36737419  1
  N  N69  1  0.74883333  0.77080574  0.08532380  1
  N  N70  1  0.55681369  0.87224002  0.82055522  1
  N  N71  1  0.44763359  0.76149857  0.57287553  1
