# generated using pymatgen
data_Al17BN18
_symmetry_space_group_name_H-M   'P 1'
_cell_length_a   9.30866030
_cell_length_b   9.30373724
_cell_length_c   9.98302246
_cell_angle_alpha   89.79869963
_cell_angle_beta   89.95126476
_cell_angle_gamma   59.98023079
_symmetry_Int_Tables_number   1
_chemical_formula_structural   Al17BN18
_chemical_formula_sum   'Al34 B2 N36'
_cell_volume   748.59656531
_cell_formula_units_Z   2
loop_
 _symmetry_equiv_pos_site_id
 _symmetry_equiv_pos_as_xyz
  1  'x, y, z'
loop_
 _atom_site_type_symbol
 _atom_site_label
 _atom_site_symmetry_multiplicity
 _atom_site_fract_x
 _atom_site_fract_y
 _atom_site_fract_z
 _atom_site_occupancy
  Al  Al0  1  0.10633346  0.09295307  0.31260356  1
  Al  Al1  1  0.22682395  0.19871984  0.06460458  1
  Al  Al2  1  0.77746870  0.09373381  0.81598272  1
  Al  Al3  1  0.88644294  0.20285165  0.56003293  1
  Al  Al4  1  0.45138180  0.08863329  0.32555265  1
  Al  Al5  1  0.55961196  0.19779504  0.07170995  1
  Al  Al6  1  0.11066215  0.09447425  0.81402978  1
  Al  Al7  1  0.22062525  0.20715142  0.56327804  1
  Al  Al8  1  0.88709752  0.20474772  0.06826508  1
  Al  Al9  1  0.44646678  0.09369479  0.81391409  1
  Al  Al10  1  0.56160080  0.20449558  0.55995915  1
  Al  Al11  1  0.11104346  0.42823044  0.31146451  1
  Al  Al12  1  0.22219787  0.53927516  0.06176447  1
  Al  Al13  1  0.77795892  0.42754467  0.81329160  1
  Al  Al14  1  0.89009861  0.53865396  0.56150577  1
  Al  Al15  1  0.44897369  0.42451375  0.31238814  1
  Al  Al16  1  0.55753975  0.54366158  0.06302632  1
  Al  Al17  1  0.11093090  0.42754327  0.81440833  1
  Al  Al18  1  0.22242846  0.53865531  0.56436092  1
  Al  Al19  1  0.77640632  0.42353766  0.31256941  1
  Al  Al20  1  0.88147919  0.54409351  0.06328916  1
  Al  Al21  1  0.44622265  0.42586157  0.81501832  1
  Al  Al22  1  0.55536162  0.53832386  0.56191480  1
  Al  Al23  1  0.10785507  0.76540928  0.31227760  1
  Al  Al24  1  0.22632149  0.87454809  0.06306627  1
  Al  Al25  1  0.77829478  0.76232901  0.81194546  1
  Al  Al26  1  0.88727658  0.87744353  0.55829656  1
  Al  Al27  1  0.44677931  0.76350050  0.31765521  1
  Al  Al28  1  0.10932923  0.76268379  0.81410866  1
  Al  Al29  1  0.22161311  0.87188695  0.56207707  1
  Al  Al30  1  0.77141114  0.76875687  0.31765465  1
  Al  Al31  1  0.88106108  0.87708583  0.07009270  1
  Al  Al32  1  0.44490951  0.76134138  0.81155030  1
  Al  Al33  1  0.55648968  0.87129873  0.57820832  1
  B  B34  1  0.77847338  0.09446383  0.30939176  1
  B  B35  1  0.55442902  0.87379380  0.10046883  1
  N  N36  1  0.22062851  0.20543679  0.37120304  1
  N  N37  1  0.11027375  0.09444552  0.12349980  1
  N  N38  1  0.88807586  0.20481779  0.87664706  1
  N  N39  1  0.77843740  0.09384497  0.62701052  1
  N  N40  1  0.58099739  0.19345307  0.36516073  1
  N  N41  1  0.45867204  0.06487080  0.12406861  1
  N  N42  1  0.22329812  0.20469450  0.87401167  1
  N  N43  1  0.10924439  0.09507145  0.62137605  1
  N  N44  1  0.87628504  0.19264377  0.36598823  1
  N  N45  1  0.77809786  0.09496413  0.14498826  1
  N  N46  1  0.55709036  0.20424628  0.87997938  1
  N  N47  1  0.44312526  0.10123692  0.61727836  1
  N  N48  1  0.22265337  0.53862459  0.37262614  1
  N  N49  1  0.11041830  0.42791741  0.12109110  1
  N  N50  1  0.88849344  0.53959800  0.87342044  1
  N  N51  1  0.77898337  0.42610814  0.62036808  1
  N  N52  1  0.55509022  0.53931404  0.37087854  1
  N  N53  1  0.44471294  0.42830404  0.12245070  1
  N  N54  1  0.22258506  0.53899933  0.87151310  1
  N  N55  1  0.11064150  0.42784711  0.62330911  1
  N  N56  1  0.88819571  0.53939778  0.36952359  1
  N  N57  1  0.77750418  0.42776842  0.12341906  1
  N  N58  1  0.55551491  0.53910471  0.87346355  1
  N  N59  1  0.44628699  0.42568018  0.62229067  1
  N  N60  1  0.22288197  0.87143043  0.37100124  1
  N  N61  1  0.11111688  0.76164971  0.12229997  1
  N  N62  1  0.88829401  0.87292647  0.87914588  1
  N  N63  1  0.78559824  0.75913298  0.61905557  1
  N  N64  1  0.55621414  0.86986226  0.38499025  1
  N  N65  1  0.45882501  0.77636634  0.12162773  1
  N  N66  1  0.22286041  0.87150489  0.87345067  1
  N  N67  1  0.10881412  0.76261254  0.62132661  1
  N  N68  1  0.87642875  0.89695847  0.36367902  1
  N  N69  1  0.74705184  0.77668335  0.12248493  1
  N  N70  1  0.55646516  0.87150189  0.84807339  1
  N  N71  1  0.44143266  0.75784076  0.62068271  1
