# generated using pymatgen
data_Al17BN18
_symmetry_space_group_name_H-M   'P 1'
_cell_length_a   9.29940322
_cell_length_b   9.29940355
_cell_length_c   9.93904070
_cell_angle_alpha   90.02512849
_cell_angle_beta   90.02509404
_cell_angle_gamma   60.01364301
_symmetry_Int_Tables_number   1
_chemical_formula_structural   Al17BN18
_chemical_formula_sum   'Al34 B2 N36'
_cell_volume   744.46606702
_cell_formula_units_Z   2
loop_
 _symmetry_equiv_pos_site_id
 _symmetry_equiv_pos_as_xyz
  1  'x, y, z'
loop_
 _atom_site_type_symbol
 _atom_site_label
 _atom_site_symmetry_multiplicity
 _atom_site_fract_x
 _atom_site_fract_y
 _atom_site_fract_z
 _atom_site_occupancy
  Al  Al0  1  0.10765318  0.09281696  0.40505560  1
  Al  Al1  1  0.22551783  0.20065044  0.15474334  1
  Al  Al2  1  0.77758907  0.09425731  0.90242605  1
  Al  Al3  1  0.88762737  0.20429432  0.64796748  1
  Al  Al4  1  0.45068424  0.09060026  0.39817878  1
  Al  Al5  1  0.56258645  0.19783855  0.15896681  1
  Al  Al6  1  0.10957900  0.09508131  0.90416237  1
  Al  Al7  1  0.22422483  0.20423548  0.65425734  1
  Al  Al8  1  0.88608962  0.20275663  0.15891425  1
  Al  Al9  1  0.44827148  0.08976117  0.90840555  1
  Al  Al10  1  0.55751923  0.20331227  0.64744716  1
  Al  Al11  1  0.11093675  0.42760332  0.40520267  1
  Al  Al12  1  0.22204517  0.53871370  0.15536261  1
  Al  Al13  1  0.77841434  0.42624585  0.90416252  1
  Al  Al14  1  0.88756901  0.54089115  0.65425742  1
  Al  Al15  1  0.44997050  0.42412355  0.40447949  1
  Al  Al16  1  0.55734127  0.54219482  0.15431484  1
  Al  Al17  1  0.11120298  0.42786946  0.90467307  1
  Al  Al18  1  0.22244664  0.53911446  0.65442922  1
  Al  Al19  1  0.77614813  0.42432199  0.40505550  1
  Al  Al20  1  0.88398391  0.54218421  0.15474328  1
  Al  Al21  1  0.44527298  0.42604130  0.90427173  1
  Al  Al22  1  0.55482459  0.54072446  0.65482399  1
  Al  Al23  1  0.10745487  0.76663846  0.40447940  1
  Al  Al24  1  0.22552726  0.87400873  0.15431501  1
  Al  Al25  1  0.77309422  0.76493822  0.90840555  1
  Al  Al26  1  0.88664495  0.87418697  0.64744728  1
  Al  Al27  1  0.44580475  0.76247387  0.39836005  1
  Al  Al28  1  0.10937311  0.76194152  0.90427178  1
  Al  Al29  1  0.22405796  0.87149118  0.65482374  1
  Al  Al30  1  0.77393311  0.76735087  0.39817876  1
  Al  Al31  1  0.88116964  0.87925461  0.15896669  1
  Al  Al32  1  0.44737495  0.76404245  0.90889382  1
  Al  Al33  1  0.55565954  0.87232562  0.65304517  1
  B  B34  1  0.77778212  0.09445040  0.40822046  1
  B  B35  1  0.55588708  0.87255442  0.15897552  1
  N  N36  1  0.22202801  0.20496074  0.34549279  1
  N  N37  1  0.10802811  0.09601791  0.09617473  1
  N  N38  1  0.88797265  0.20463975  0.84027569  1
  N  N39  1  0.77771094  0.09437870  0.57404596  1
  N  N40  1  0.58119029  0.19300098  0.35224984  1
  N  N41  1  0.45787630  0.07063610  0.10414872  1
  N  N42  1  0.22481711  0.20404804  0.84737843  1
  N  N43  1  0.11203470  0.09377906  0.59565166  1
  N  N44  1  0.87644359  0.19311208  0.35309317  1
  N  N45  1  0.77797243  0.09464059  0.09093370  1
  N  N46  1  0.55602331  0.20362352  0.84161254  1
  N  N47  1  0.44524903  0.09229525  0.58986560  1
  N  N48  1  0.22253872  0.53920670  0.34655679  1
  N  N49  1  0.11072493  0.42739168  0.09601054  1
  N  N50  1  0.88738131  0.54148377  0.84737858  1
  N  N51  1  0.77711201  0.42870175  0.59565160  1
  N  N52  1  0.55573031  0.53907368  0.34420244  1
  N  N53  1  0.44602361  0.42492124  0.09729829  1
  N  N54  1  0.22243015  0.53909849  0.84592776  1
  N  N55  1  0.11091812  0.42758476  0.59658201  1
  N  N56  1  0.88829381  0.53869487  0.34549274  1
  N  N57  1  0.77935061  0.42469522  0.09617487  1
  N  N58  1  0.55439332  0.54102491  0.84770354  1
  N  N59  1  0.44487816  0.42812765  0.59538331  1
  N  N60  1  0.22240477  0.87239886  0.34420256  1
  N  N61  1  0.10825266  0.76269203  0.09729834  1
  N  N62  1  0.88695550  0.87269135  0.84161264  1
  N  N63  1  0.77562896  0.76191551  0.58986566  1
  N  N64  1  0.55546511  0.87213257  0.32342061  1
  N  N65  1  0.45720156  0.77386925  0.10245036  1
  N  N66  1  0.22435764  0.87106058  0.84770326  1
  N  N67  1  0.11146009  0.76154579  0.59538313  1
  N  N68  1  0.87633237  0.89785844  0.35224969  1
  N  N69  1  0.75396867  0.77454321  0.10414873  1
  N  N70  1  0.55581664  0.87248357  0.84209665  1
  N  N71  1  0.44533191  0.76199868  0.59108403  1
