# generated using pymatgen
data_Al17BN18
_symmetry_space_group_name_H-M   'P 1'
_cell_length_a   9.33517434
_cell_length_b   9.32446253
_cell_length_c   10.03542463
_cell_angle_alpha   89.70547200
_cell_angle_beta   89.91335461
_cell_angle_gamma   59.94774560
_symmetry_Int_Tables_number   1
_chemical_formula_structural   Al17BN18
_chemical_formula_sum   'Al34 B2 N36'
_cell_volume   756.09722203
_cell_formula_units_Z   2
loop_
 _symmetry_equiv_pos_site_id
 _symmetry_equiv_pos_as_xyz
  1  'x, y, z'
loop_
 _atom_site_type_symbol
 _atom_site_label
 _atom_site_symmetry_multiplicity
 _atom_site_fract_x
 _atom_site_fract_y
 _atom_site_fract_z
 _atom_site_occupancy
  Al  Al0  1  0.10628442  0.09368400  0.38657453  1
  Al  Al1  1  0.22395249  0.20089242  0.13593624  1
  Al  Al2  1  0.77617476  0.08920960  0.81929192  1
  Al  Al3  1  0.89288649  0.20943878  0.63616915  1
  Al  Al4  1  0.44894146  0.08961224  0.37379405  1
  Al  Al5  1  0.55394797  0.20061467  0.12993944  1
  Al  Al6  1  0.11105576  0.09464994  0.88634567  1
  Al  Al7  1  0.22506876  0.20425747  0.63551303  1
  Al  Al8  1  0.89169490  0.20649848  0.13941573  1
  Al  Al9  1  0.44689118  0.08880445  0.89185000  1
  Al  Al10  1  0.55442775  0.20549492  0.60487507  1
  Al  Al11  1  0.11082440  0.42709017  0.38657556  1
  Al  Al12  1  0.22237772  0.53780338  0.13755633  1
  Al  Al13  1  0.77789230  0.42676955  0.88636049  1
  Al  Al14  1  0.88743529  0.54338532  0.63408329  1
  Al  Al15  1  0.44973522  0.42593241  0.38066602  1
  Al  Al16  1  0.55752471  0.54352756  0.13620067  1
  Al  Al17  1  0.11162311  0.42801528  0.88402702  1
  Al  Al18  1  0.22110506  0.54102888  0.63457154  1
  Al  Al19  1  0.77669349  0.42269683  0.38674223  1
  Al  Al20  1  0.88422709  0.54056998  0.13603378  1
  Al  Al21  1  0.44494506  0.42735137  0.88900873  1
  Al  Al22  1  0.55501029  0.54053539  0.63594916  1
  Al  Al23  1  0.11376425  0.76408626  0.37772462  1
  Al  Al24  1  0.22812140  0.87377061  0.13638054  1
  Al  Al25  1  0.76840041  0.76073080  0.88999150  1
  Al  Al26  1  0.88185999  0.88513929  0.55797511  1
  Al  Al27  1  0.44631946  0.76229189  0.38121695  1
  Al  Al28  1  0.11682480  0.75855749  0.88784277  1
  Al  Al29  1  0.22294712  0.87146600  0.63486400  1
  Al  Al30  1  0.77169537  0.76501284  0.37004643  1
  Al  Al31  1  0.88297947  0.87493729  0.07792712  1
  Al  Al32  1  0.44679600  0.76380746  0.88830424  1
  Al  Al33  1  0.55674718  0.87209961  0.63248989  1
  B  B34  1  0.78030441  0.08901921  0.30365136  1
  B  B35  1  0.55398649  0.86989819  0.13932464  1
  N  N36  1  0.22007380  0.20582198  0.32518439  1
  N  N37  1  0.11012356  0.09464419  0.07586040  1
  N  N38  1  0.89186832  0.20773565  0.82827671  1
  N  N39  1  0.77871236  0.09237134  0.62777458  1
  N  N40  1  0.57585794  0.19536387  0.33385238  1
  N  N41  1  0.45473612  0.06768178  0.08578255  1
  N  N42  1  0.22503988  0.20385653  0.82706963  1
  N  N43  1  0.11239608  0.09454240  0.57612758  1
  N  N44  1  0.87955081  0.19640179  0.33118288  1
  N  N45  1  0.78202197  0.08656208  0.14194416  1
  N  N46  1  0.55205303  0.20548107  0.84846006  1
  N  N47  1  0.44391896  0.09134981  0.56617418  1
  N  N48  1  0.22248332  0.53756649  0.32629363  1
  N  N49  1  0.11061519  0.42796456  0.07506653  1
  N  N50  1  0.88727869  0.54156922  0.82597487  1
  N  N51  1  0.77732153  0.42958095  0.57638538  1
  N  N52  1  0.55675479  0.54030462  0.32480379  1
  N  N53  1  0.44480302  0.42950485  0.08078062  1
  N  N54  1  0.22291715  0.53966052  0.82500153  1
  N  N55  1  0.11123200  0.42790861  0.57691173  1
  N  N56  1  0.88944415  0.53614390  0.32495838  1
  N  N57  1  0.77828348  0.42569771  0.07601714  1
  N  N58  1  0.55432538  0.54087254  0.82772250  1
  N  N59  1  0.44342081  0.43131655  0.57216897  1
  N  N60  1  0.22446312  0.87410379  0.32443444  1
  N  N61  1  0.11957832  0.75817352  0.08131629  1
  N  N62  1  0.88565623  0.87448942  0.88311169  1
  N  N63  1  0.77369120  0.76116599  0.56532210  1
  N  N64  1  0.55346252  0.87124247  0.30222032  1
  N  N65  1  0.45670094  0.77345760  0.08148920  1
  N  N66  1  0.22407152  0.87166695  0.82649767  1
  N  N67  1  0.11350582  0.76107362  0.57168834  1
  N  N68  1  0.87456387  0.90219416  0.36156409  1
  N  N69  1  0.74892450  0.76984515  0.08613061  1
  N  N70  1  0.55467147  0.87314294  0.82062559  1
  N  N71  1  0.44506691  0.76235436  0.57228641  1
