# generated using pymatgen
data_Al17BN18
_symmetry_space_group_name_H-M   'P 1'
_cell_length_a   9.32655715
_cell_length_b   9.32498562
_cell_length_c   10.11405981
_cell_angle_alpha   89.60904915
_cell_angle_beta   89.59886273
_cell_angle_gamma   60.03090541
_symmetry_Int_Tables_number   1
_chemical_formula_structural   Al17BN18
_chemical_formula_sum   'Al34 B2 N36'
_cell_volume   761.98600663
_cell_formula_units_Z   2
loop_
 _symmetry_equiv_pos_site_id
 _symmetry_equiv_pos_as_xyz
  1  'x, y, z'
loop_
 _atom_site_type_symbol
 _atom_site_label
 _atom_site_symmetry_multiplicity
 _atom_site_fract_x
 _atom_site_fract_y
 _atom_site_fract_z
 _atom_site_occupancy
  Al  Al0  1  0.10354865  0.08996480  0.32156594  1
  Al  Al1  1  0.23109058  0.20050746  0.14312414  1
  Al  Al2  1  0.77470015  0.09269426  0.82626168  1
  Al  Al3  1  0.88675195  0.20213641  0.56885435  1
  Al  Al4  1  0.44933388  0.08993791  0.38226989  1
  Al  Al5  1  0.56216665  0.20136470  0.08456074  1
  Al  Al6  1  0.10524739  0.09187555  0.82220257  1
  Al  Al7  1  0.22744675  0.20737483  0.64065557  1
  Al  Al8  1  0.88798635  0.20415239  0.07536181  1
  Al  Al9  1  0.44390846  0.08458384  0.89924010  1
  Al  Al10  1  0.56374135  0.20579962  0.56693921  1
  Al  Al11  1  0.11527725  0.42225183  0.38543424  1
  Al  Al12  1  0.22748144  0.54236301  0.07306081  1
  Al  Al13  1  0.77743507  0.42685583  0.82246124  1
  Al  Al14  1  0.88447469  0.53922197  0.58765751  1
  Al  Al15  1  0.45113114  0.42514463  0.32083333  1
  Al  Al16  1  0.55741937  0.54373912  0.06911850  1
  Al  Al17  1  0.10893886  0.42349562  0.89350591  1
  Al  Al18  1  0.22489055  0.54280268  0.57317008  1
  Al  Al19  1  0.77426066  0.42093378  0.32071929  1
  Al  Al20  1  0.88456178  0.54200870  0.11693188  1
  Al  Al21  1  0.44504589  0.42350677  0.82355925  1
  Al  Al22  1  0.55363764  0.54032377  0.57053474  1
  Al  Al23  1  0.11033628  0.76607546  0.32048525  1
  Al  Al24  1  0.22761999  0.87438214  0.06973192  1
  Al  Al25  1  0.76617048  0.76353334  0.90085318  1
  Al  Al26  1  0.88873791  0.88122969  0.56559100  1
  Al  Al27  1  0.44410070  0.76033028  0.31594671  1
  Al  Al28  1  0.10563370  0.76179915  0.82342830  1
  Al  Al29  1  0.22275695  0.87354234  0.57057704  1
  Al  Al30  1  0.77314307  0.76957506  0.37379234  1
  Al  Al31  1  0.88537008  0.87945832  0.08595998  1
  Al  Al32  1  0.44092164  0.75733924  0.82058196  1
  Al  Al33  1  0.55910653  0.87670260  0.63914275  1
  B  B34  1  0.77909507  0.09602024  0.31891239  1
  B  B35  1  0.55731275  0.87575735  0.14991093  1
  N  N36  1  0.22675251  0.20432323  0.33109590  1
  N  N37  1  0.10793062  0.09144192  0.13151761  1
  N  N38  1  0.88603177  0.20471507  0.88583623  1
  N  N39  1  0.77635520  0.09346349  0.63833527  1
  N  N40  1  0.58497000  0.19593204  0.37361372  1
  N  N41  1  0.45666662  0.06462526  0.09085002  1
  N  N42  1  0.22736165  0.20515491  0.83224817  1
  N  N43  1  0.10615788  0.09356701  0.63006043  1
  N  N44  1  0.87686702  0.19392616  0.37741312  1
  N  N45  1  0.77850347  0.09628740  0.15667726  1
  N  N46  1  0.55729012  0.20618358  0.89244258  1
  N  N47  1  0.44320341  0.09214841  0.57220257  1
  N  N48  1  0.22788854  0.54307325  0.38128350  1
  N  N49  1  0.11500217  0.42208841  0.08731835  1
  N  N50  1  0.88455412  0.54044403  0.86742357  1
  N  N51  1  0.77564404  0.42424974  0.62950005  1
  N  N52  1  0.55540454  0.54191587  0.38248817  1
  N  N53  1  0.44647989  0.42881629  0.13375548  1
  N  N54  1  0.22472563  0.54163945  0.88165305  1
  N  N55  1  0.11123796  0.42380959  0.57943515  1
  N  N56  1  0.88958325  0.53788222  0.34840483  1
  N  N57  1  0.77403396  0.42384050  0.13323246  1
  N  N58  1  0.55491055  0.53774259  0.88112930  1
  N  N59  1  0.44566588  0.42412945  0.63277091  1
  N  N60  1  0.22566963  0.87168548  0.38238741  1
  N  N61  1  0.11334967  0.76178162  0.13356004  1
  N  N62  1  0.88868587  0.87574369  0.89340398  1
  N  N63  1  0.77116720  0.76559447  0.56768367  1
  N  N64  1  0.55861707  0.87882070  0.30932557  1
  N  N65  1  0.45367488  0.76957138  0.12616919  1
  N  N66  1  0.22115076  0.87175263  0.88186910  1
  N  N67  1  0.10673462  0.76366171  0.63228804  1
  N  N68  1  0.88095771  0.90178951  0.37169454  1
  N  N69  1  0.74781710  0.77627384  0.09598394  1
  N  N70  1  0.55767165  0.87505474  0.82643943  1
  N  N71  1  0.44148783  0.75881275  0.63005918  1
