# generated using pymatgen
data_Al17BN18
_symmetry_space_group_name_H-M   'P 1'
_cell_length_a   9.32587816
_cell_length_b   9.31590735
_cell_length_c   10.00154937
_cell_angle_alpha   89.67908858
_cell_angle_beta   89.93588450
_cell_angle_gamma   59.95631946
_symmetry_Int_Tables_number   1
_chemical_formula_structural   Al17BN18
_chemical_formula_sum   'Al34 B2 N36'
_cell_volume   752.16626773
_cell_formula_units_Z   2
loop_
 _symmetry_equiv_pos_site_id
 _symmetry_equiv_pos_as_xyz
  1  'x, y, z'
loop_
 _atom_site_type_symbol
 _atom_site_label
 _atom_site_symmetry_multiplicity
 _atom_site_fract_x
 _atom_site_fract_y
 _atom_site_fract_z
 _atom_site_occupancy
  Al  Al0  1  0.10703965  0.09218688  0.39629383  1
  Al  Al1  1  0.22556009  0.20140891  0.14731851  1
  Al  Al2  1  0.77594911  0.09698538  0.87185085  1
  Al  Al3  1  0.89001114  0.20701631  0.65058241  1
  Al  Al4  1  0.45246783  0.08950216  0.38922724  1
  Al  Al5  1  0.56261614  0.19749525  0.14230718  1
  Al  Al6  1  0.11197546  0.09500092  0.89834451  1
  Al  Al7  1  0.22402067  0.20384372  0.64562745  1
  Al  Al8  1  0.88642332  0.20325987  0.14213430  1
  Al  Al9  1  0.44563129  0.08940709  0.90205947  1
  Al  Al10  1  0.55164620  0.20604106  0.65035019  1
  Al  Al11  1  0.11138239  0.42704067  0.39774579  1
  Al  Al12  1  0.22290221  0.53804345  0.14849688  1
  Al  Al13  1  0.77800361  0.42817288  0.89872986  1
  Al  Al14  1  0.88737102  0.54033600  0.64463692  1
  Al  Al15  1  0.45258209  0.42200316  0.39627191  1
  Al  Al16  1  0.55688844  0.54304951  0.14703177  1
  Al  Al17  1  0.11086138  0.42805860  0.89515734  1
  Al  Al18  1  0.22247875  0.53869890  0.64538363  1
  Al  Al19  1  0.77575421  0.42276055  0.39644163  1
  Al  Al20  1  0.88424005  0.54223102  0.14741317  1
  Al  Al21  1  0.44322695  0.42788359  0.89925065  1
  Al  Al22  1  0.55542218  0.53898414  0.64640643  1
  Al  Al23  1  0.11026570  0.76618639  0.39202782  1
  Al  Al24  1  0.22770657  0.87397491  0.14735207  1
  Al  Al25  1  0.76895262  0.75921018  0.89768980  1
  Al  Al26  1  0.88393069  0.87902925  0.60349107  1
  Al  Al27  1  0.44655761  0.76179940  0.39143569  1
  Al  Al28  1  0.11745419  0.75704611  0.89538765  1
  Al  Al29  1  0.22306869  0.87233313  0.64570276  1
  Al  Al30  1  0.77248684  0.76785385  0.38428881  1
  Al  Al31  1  0.88281226  0.87591613  0.08713080  1
  Al  Al32  1  0.44661424  0.76367298  0.89974244  1
  Al  Al33  1  0.55511582  0.87300807  0.64361614  1
  B  B34  1  0.77992109  0.09153893  0.35546569  1
  B  B35  1  0.55488869  0.87170281  0.15006715  1
  N  N36  1  0.22233696  0.20506102  0.33728212  1
  N  N37  1  0.11064281  0.09546260  0.08904293  1
  N  N38  1  0.89363598  0.21044785  0.84023215  1
  N  N39  1  0.77595519  0.09669364  0.63319836  1
  N  N40  1  0.58696301  0.18959722  0.33779840  1
  N  N41  1  0.45683684  0.06977082  0.09613805  1
  N  N42  1  0.22447066  0.20405184  0.83812187  1
  N  N43  1  0.11025431  0.09516546  0.58587353  1
  N  N44  1  0.87443811  0.19019492  0.33860744  1
  N  N45  1  0.77449682  0.10264975  0.07503559  1
  N  N46  1  0.54434242  0.20918314  0.84189899  1
  N  N47  1  0.44528013  0.09377000  0.58027186  1
  N  N48  1  0.22382573  0.53748390  0.33852555  1
  N  N49  1  0.11040351  0.42873340  0.08671665  1
  N  N50  1  0.88713009  0.54002352  0.83644455  1
  N  N51  1  0.77774580  0.42749055  0.58589600  1
  N  N52  1  0.55584025  0.53900005  0.33627929  1
  N  N53  1  0.44509273  0.42734158  0.09064057  1
  N  N54  1  0.22325905  0.53811992  0.83568180  1
  N  N55  1  0.11070926  0.42773319  0.58791696  1
  N  N56  1  0.88915455  0.53744706  0.33693320  1
  N  N57  1  0.77822261  0.42789333  0.08922453  1
  N  N58  1  0.55438511  0.54039473  0.83929505  1
  N  N59  1  0.44492837  0.42703012  0.58604660  1
  N  N60  1  0.22405701  0.87278939  0.33593115  1
  N  N61  1  0.11820411  0.75937861  0.08986235  1
  N  N62  1  0.89026613  0.86434952  0.87432621  1
  N  N63  1  0.77399067  0.76046135  0.57840558  1
  N  N64  1  0.55429651  0.87206133  0.31429038  1
  N  N65  1  0.45679271  0.77410265  0.09335282  1
  N  N66  1  0.22438129  0.87209000  0.83753778  1
  N  N67  1  0.11336746  0.76036394  0.58476449  1
  N  N68  1  0.87330044  0.90510223  0.36316444  1
  N  N69  1  0.74934207  0.77211618  0.09528814  1
  N  N70  1  0.55349634  0.87334144  0.83192129  1
  N  N71  1  0.44513072  0.76181730  0.58287561  1
