# generated using pymatgen
data_Al17BN18
_symmetry_space_group_name_H-M   'P 1'
_cell_length_a   9.32481899
_cell_length_b   9.31036864
_cell_length_c   10.04872443
_cell_angle_alpha   89.59520578
_cell_angle_beta   89.94779335
_cell_angle_gamma   59.93634611
_symmetry_Int_Tables_number   1
_chemical_formula_structural   Al17BN18
_chemical_formula_sum   'Al34 B2 N36'
_cell_volume   755.01762826
_cell_formula_units_Z   2
loop_
 _symmetry_equiv_pos_site_id
 _symmetry_equiv_pos_as_xyz
  1  'x, y, z'
loop_
 _atom_site_type_symbol
 _atom_site_label
 _atom_site_symmetry_multiplicity
 _atom_site_fract_x
 _atom_site_fract_y
 _atom_site_fract_z
 _atom_site_occupancy
  Al  Al0  1  0.10695116  0.09298856  0.39603576  1
  Al  Al1  1  0.22605926  0.20095013  0.14678703  1
  Al  Al2  1  0.77984188  0.08837166  0.83994643  1
  Al  Al3  1  0.89126067  0.20900128  0.64850761  1
  Al  Al4  1  0.45187943  0.09018306  0.38912254  1
  Al  Al5  1  0.55909398  0.19833926  0.14488138  1
  Al  Al6  1  0.11184521  0.09453882  0.89809049  1
  Al  Al7  1  0.22357296  0.20436551  0.64559661  1
  Al  Al8  1  0.88959308  0.20464978  0.14487121  1
  Al  Al9  1  0.44612425  0.08896056  0.90179238  1
  Al  Al10  1  0.54803627  0.20807708  0.64812733  1
  Al  Al11  1  0.11151496  0.42690914  0.39720468  1
  Al  Al12  1  0.22394390  0.53687850  0.14771143  1
  Al  Al13  1  0.77786184  0.42706487  0.89812612  1
  Al  Al14  1  0.88678753  0.54295723  0.64391072  1
  Al  Al15  1  0.45247291  0.42204811  0.39622471  1
  Al  Al16  1  0.55731738  0.54219532  0.14639267  1
  Al  Al17  1  0.11086298  0.42801866  0.89458265  1
  Al  Al18  1  0.22021499  0.54132562  0.64475984  1
  Al  Al19  1  0.77581324  0.42305824  0.39642048  1
  Al  Al20  1  0.88449840  0.54144379  0.14658935  1
  Al  Al21  1  0.44438042  0.42681873  0.89865222  1
  Al  Al22  1  0.55474316  0.54011616  0.64623395  1
  Al  Al23  1  0.11415813  0.76395231  0.38907481  1
  Al  Al24  1  0.22823890  0.87375716  0.14656983  1
  Al  Al25  1  0.76850799  0.75869715  0.89903034  1
  Al  Al26  1  0.87984509  0.88699950  0.57342679  1
  Al  Al27  1  0.44646186  0.76212132  0.39093044  1
  Al  Al28  1  0.11825149  0.75657263  0.89690477  1
  Al  Al29  1  0.22218768  0.87197255  0.64492525  1
  Al  Al30  1  0.77104093  0.76596963  0.38102580  1
  Al  Al31  1  0.88309985  0.87578898  0.08269794  1
  Al  Al32  1  0.44662557  0.76339985  0.89902406  1
  Al  Al33  1  0.55590632  0.87261906  0.64288223  1
  B  B34  1  0.77923837  0.09345082  0.33452847  1
  B  B35  1  0.55493293  0.87108657  0.14893226  1
  N  N36  1  0.22234498  0.20521270  0.33637062  1
  N  N37  1  0.11171786  0.09525075  0.08755754  1
  N  N38  1  0.89309673  0.20887534  0.83974077  1
  N  N39  1  0.77738358  0.09327194  0.64256361  1
  N  N40  1  0.58201090  0.19266713  0.33899119  1
  N  N41  1  0.45652823  0.06940308  0.09466111  1
  N  N42  1  0.22442914  0.20395349  0.83725142  1
  N  N43  1  0.11049203  0.09527396  0.58522397  1
  N  N44  1  0.87630350  0.19348837  0.33966035  1
  N  N45  1  0.77912926  0.09488699  0.11274043  1
  N  N46  1  0.54605166  0.20779726  0.84134713  1
  N  N47  1  0.44455953  0.09390050  0.57980225  1
  N  N48  1  0.22463803  0.53632937  0.33708590  1
  N  N49  1  0.11065960  0.42840857  0.08556129  1
  N  N50  1  0.88690482  0.54027046  0.83545456  1
  N  N51  1  0.77701702  0.42896658  0.58556252  1
  N  N52  1  0.55573681  0.53921246  0.33541961  1
  N  N53  1  0.44583244  0.42637855  0.08893848  1
  N  N54  1  0.22311133  0.53842310  0.83473067  1
  N  N55  1  0.11031003  0.42832491  0.58696134  1
  N  N56  1  0.88964422  0.53641066  0.33543000  1
  N  N57  1  0.77843901  0.42741783  0.08752225  1
  N  N58  1  0.55441485  0.54023789  0.83820359  1
  N  N59  1  0.44395516  0.42851437  0.58567917  1
  N  N60  1  0.22431557  0.87384971  0.33441007  1
  N  N61  1  0.12024653  0.75782789  0.09067158  1
  N  N62  1  0.88901256  0.86669352  0.88690542  1
  N  N63  1  0.77297206  0.76151610  0.57502701  1
  N  N64  1  0.55316722  0.87289889  0.31283376  1
  N  N65  1  0.45698248  0.77350017  0.09207236  1
  N  N66  1  0.22395461  0.87180336  0.83642730  1
  N  N67  1  0.11243618  0.76157613  0.58153478  1
  N  N68  1  0.87249840  0.90678047  0.37225406  1
  N  N69  1  0.74912183  0.77083714  0.09599379  1
  N  N70  1  0.55409854  0.87298040  0.83093715  1
  N  N71  1  0.44449072  0.76258145  0.58203119  1
