# generated using pymatgen
data_Al17BN18
_symmetry_space_group_name_H-M   'P 1'
_cell_length_a   9.35532412
_cell_length_b   9.35155761
_cell_length_c   10.11928941
_cell_angle_alpha   89.67166769
_cell_angle_beta   89.66589901
_cell_angle_gamma   59.94697798
_symmetry_Int_Tables_number   1
_chemical_formula_structural   Al17BN18
_chemical_formula_sum   'Al34 B2 N36'
_cell_volume   766.26939987
_cell_formula_units_Z   2
loop_
 _symmetry_equiv_pos_site_id
 _symmetry_equiv_pos_as_xyz
  1  'x, y, z'
loop_
 _atom_site_type_symbol
 _atom_site_label
 _atom_site_symmetry_multiplicity
 _atom_site_fract_x
 _atom_site_fract_y
 _atom_site_fract_z
 _atom_site_occupancy
  Al  Al0  1  0.10160762  0.09559911  0.32172803  1
  Al  Al1  1  0.22887132  0.20467275  0.13944948  1
  Al  Al2  1  0.77621706  0.09234556  0.82252685  1
  Al  Al3  1  0.88624887  0.20484238  0.56564820  1
  Al  Al4  1  0.44956923  0.08724403  0.37717688  1
  Al  Al5  1  0.56276203  0.20022082  0.08170186  1
  Al  Al6  1  0.10698226  0.09440858  0.82243235  1
  Al  Al7  1  0.22904464  0.20801046  0.63686066  1
  Al  Al8  1  0.88792487  0.20499391  0.07271386  1
  Al  Al9  1  0.44521742  0.08493340  0.89592248  1
  Al  Al10  1  0.56474397  0.20477201  0.56298307  1
  Al  Al11  1  0.10825435  0.42505899  0.39035496  1
  Al  Al12  1  0.22485460  0.54160292  0.06815081  1
  Al  Al13  1  0.78069253  0.42196501  0.82368632  1
  Al  Al14  1  0.89103918  0.54557778  0.63669022  1
  Al  Al15  1  0.44510177  0.42128214  0.31979759  1
  Al  Al16  1  0.55377844  0.54821994  0.13675296  1
  Al  Al17  1  0.10805590  0.42440382  0.88886613  1
  Al  Al18  1  0.22540845  0.54166087  0.56982597  1
  Al  Al19  1  0.77973427  0.41799222  0.32175326  1
  Al  Al20  1  0.88795352  0.54541279  0.13876871  1
  Al  Al21  1  0.44203677  0.42106080  0.82272308  1
  Al  Al22  1  0.55294176  0.54439470  0.63634250  1
  Al  Al23  1  0.10515360  0.76276820  0.32020237  1
  Al  Al24  1  0.22980594  0.87142550  0.12723896  1
  Al  Al25  1  0.76904139  0.76195520  0.89578974  1
  Al  Al26  1  0.88733809  0.88189994  0.56290054  1
  Al  Al27  1  0.44668495  0.76123841  0.38433991  1
  Al  Al28  1  0.10627792  0.76011712  0.82231916  1
  Al  Al29  1  0.22488129  0.87145934  0.61913628  1
  Al  Al30  1  0.77087958  0.76631184  0.37701119  1
  Al  Al31  1  0.88362663  0.87956554  0.08161781  1
  Al  Al32  1  0.44681469  0.76239154  0.89288580  1
  Al  Al33  1  0.55767315  0.87412662  0.63682395  1
  B  B34  1  0.77778625  0.09456377  0.31588666  1
  B  B35  1  0.55572267  0.87199070  0.14321962  1
  N  N36  1  0.22503587  0.20884674  0.32893523  1
  N  N37  1  0.10582645  0.09790495  0.12742848  1
  N  N38  1  0.88781432  0.20328710  0.88418377  1
  N  N39  1  0.77734218  0.09439414  0.63514671  1
  N  N40  1  0.58458057  0.19341100  0.37019780  1
  N  N41  1  0.45646309  0.06525379  0.08874524  1
  N  N42  1  0.22902618  0.20620992  0.82927967  1
  N  N43  1  0.10517679  0.09897699  0.62510500  1
  N  N44  1  0.87622398  0.19336648  0.37545085  1
  N  N45  1  0.77900607  0.09583782  0.15378971  1
  N  N46  1  0.55959086  0.20458329  0.88988211  1
  N  N47  1  0.44505262  0.09048372  0.56908149  1
  N  N48  1  0.22482790  0.54174797  0.38054740  1
  N  N49  1  0.10839131  0.42486773  0.07829190  1
  N  N50  1  0.89000202  0.54559371  0.82961040  1
  N  N51  1  0.78183430  0.42260441  0.62518613  1
  N  N52  1  0.55265358  0.54303989  0.33247155  1
  N  N53  1  0.44086322  0.42495561  0.12995148  1
  N  N54  1  0.22385832  0.54110068  0.87886840  1
  N  N55  1  0.10893895  0.42584897  0.57971868  1
  N  N56  1  0.89217444  0.54165732  0.32859735  1
  N  N57  1  0.78089641  0.42318845  0.12548864  1
  N  N58  1  0.55165489  0.54385422  0.83423255  1
  N  N59  1  0.44326789  0.42101218  0.62953686  1
  N  N60  1  0.22501557  0.87024331  0.34141243  1
  N  N61  1  0.10851837  0.75791500  0.13088361  1
  N  N62  1  0.88889210  0.87571590  0.88962108  1
  N  N63  1  0.77406852  0.76178371  0.56908693  1
  N  N64  1  0.55473896  0.87107371  0.30489986  1
  N  N65  1  0.45796626  0.77335237  0.08437458  1
  N  N66  1  0.22615102  0.86875994  0.84388939  1
  N  N67  1  0.10450791  0.76061225  0.62898276  1
  N  N68  1  0.87653162  0.90152764  0.37012129  1
  N  N69  1  0.74895295  0.77336168  0.08866877  1
  N  N70  1  0.55634690  0.87225549  0.82383285  1
  N  N71  1  0.44818329  0.76212653  0.57387394  1
