# generated using pymatgen
data_Al17BN18
_symmetry_space_group_name_H-M   'P 1'
_cell_length_a   9.32689223
_cell_length_b   9.30718102
_cell_length_c   10.06629096
_cell_angle_alpha   89.68564480
_cell_angle_beta   89.96059623
_cell_angle_gamma   59.92623933
_symmetry_Int_Tables_number   1
_chemical_formula_structural   Al17BN18
_chemical_formula_sum   'Al34 B2 N36'
_cell_volume   756.17825985
_cell_formula_units_Z   2
loop_
 _symmetry_equiv_pos_site_id
 _symmetry_equiv_pos_as_xyz
  1  'x, y, z'
loop_
 _atom_site_type_symbol
 _atom_site_label
 _atom_site_symmetry_multiplicity
 _atom_site_fract_x
 _atom_site_fract_y
 _atom_site_fract_z
 _atom_site_occupancy
  Al  Al0  1  0.10709703  0.09339724  0.39176133  1
  Al  Al1  1  0.22644324  0.20008446  0.14194016  1
  Al  Al2  1  0.78028344  0.08704589  0.82454237  1
  Al  Al3  1  0.89132303  0.21003157  0.64115566  1
  Al  Al4  1  0.45113855  0.09064926  0.38483403  1
  Al  Al5  1  0.55416807  0.19980853  0.14393200  1
  Al  Al6  1  0.11137140  0.09488327  0.89227275  1
  Al  Al7  1  0.22310121  0.20515118  0.64093857  1
  Al  Al8  1  0.89321414  0.20622384  0.14420635  1
  Al  Al9  1  0.44611980  0.08956180  0.89610370  1
  Al  Al10  1  0.54676436  0.20915754  0.64050825  1
  Al  Al11  1  0.11162597  0.42658335  0.39209666  1
  Al  Al12  1  0.22522168  0.53531213  0.14324948  1
  Al  Al13  1  0.77754188  0.42765636  0.89210251  1
  Al  Al14  1  0.88628468  0.54481655  0.63900950  1
  Al  Al15  1  0.45247151  0.42112044  0.39183938  1
  Al  Al16  1  0.55779530  0.54130021  0.14179198  1
  Al  Al17  1  0.11049053  0.42880213  0.88992055  1
  Al  Al18  1  0.21877722  0.54314525  0.63984628  1
  Al  Al19  1  0.77663445  0.42219841  0.39215757  1
  Al  Al20  1  0.88485572  0.53991402  0.14208985  1
  Al  Al21  1  0.44409745  0.42744595  0.89257661  1
  Al  Al22  1  0.55420227  0.54110336  0.64139015  1
  Al  Al23  1  0.11481187  0.76277855  0.38298547  1
  Al  Al24  1  0.22917052  0.87312720  0.14229008  1
  Al  Al25  1  0.76789932  0.76081788  0.89651273  1
  Al  Al26  1  0.87877569  0.88898741  0.56078419  1
  Al  Al27  1  0.44665034  0.76171556  0.38618793  1
  Al  Al28  1  0.11697286  0.75857399  0.89417245  1
  Al  Al29  1  0.22184874  0.87202576  0.63990612  1
  Al  Al30  1  0.77142866  0.76484326  0.37492857  1
  Al  Al31  1  0.88441556  0.87361426  0.08462930  1
  Al  Al32  1  0.44651959  0.76383659  0.89410227  1
  Al  Al33  1  0.55601691  0.87273718  0.63801293  1
  B  B34  1  0.78194639  0.08852217  0.30752027  1
  B  B35  1  0.55515148  0.86988719  0.14452642  1
  N  N36  1  0.22249525  0.20468206  0.33115074  1
  N  N37  1  0.11204872  0.09421944  0.08126834  1
  N  N38  1  0.89184781  0.20843683  0.83417348  1
  N  N39  1  0.77707135  0.09364914  0.63406611  1
  N  N40  1  0.57551010  0.19507220  0.33474619  1
  N  N41  1  0.45715540  0.06873224  0.08841038  1
  N  N42  1  0.22397496  0.20481362  0.83232532  1
  N  N43  1  0.11106008  0.09534795  0.58100650  1
  N  N44  1  0.88026557  0.19591508  0.33546953  1
  N  N45  1  0.78353152  0.08651769  0.14520621  1
  N  N46  1  0.54752011  0.20754169  0.83565029  1
  N  N47  1  0.44363475  0.09395620  0.57555091  1
  N  N48  1  0.22532878  0.53533712  0.33194127  1
  N  N49  1  0.11099994  0.42769379  0.08064592  1
  N  N50  1  0.88649709  0.54245322  0.83095095  1
  N  N51  1  0.77645420  0.43051196  0.58140486  1
  N  N52  1  0.55612244  0.53841847  0.33052844  1
  N  N53  1  0.44741060  0.42458392  0.08255456  1
  N  N54  1  0.22142710  0.54050228  0.83011613  1
  N  N55  1  0.10989115  0.42898844  0.58199374  1
  N  N56  1  0.88983639  0.53547713  0.33028264  1
  N  N57  1  0.77860952  0.42574864  0.08120839  1
  N  N58  1  0.55410740  0.54089904  0.83301513  1
  N  N59  1  0.44282821  0.43009936  0.58140398  1
  N  N60  1  0.22469863  0.87369600  0.32954985  1
  N  N61  1  0.12175476  0.75637772  0.08687075  1
  N  N62  1  0.88526822  0.87458715  0.89082650  1
  N  N63  1  0.77242183  0.76263792  0.56949853  1
  N  N64  1  0.55281482  0.87273849  0.30767399  1
  N  N65  1  0.45750825  0.77268045  0.08706826  1
  N  N66  1  0.22358747  0.87194723  0.83153239  1
  N  N67  1  0.11149019  0.76273485  0.57604202  1
  N  N68  1  0.87499844  0.90177787  0.36500667  1
  N  N69  1  0.74944760  0.76934697  0.09218137  1
  N  N70  1  0.55455724  0.87316861  0.82616384  1
  N  N71  1  0.44418839  0.76307747  0.57718538  1
