# generated using pymatgen
data_Al17BN18
_symmetry_space_group_name_H-M   'P 1'
_cell_length_a   9.32429979
_cell_length_b   9.33718643
_cell_length_c   10.07783192
_cell_angle_alpha   89.70824581
_cell_angle_beta   89.62654859
_cell_angle_gamma   59.95733285
_symmetry_Int_Tables_number   1
_chemical_formula_structural   Al17BN18
_chemical_formula_sum   'Al34 B2 N36'
_cell_volume   759.50899934
_cell_formula_units_Z   2
loop_
 _symmetry_equiv_pos_site_id
 _symmetry_equiv_pos_as_xyz
  1  'x, y, z'
loop_
 _atom_site_type_symbol
 _atom_site_label
 _atom_site_symmetry_multiplicity
 _atom_site_fract_x
 _atom_site_fract_y
 _atom_site_fract_z
 _atom_site_occupancy
  Al  Al0  1  0.10560677  0.09406288  0.38817659  1
  Al  Al1  1  0.22320743  0.20077911  0.13741113  1
  Al  Al2  1  0.77289846  0.09058090  0.81928062  1
  Al  Al3  1  0.89210358  0.20891979  0.63742379  1
  Al  Al4  1  0.44789009  0.08883390  0.37110400  1
  Al  Al5  1  0.55970131  0.19790083  0.08166453  1
  Al  Al6  1  0.10992261  0.09492653  0.88774451  1
  Al  Al7  1  0.22668814  0.20354720  0.63507568  1
  Al  Al8  1  0.88874766  0.20683764  0.14209461  1
  Al  Al9  1  0.44426466  0.08531769  0.89138442  1
  Al  Al10  1  0.56846716  0.19817980  0.55959141  1
  Al  Al11  1  0.11026840  0.42684637  0.38785126  1
  Al  Al12  1  0.22275543  0.53376702  0.13714029  1
  Al  Al13  1  0.77837433  0.42655458  0.88706472  1
  Al  Al14  1  0.88768999  0.54320683  0.63469369  1
  Al  Al15  1  0.44705071  0.43124460  0.37995347  1
  Al  Al16  1  0.55719870  0.54451217  0.13763656  1
  Al  Al17  1  0.11184488  0.42629766  0.88544688  1
  Al  Al18  1  0.22601399  0.53317967  0.63380037  1
  Al  Al19  1  0.77673870  0.42336242  0.38763792  1
  Al  Al20  1  0.88340794  0.54114019  0.13677758  1
  Al  Al21  1  0.44339779  0.43230788  0.89037135  1
  Al  Al22  1  0.55514626  0.53969093  0.63584898  1
  Al  Al23  1  0.10208096  0.77033961  0.32064412  1
  Al  Al24  1  0.22972609  0.87688476  0.13527177  1
  Al  Al25  1  0.76960071  0.76029358  0.89196859  1
  Al  Al26  1  0.89025026  0.88074540  0.55836052  1
  Al  Al27  1  0.44580202  0.76316997  0.38248153  1
  Al  Al28  1  0.10608174  0.76325235  0.82937491  1
  Al  Al29  1  0.22664700  0.87398052  0.63489938  1
  Al  Al30  1  0.77131582  0.76499481  0.37278664  1
  Al  Al31  1  0.88377636  0.87660030  0.07835785  1
  Al  Al32  1  0.44798390  0.76302530  0.88930073  1
  Al  Al33  1  0.55856391  0.87286868  0.63206181  1
  B  B34  1  0.77309191  0.09387288  0.30815540  1
  B  B35  1  0.55442085  0.87002817  0.13959446  1
  N  N36  1  0.21918974  0.20632311  0.32539469  1
  N  N37  1  0.10743822  0.09635520  0.07626768  1
  N  N38  1  0.89110777  0.20759690  0.82845701  1
  N  N39  1  0.77636108  0.09090340  0.63153091  1
  N  N40  1  0.58452390  0.19243646  0.36323407  1
  N  N41  1  0.45242049  0.06545917  0.08663315  1
  N  N42  1  0.22533031  0.20327675  0.82645010  1
  N  N43  1  0.11191057  0.09513698  0.57665119  1
  N  N44  1  0.87937044  0.19742832  0.33229368  1
  N  N45  1  0.77285025  0.09017211  0.14830949  1
  N  N46  1  0.56005599  0.20089095  0.88632763  1
  N  N47  1  0.44405523  0.09036812  0.56583509  1
  N  N48  1  0.22270513  0.53485085  0.32865505  1
  N  N49  1  0.11030020  0.42642828  0.07510650  1
  N  N50  1  0.88803482  0.54167461  0.82649418  1
  N  N51  1  0.77809094  0.42868800  0.57680627  1
  N  N52  1  0.55708115  0.54173691  0.32507720  1
  N  N53  1  0.44268957  0.43494809  0.08244990  1
  N  N54  1  0.22661956  0.53213716  0.82690189  1
  N  N55  1  0.11131596  0.42639429  0.57694953  1
  N  N56  1  0.88925569  0.53697549  0.32506125  1
  N  N57  1  0.77799960  0.42539068  0.07632661  1
  N  N58  1  0.55525244  0.54062917  0.82717481  1
  N  N59  1  0.44548155  0.42983757  0.57269587  1
  N  N60  1  0.22583226  0.87656895  0.32665150  1
  N  N61  1  0.10839432  0.76385262  0.12128589  1
  N  N62  1  0.88807426  0.87535715  0.88732751  1
  N  N63  1  0.77600706  0.76017363  0.56564427  1
  N  N64  1  0.55450864  0.87085355  0.30197742  1
  N  N65  1  0.45764470  0.77259768  0.08141557  1
  N  N66  1  0.22742444  0.87360905  0.82956490  1
  N  N67  1  0.10692019  0.76373796  0.61785210  1
  N  N68  1  0.87476184  0.90270236  0.36565066  1
  N  N69  1  0.74889535  0.77037271  0.08588939  1
  N  N70  1  0.55712939  0.87202645  0.82015723  1
  N  N71  1  0.44729773  0.76155301  0.57257705  1
