# generated using pymatgen
data_Al17BN18
_symmetry_space_group_name_H-M   'P 1'
_cell_length_a   9.32252923
_cell_length_b   9.32140456
_cell_length_c   10.11822298
_cell_angle_alpha   89.60738303
_cell_angle_beta   89.60235637
_cell_angle_gamma   60.02474790
_symmetry_Int_Tables_number   1
_chemical_formula_structural   Al17BN18
_chemical_formula_sum   'Al34 B2 N36'
_cell_volume   761.63073674
_cell_formula_units_Z   2
loop_
 _symmetry_equiv_pos_site_id
 _symmetry_equiv_pos_as_xyz
  1  'x, y, z'
loop_
 _atom_site_type_symbol
 _atom_site_label
 _atom_site_symmetry_multiplicity
 _atom_site_fract_x
 _atom_site_fract_y
 _atom_site_fract_z
 _atom_site_occupancy
  Al  Al0  1  0.10579176  0.09235402  0.38925401  1
  Al  Al1  1  0.22313191  0.20064882  0.13848934  1
  Al  Al2  1  0.77424070  0.09002724  0.81996392  1
  Al  Al3  1  0.89244128  0.20923859  0.63844754  1
  Al  Al4  1  0.44807287  0.08735555  0.37334669  1
  Al  Al5  1  0.55975718  0.19834033  0.08415058  1
  Al  Al6  1  0.11061411  0.09320676  0.88842107  1
  Al  Al7  1  0.22771808  0.20493151  0.63553506  1
  Al  Al8  1  0.88926695  0.20624104  0.14311825  1
  Al  Al9  1  0.44461340  0.08553706  0.89359232  1
  Al  Al10  1  0.56643913  0.20470082  0.55807396  1
  Al  Al11  1  0.10616395  0.42436982  0.38627523  1
  Al  Al12  1  0.22014223  0.54341896  0.07258652  1
  Al  Al13  1  0.77950568  0.42642070  0.88867465  1
  Al  Al14  1  0.88848110  0.54319128  0.63546953  1
  Al  Al15  1  0.44739315  0.42351883  0.32693047  1
  Al  Al16  1  0.55946501  0.54615099  0.13803594  1
  Al  Al17  1  0.10837906  0.42394214  0.88610416  1
  Al  Al18  1  0.22551182  0.54265220  0.56567395  1
  Al  Al19  1  0.77566017  0.42295167  0.38981448  1
  Al  Al20  1  0.88252560  0.54149851  0.13823311  1
  Al  Al21  1  0.44726752  0.42552426  0.85027499  1
  Al  Al22  1  0.55678746  0.54092942  0.63665909  1
  Al  Al23  1  0.10266682  0.76575532  0.31616307  1
  Al  Al24  1  0.22968757  0.87670997  0.13753570  1
  Al  Al25  1  0.76957617  0.76086264  0.89212620  1
  Al  Al26  1  0.88935671  0.88218178  0.55979160  1
  Al  Al27  1  0.44540091  0.76231226  0.38357112  1
  Al  Al28  1  0.10580736  0.75947560  0.81847488  1
  Al  Al29  1  0.22795968  0.87486526  0.63683001  1
  Al  Al30  1  0.77116863  0.76532467  0.37445954  1
  Al  Al31  1  0.88410622  0.87661983  0.07698880  1
  Al  Al32  1  0.44659349  0.76451836  0.89032001  1
  Al  Al33  1  0.55862701  0.87431120  0.63275027  1
  B  B34  1  0.77603755  0.09123907  0.30938780  1
  B  B35  1  0.55432650  0.87086635  0.14011002  1
  N  N36  1  0.22009381  0.20501843  0.32536423  1
  N  N37  1  0.10767886  0.09499335  0.07654976  1
  N  N38  1  0.89185534  0.20793509  0.82889394  1
  N  N39  1  0.77540352  0.09176093  0.63263455  1
  N  N40  1  0.58506339  0.19172003  0.36430929  1
  N  N41  1  0.45258806  0.06494551  0.08713255  1
  N  N42  1  0.22669670  0.20317762  0.82664498  1
  N  N43  1  0.11218356  0.09495952  0.57707025  1
  N  N44  1  0.87974909  0.19703992  0.33278759  1
  N  N45  1  0.77428572  0.08804218  0.14981942  1
  N  N46  1  0.56150906  0.20272659  0.89185010  1
  N  N47  1  0.44463212  0.09118612  0.56556761  1
  N  N48  1  0.22033260  0.54383797  0.37347753  1
  N  N49  1  0.10570747  0.42368354  0.07761501  1
  N  N50  1  0.88780970  0.54256417  0.82620965  1
  N  N51  1  0.77851548  0.42882465  0.57769662  1
  N  N52  1  0.55919754  0.54272569  0.32658142  1
  N  N53  1  0.44259264  0.42735864  0.12193048  1
  N  N54  1  0.22297881  0.54271410  0.88040536  1
  N  N55  1  0.10867702  0.42508309  0.57738482  1
  N  N56  1  0.88714984  0.53784039  0.32524534  1
  N  N57  1  0.77805272  0.42466830  0.07657656  1
  N  N58  1  0.55825824  0.54325326  0.83005258  1
  N  N59  1  0.44733347  0.42471068  0.60746038  1
  N  N60  1  0.22538425  0.87533017  0.32745155  1
  N  N61  1  0.10700996  0.76163059  0.12807367  1
  N  N62  1  0.89007703  0.87465020  0.88701104  1
  N  N63  1  0.77599891  0.76048720  0.56652080  1
  N  N64  1  0.55482472  0.87058243  0.30228315  1
  N  N65  1  0.45631470  0.77288395  0.08159864  1
  N  N66  1  0.22717226  0.87320934  0.82888332  1
  N  N67  1  0.10598725  0.76138245  0.62690618  1
  N  N68  1  0.87675023  0.90204507  0.36820480  1
  N  N69  1  0.74838497  0.77068991  0.08538026  1
  N  N70  1  0.55696802  0.87347779  0.82063536  1
  N  N71  1  0.44716505  0.76217902  0.57300909  1
