# generated using pymatgen
data_Al17BN18
_symmetry_space_group_name_H-M   'P 1'
_cell_length_a   9.35511508
_cell_length_b   9.34649312
_cell_length_c   10.11476143
_cell_angle_alpha   89.66684601
_cell_angle_beta   89.67501634
_cell_angle_gamma   59.93818204
_symmetry_Int_Tables_number   1
_chemical_formula_structural   Al17BN18
_chemical_formula_sum   'Al34 B2 N36'
_cell_volume   765.42683474
_cell_formula_units_Z   2
loop_
 _symmetry_equiv_pos_site_id
 _symmetry_equiv_pos_as_xyz
  1  'x, y, z'
loop_
 _atom_site_type_symbol
 _atom_site_label
 _atom_site_symmetry_multiplicity
 _atom_site_fract_x
 _atom_site_fract_y
 _atom_site_fract_z
 _atom_site_occupancy
  Al  Al0  1  0.10246858  0.09350493  0.32100626  1
  Al  Al1  1  0.22909370  0.20442452  0.13992765  1
  Al  Al2  1  0.77638952  0.09227621  0.82274586  1
  Al  Al3  1  0.88610843  0.20492854  0.56595054  1
  Al  Al4  1  0.44948179  0.08739160  0.37724511  1
  Al  Al5  1  0.56272085  0.20019245  0.08172502  1
  Al  Al6  1  0.10837794  0.09151966  0.82177292  1
  Al  Al7  1  0.22917852  0.20766039  0.63733800  1
  Al  Al8  1  0.88767625  0.20512513  0.07285242  1
  Al  Al9  1  0.44508182  0.08507241  0.89595272  1
  Al  Al10  1  0.56469988  0.20475677  0.56303740  1
  Al  Al11  1  0.10826862  0.42504879  0.39033256  1
  Al  Al12  1  0.22486176  0.54150205  0.06831013  1
  Al  Al13  1  0.78103575  0.42161783  0.82375576  1
  Al  Al14  1  0.89098183  0.54553677  0.63676881  1
  Al  Al15  1  0.44489488  0.42128474  0.31990342  1
  Al  Al16  1  0.55359804  0.54839709  0.13707252  1
  Al  Al17  1  0.10808049  0.42433894  0.88871898  1
  Al  Al18  1  0.22539324  0.54162531  0.57024200  1
  Al  Al19  1  0.77991394  0.41779614  0.32187243  1
  Al  Al20  1  0.88790080  0.54540055  0.13881233  1
  Al  Al21  1  0.44187649  0.42104780  0.82282010  1
  Al  Al22  1  0.55276033  0.54456963  0.63669059  1
  Al  Al23  1  0.10624769  0.76405277  0.32019351  1
  Al  Al24  1  0.22558437  0.87367590  0.09911878  1
  Al  Al25  1  0.76944496  0.76194658  0.89576890  1
  Al  Al26  1  0.88730733  0.88178445  0.56328625  1
  Al  Al27  1  0.44849664  0.76059228  0.38367976  1
  Al  Al28  1  0.10784633  0.76153073  0.82236105  1
  Al  Al29  1  0.22035778  0.87408587  0.58812389  1
  Al  Al30  1  0.77115721  0.76637521  0.37704979  1
  Al  Al31  1  0.88349154  0.87952409  0.08188694  1
  Al  Al32  1  0.44898179  0.76144298  0.89255051  1
  Al  Al33  1  0.55763109  0.87402181  0.63698749  1
  B  B34  1  0.77790027  0.09450739  0.31610667  1
  B  B35  1  0.55555295  0.87163250  0.14341153  1
  N  N36  1  0.22496586  0.20862920  0.32907466  1
  N  N37  1  0.10605130  0.09658479  0.12976618  1
  N  N38  1  0.88833391  0.20303036  0.88427684  1
  N  N39  1  0.77727121  0.09440318  0.63525103  1
  N  N40  1  0.58455070  0.19342676  0.37024020  1
  N  N41  1  0.45630045  0.06528385  0.08877534  1
  N  N42  1  0.22893519  0.20588579  0.82935360  1
  N  N43  1  0.10588044  0.09695215  0.62723599  1
  N  N44  1  0.87637319  0.19338671  0.37558096  1
  N  N45  1  0.77896575  0.09587400  0.15384836  1
  N  N46  1  0.55964856  0.20452344  0.88991315  1
  N  N47  1  0.44494417  0.09047286  0.56913231  1
  N  N48  1  0.22460878  0.54206931  0.38064681  1
  N  N49  1  0.10837716  0.42474582  0.07837493  1
  N  N50  1  0.88994372  0.54555269  0.82967075  1
  N  N51  1  0.78192460  0.42247390  0.62528523  1
  N  N52  1  0.55259118  0.54288689  0.33235072  1
  N  N53  1  0.44081977  0.42498387  0.12996553  1
  N  N54  1  0.22364327  0.54139393  0.87884881  1
  N  N55  1  0.10893072  0.42570225  0.57985128  1
  N  N56  1  0.89209626  0.54165035  0.32867923  1
  N  N57  1  0.78091112  0.42315102  0.12554349  1
  N  N58  1  0.55176919  0.54359900  0.83426877  1
  N  N59  1  0.44329560  0.42094817  0.62961887  1
  N  N60  1  0.22082889  0.87247418  0.36357815  1
  N  N61  1  0.10950484  0.75863657  0.13226730  1
  N  N62  1  0.88928344  0.87544531  0.88966756  1
  N  N63  1  0.77434324  0.76177673  0.56925393  1
  N  N64  1  0.55479871  0.87123010  0.30497204  1
  N  N65  1  0.45938232  0.77319872  0.08577001  1
  N  N66  1  0.22265214  0.87057472  0.86730365  1
  N  N67  1  0.10586553  0.76166205  0.63022315  1
  N  N68  1  0.87657921  0.90145285  0.37011012  1
  N  N69  1  0.74927364  0.77329712  0.08875471  1
  N  N70  1  0.55654719  0.87234658  0.82390113  1
  N  N71  1  0.45006803  0.76134724  0.57486969  1
