# generated using pymatgen
data_Al17BN18
_symmetry_space_group_name_H-M   'P 1'
_cell_length_a   9.29943294
_cell_length_b   9.29943395
_cell_length_c   9.93900632
_cell_angle_alpha   90.02501746
_cell_angle_beta   90.02500790
_cell_angle_gamma   60.01368558
_symmetry_Int_Tables_number   1
_chemical_formula_structural   Al17BN18
_chemical_formula_sum   'Al34 B2 N36'
_cell_volume   744.46862420
_cell_formula_units_Z   2
loop_
 _symmetry_equiv_pos_site_id
 _symmetry_equiv_pos_as_xyz
  1  'x, y, z'
loop_
 _atom_site_type_symbol
 _atom_site_label
 _atom_site_symmetry_multiplicity
 _atom_site_fract_x
 _atom_site_fract_y
 _atom_site_fract_z
 _atom_site_occupancy
  Al  Al0  1  0.10782585  0.09267173  0.29529158  1
  Al  Al1  1  0.22590432  0.20005078  0.04512314  1
  Al  Al2  1  0.77770481  0.09437232  0.79655949  1
  Al  Al3  1  0.88598055  0.20264613  0.54071051  1
  Al  Al4  1  0.45218234  0.08742823  0.29063382  1
  Al  Al5  1  0.55942636  0.19934177  0.05142333  1
  Al  Al6  1  0.10930514  0.09520008  0.79477949  1
  Al  Al7  1  0.22398360  0.20474144  0.54533493  1
  Al  Al8  1  0.88755538  0.20422182  0.05124589  1
  Al  Al9  1  0.44671978  0.09250661  0.80215428  1
  Al  Al10  1  0.56026287  0.20174666  0.54119735  1
  Al  Al11  1  0.11130141  0.42796712  0.29424720  1
  Al  Al12  1  0.22241878  0.53908614  0.04440498  1
  Al  Al13  1  0.77853391  0.42597141  0.79477958  1
  Al  Al14  1  0.88807552  0.54064931  0.54533503  1
  Al  Al15  1  0.44936403  0.42449853  0.29486285  1
  Al  Al16  1  0.55720658  0.54237067  0.04454695  1
  Al  Al17  1  0.11091117  0.42757724  0.79517629  1
  Al  Al18  1  0.22214772  0.53881479  0.54493487  1
  Al  Al19  1  0.77600414  0.42449351  0.29529150  1
  Al  Al20  1  0.88338472  0.54257048  0.04512297  1
  Al  Al21  1  0.44578821  0.42580253  0.79534699  1
  Al  Al22  1  0.55493626  0.54043974  0.54544540  1
  Al  Al23  1  0.10783127  0.76603083  0.29486267  1
  Al  Al24  1  0.22570417  0.87387303  0.04454727  1
  Al  Al25  1  0.77583951  0.76338668  0.80215431  1
  Al  Al26  1  0.88508025  0.87692980  0.54119731  1
  Al  Al27  1  0.44725751  0.76392476  0.29069027  1
  Al  Al28  1  0.10913501  0.76245587  0.79534712  1
  Al  Al29  1  0.22377440  0.87160170  0.54544509  1
  Al  Al30  1  0.77076234  0.76884828  0.29063377  1
  Al  Al31  1  0.88267393  0.87609410  0.05142321  1
  Al  Al32  1  0.44573311  0.76240044  0.80163737  1
  Al  Al33  1  0.55576310  0.87242840  0.54717414  1
  B  B34  1  0.77746572  0.09413309  0.29062658  1
  B  B35  1  0.55557680  0.87224345  0.04137975  1
  N  N36  1  0.22510058  0.20398709  0.35230824  1
  N  N37  1  0.11095519  0.09428973  0.10540279  1
  N  N38  1  0.88803263  0.20469909  0.85852105  1
  N  N39  1  0.77753965  0.09420658  0.60750747  1
  N  N40  1  0.57938391  0.19213910  0.34545327  1
  N  N41  1  0.45702675  0.06883312  0.09734948  1
  N  N42  1  0.22190406  0.20514495  0.85421828  1
  N  N43  1  0.10899766  0.09562386  0.60190106  1
  N  N44  1  0.87614988  0.19281730  0.34715373  1
  N  N45  1  0.77789349  0.09456101  0.12618121  1
  N  N46  1  0.55773499  0.20477907  0.85973608  1
  N  N47  1  0.44640308  0.09399329  0.60798954  1
  N  N48  1  0.22262248  0.53928940  0.35359665  1
  N  N49  1  0.11081554  0.42748177  0.10305028  1
  N  N50  1  0.88847851  0.53857069  0.85421810  1
  N  N51  1  0.77895819  0.42566330  0.60190116  1
  N  N52  1  0.55399543  0.54198786  0.35343306  1
  N  N53  1  0.44506222  0.42799619  0.10411185  1
  N  N54  1  0.22243967  0.53910718  0.85302408  1
  N  N55  1  0.11092015  0.42758617  0.60367751  1
  N  N56  1  0.88732101  0.54176671  0.35230823  1
  N  N57  1  0.77762310  0.42762184  0.10540267  1
  N  N58  1  0.55624633  0.53799232  0.85395009  1
  N  N59  1  0.44597049  0.42520081  0.60222667  1
  N  N60  1  0.22532055  0.87066258  0.35343278  1
  N  N61  1  0.11132855  0.76172956  0.10411174  1
  N  N62  1  0.88811144  0.87440255  0.85973599  1
  N  N63  1  0.77732757  0.76306906  0.60798950  1
  N  N64  1  0.55537573  0.87204179  0.35866561  1
  N  N65  1  0.45691185  0.77357844  0.09650959  1
  N  N66  1  0.22132541  0.87291307  0.85395042  1
  N  N67  1  0.10853424  0.76263740  0.60222678  1
  N  N68  1  0.87547199  0.89605102  0.34545332  1
  N  N69  1  0.75216657  0.77369322  0.09734937  1
  N  N70  1  0.55564934  0.87231642  0.87555601  1
  N  N71  1  0.44538123  0.76204701  0.60932903  1
