# generated using pymatgen
data_Al17BN18
_symmetry_space_group_name_H-M   'P 1'
_cell_length_a   9.31844636
_cell_length_b   9.31844931
_cell_length_c   10.12427645
_cell_angle_alpha   89.65142537
_cell_angle_beta   89.65130774
_cell_angle_gamma   60.07336741
_symmetry_Int_Tables_number   1
_chemical_formula_structural   Al17BN18
_chemical_formula_sum   'Al34 B2 N36'
_cell_volume   761.88891509
_cell_formula_units_Z   2
loop_
 _symmetry_equiv_pos_site_id
 _symmetry_equiv_pos_as_xyz
  1  'x, y, z'
loop_
 _atom_site_type_symbol
 _atom_site_label
 _atom_site_symmetry_multiplicity
 _atom_site_fract_x
 _atom_site_fract_y
 _atom_site_fract_z
 _atom_site_occupancy
  Al  Al0  1  0.10965241  0.09071793  0.38495552  1
  Al  Al1  1  0.22611687  0.20153955  0.13908929  1
  Al  Al2  1  0.77602408  0.09269924  0.82198033  1
  Al  Al3  1  0.88674541  0.20341711  0.59299069  1
  Al  Al4  1  0.44933786  0.08794811  0.37472488  1
  Al  Al5  1  0.56061965  0.20103430  0.07948608  1
  Al  Al6  1  0.11331265  0.09168743  0.88861426  1
  Al  Al7  1  0.22585249  0.20462184  0.63672589  1
  Al  Al8  1  0.88769010  0.20436156  0.10442038  1
  Al  Al9  1  0.44496639  0.08573091  0.89337330  1
  Al  Al10  1  0.56301910  0.20557194  0.56104399  1
  Al  Al11  1  0.10792087  0.42459323  0.38819854  1
  Al  Al12  1  0.22491676  0.54158891  0.06743667  1
  Al  Al13  1  0.77501204  0.42998797  0.88861483  1
  Al  Al14  1  0.88794900  0.54252463  0.63672601  1
  Al  Al15  1  0.44659241  0.42132215  0.31768148  1
  Al  Al16  1  0.55823407  0.54799418  0.13860426  1
  Al  Al17  1  0.10745782  0.42413215  0.88608929  1
  Al  Al18  1  0.22538914  0.54206169  0.56925249  1
  Al  Al19  1  0.77404509  0.42632370  0.38495564  1
  Al  Al20  1  0.88486791  0.54278829  0.13908929  1
  Al  Al21  1  0.44324676  0.42131330  0.82019328  1
  Al  Al22  1  0.55792157  0.54361915  0.63778486  1
  Al  Al23  1  0.10464846  0.76326604  0.31768155  1
  Al  Al24  1  0.23132120  0.87490679  0.13860401  1
  Al  Al25  1  0.76905647  0.76164091  0.89337332  1
  Al  Al26  1  0.88889856  0.87969139  0.56104425  1
  Al  Al27  1  0.44558396  0.76225734  0.38374163  1
  Al  Al28  1  0.10463850  0.75992156  0.82019328  1
  Al  Al29  1  0.22694578  0.87459477  0.63778487  1
  Al  Al30  1  0.77127639  0.76600851  0.37472497  1
  Al  Al31  1  0.88436158  0.87729220  0.07948603  1
  Al  Al32  1  0.44637128  0.76304631  0.89065497  1
  Al  Al33  1  0.55763807  0.87431132  0.63400901  1
  B  B34  1  0.77914586  0.09581842  0.31436696  1
  B  B35  1  0.55535415  0.87202624  0.14049479  1
  N  N36  1  0.22189636  0.20605441  0.32569146  1
  N  N37  1  0.11547666  0.09214281  0.07880850  1
  N  N38  1  0.88772392  0.20439904  0.86165579  1
  N  N39  1  0.77466264  0.09133538  0.63417749  1
  N  N40  1  0.58413572  0.19464782  0.36940606  1
  N  N41  1  0.45541933  0.06552747  0.08700329  1
  N  N42  1  0.22630933  0.20323205  0.82659625  1
  N  N43  1  0.11488953  0.09284833  0.57562164  1
  N  N44  1  0.87675112  0.19342265  0.35542014  1
  N  N45  1  0.77565050  0.09232298  0.15251815  1
  N  N46  1  0.55857826  0.20580792  0.88859190  1
  N  N47  1  0.44326786  0.09128391  0.56719591  1
  N  N48  1  0.22535244  0.54202598  0.37943646  1
  N  N49  1  0.10732011  0.42399178  0.07706700  1
  N  N50  1  0.88655782  0.54298344  0.82659646  1
  N  N51  1  0.77617562  0.43156140  0.57562187  1
  N  N52  1  0.55703257  0.54329292  0.32723777  1
  N  N53  1  0.44205396  0.42560286  0.12884597  1
  N  N54  1  0.22450167  0.54117649  0.87783403  1
  N  N55  1  0.10807341  0.42474596  0.57889339  1
  N  N56  1  0.88938229  0.53856740  0.32569144  1
  N  N57  1  0.77547043  0.43214860  0.07880904  1
  N  N58  1  0.55614546  0.54376375  0.82884328  1
  N  N59  1  0.44451328  0.42163485  0.62845593  1
  N  N60  1  0.22661997  0.87370554  0.32723745  1
  N  N61  1  0.10893004  0.75872655  0.12884589  1
  N  N62  1  0.88913298  0.87525334  0.88859187  1
  N  N63  1  0.77461109  0.75993977  0.56719603  1
  N  N64  1  0.55477113  0.87144305  0.30301228  1
  N  N65  1  0.45656594  0.77323868  0.08169314  1
  N  N66  1  0.22708894  0.87282030  0.82884319  1
  N  N67  1  0.10496161  0.76118626  0.62845584  1
  N  N68  1  0.87797437  0.90080828  0.36940625  1
  N  N69  1  0.74885527  0.77209119  0.08700337  1
  N  N70  1  0.55640790  0.87308212  0.82144417  1
  N  N71  1  0.44570678  0.76237994  0.57279985  1
