# generated using pymatgen
data_Al17BN18
_symmetry_space_group_name_H-M   'P 1'
_cell_length_a   9.33453263
_cell_length_b   9.33958805
_cell_length_c   10.08332737
_cell_angle_alpha   89.68794699
_cell_angle_beta   89.60229026
_cell_angle_gamma   59.99258901
_symmetry_Int_Tables_number   1
_chemical_formula_structural   Al17BN18
_chemical_formula_sum   'Al34 B2 N36'
_cell_volume   761.22101406
_cell_formula_units_Z   2
loop_
 _symmetry_equiv_pos_site_id
 _symmetry_equiv_pos_as_xyz
  1  'x, y, z'
loop_
 _atom_site_type_symbol
 _atom_site_label
 _atom_site_symmetry_multiplicity
 _atom_site_fract_x
 _atom_site_fract_y
 _atom_site_fract_z
 _atom_site_occupancy
  Al  Al0  1  0.10317216  0.08973712  0.32245111  1
  Al  Al1  1  0.23173620  0.19764213  0.14135837  1
  Al  Al2  1  0.77469020  0.09345857  0.82628854  1
  Al  Al3  1  0.88646549  0.20348364  0.56957598  1
  Al  Al4  1  0.44924169  0.08980666  0.38313059  1
  Al  Al5  1  0.56183960  0.20140322  0.08536141  1
  Al  Al6  1  0.10532269  0.09099008  0.82282801  1
  Al  Al7  1  0.22738408  0.20689120  0.63955866  1
  Al  Al8  1  0.88753949  0.20363818  0.07619950  1
  Al  Al9  1  0.44450485  0.08406950  0.90012257  1
  Al  Al10  1  0.56359318  0.20620334  0.56755080  1
  Al  Al11  1  0.11363685  0.42828638  0.34639678  1
  Al  Al12  1  0.22551121  0.54142398  0.07397658  1
  Al  Al13  1  0.77769224  0.42701459  0.82187190  1
  Al  Al14  1  0.88833373  0.53521570  0.56807282  1
  Al  Al15  1  0.45168313  0.42492137  0.32169348  1
  Al  Al16  1  0.55658836  0.54344803  0.07035451  1
  Al  Al17  1  0.11043119  0.42734507  0.86350925  1
  Al  Al18  1  0.22236212  0.54071270  0.57363479  1
  Al  Al19  1  0.77512778  0.42202772  0.32053860  1
  Al  Al20  1  0.88304456  0.53752409  0.08358073  1
  Al  Al21  1  0.44618465  0.42335008  0.82331157  1
  Al  Al22  1  0.55467185  0.54030801  0.57128775  1
  Al  Al23  1  0.11011958  0.76703402  0.32098308  1
  Al  Al24  1  0.22772273  0.87356308  0.07021932  1
  Al  Al25  1  0.76431146  0.76852967  0.89970079  1
  Al  Al26  1  0.88893127  0.88114958  0.56687092  1
  Al  Al27  1  0.44437166  0.76017441  0.31640531  1
  Al  Al28  1  0.10631627  0.76259441  0.82280432  1
  Al  Al29  1  0.22307065  0.87320247  0.57091712  1
  Al  Al30  1  0.77250939  0.77035108  0.37534340  1
  Al  Al31  1  0.88542748  0.87830453  0.08752583  1
  Al  Al32  1  0.44106335  0.75723710  0.82059210  1
  Al  Al33  1  0.55999692  0.87618504  0.63880348  1
  B  B34  1  0.77878157  0.09641370  0.31918887  1
  B  B35  1  0.55874555  0.87449105  0.15028058  1
  N  N36  1  0.22721953  0.20154662  0.33299413  1
  N  N37  1  0.10754636  0.09082467  0.13138716  1
  N  N38  1  0.88577124  0.20522483  0.88606323  1
  N  N39  1  0.77653840  0.09445731  0.63839257  1
  N  N40  1  0.58454446  0.19589262  0.37362082  1
  N  N41  1  0.45769486  0.06394099  0.09154203  1
  N  N42  1  0.22840031  0.20123070  0.83609682  1
  N  N43  1  0.10631951  0.09347218  0.63012759  1
  N  N44  1  0.87600921  0.19432414  0.37726478  1
  N  N45  1  0.77831907  0.09610035  0.15663231  1
  N  N46  1  0.55705490  0.20621180  0.89245188  1
  N  N47  1  0.44373419  0.09219808  0.57322008  1
  N  N48  1  0.22600518  0.54236084  0.38163839  1
  N  N49  1  0.11324538  0.42699431  0.11102017  1
  N  N50  1  0.88384506  0.53798785  0.88726189  1
  N  N51  1  0.77730475  0.42628965  0.63095346  1
  N  N52  1  0.55541039  0.54175239  0.38234876  1
  N  N53  1  0.44591300  0.42891835  0.13393150  1
  N  N54  1  0.22458512  0.54167937  0.88302745  1
  N  N55  1  0.10908049  0.43021350  0.60948054  1
  N  N56  1  0.88751754  0.53436955  0.37149124  1
  N  N57  1  0.77486202  0.42452133  0.13377253  1
  N  N58  1  0.55531221  0.53777601  0.88144181  1
  N  N59  1  0.44579287  0.42503207  0.63229527  1
  N  N60  1  0.22582448  0.87135850  0.38233339  1
  N  N61  1  0.11368965  0.76182021  0.13354986  1
  N  N62  1  0.88924332  0.87589532  0.89289015  1
  N  N63  1  0.77206968  0.76646497  0.57058773  1
  N  N64  1  0.55895140  0.87818704  0.31008252  1
  N  N65  1  0.45375350  0.76934561  0.12620748  1
  N  N66  1  0.22148642  0.87104906  0.88192980  1
  N  N67  1  0.10781011  0.76388728  0.63184878  1
  N  N68  1  0.88096648  0.90160134  0.37163648  1
  N  N69  1  0.74787946  0.77571470  0.09612403  1
  N  N70  1  0.55731385  0.87481954  0.82666711  1
  N  N71  1  0.44184691  0.75913254  0.62988520  1
