# generated using pymatgen
data_Al17BN18
_symmetry_space_group_name_H-M   'P 1'
_cell_length_a   9.32384221
_cell_length_b   9.31220077
_cell_length_c   10.03449773
_cell_angle_alpha   89.59998312
_cell_angle_beta   89.94421083
_cell_angle_gamma   59.94636236
_symmetry_Int_Tables_number   1
_chemical_formula_structural   Al17BN18
_chemical_formula_sum   'Al34 B2 N36'
_cell_volume   754.09507153
_cell_formula_units_Z   2
loop_
 _symmetry_equiv_pos_site_id
 _symmetry_equiv_pos_as_xyz
  1  'x, y, z'
loop_
 _atom_site_type_symbol
 _atom_site_label
 _atom_site_symmetry_multiplicity
 _atom_site_fract_x
 _atom_site_fract_y
 _atom_site_fract_z
 _atom_site_occupancy
  Al  Al0  1  0.10524370  0.09280730  0.31292289  1
  Al  Al1  1  0.21937349  0.20246816  0.06926762  1
  Al  Al2  1  0.77763955  0.09388868  0.81643059  1
  Al  Al3  1  0.88671767  0.20332937  0.56042250  1
  Al  Al4  1  0.45074948  0.09010922  0.37925723  1
  Al  Al5  1  0.56239329  0.20048607  0.07727063  1
  Al  Al6  1  0.11108535  0.09453665  0.81429374  1
  Al  Al7  1  0.21504862  0.21052823  0.56361375  1
  Al  Al8  1  0.88688555  0.20459699  0.06829378  1
  Al  Al9  1  0.45256826  0.08150169  0.87902246  1
  Al  Al10  1  0.56452983  0.20844675  0.56161461  1
  Al  Al11  1  0.10995019  0.42924368  0.31176418  1
  Al  Al12  1  0.22184785  0.53977284  0.06199154  1
  Al  Al13  1  0.77827617  0.42721725  0.81326561  1
  Al  Al14  1  0.88939852  0.53968859  0.56043047  1
  Al  Al15  1  0.44890351  0.42479788  0.31288908  1
  Al  Al16  1  0.55786108  0.54333225  0.06326842  1
  Al  Al17  1  0.11222944  0.42641041  0.81452612  1
  Al  Al18  1  0.22247521  0.53876276  0.56496109  1
  Al  Al19  1  0.77627128  0.42402422  0.31309097  1
  Al  Al20  1  0.88088473  0.54428453  0.06340124  1
  Al  Al21  1  0.44640866  0.42478492  0.81538146  1
  Al  Al22  1  0.55528741  0.53940092  0.56098399  1
  Al  Al23  1  0.10754197  0.76539423  0.31269806  1
  Al  Al24  1  0.22606782  0.87418562  0.06357411  1
  Al  Al25  1  0.78361178  0.75971069  0.80929760  1
  Al  Al26  1  0.88751814  0.87762841  0.55757700  1
  Al  Al27  1  0.44634906  0.76344002  0.31757791  1
  Al  Al28  1  0.10961253  0.76259532  0.81393958  1
  Al  Al29  1  0.22136675  0.87198314  0.56119719  1
  Al  Al30  1  0.77073529  0.76952529  0.31738357  1
  Al  Al31  1  0.88128724  0.87697961  0.07053707  1
  Al  Al32  1  0.44264052  0.75876491  0.80910033  1
  Al  Al33  1  0.55522193  0.87446004  0.60283538  1
  B  B34  1  0.77839880  0.09526648  0.31042235  1
  B  B35  1  0.55467335  0.87232225  0.10865321  1
  N  N36  1  0.21409316  0.20791039  0.36880632  1
  N  N37  1  0.10901963  0.09311258  0.12482015  1
  N  N38  1  0.88870059  0.20438121  0.87720803  1
  N  N39  1  0.77956491  0.09363481  0.62835845  1
  N  N40  1  0.58432957  0.19494632  0.36351086  1
  N  N41  1  0.46134583  0.05891535  0.08664855  1
  N  N42  1  0.22024849  0.20582909  0.87727389  1
  N  N43  1  0.10924811  0.09482322  0.62275859  1
  N  N44  1  0.87644639  0.19287391  0.36718454  1
  N  N45  1  0.77991680  0.09401392  0.14626846  1
  N  N46  1  0.56016807  0.20584085  0.88376841  1
  N  N47  1  0.44257823  0.10367507  0.57711927  1
  N  N48  1  0.22282172  0.53806816  0.37374916  1
  N  N49  1  0.10897835  0.43007166  0.12210684  1
  N  N50  1  0.88877250  0.53917588  0.87407387  1
  N  N51  1  0.77887941  0.42661037  0.62095966  1
  N  N52  1  0.55498453  0.53888797  0.37105247  1
  N  N53  1  0.44373671  0.43000766  0.12376930  1
  N  N54  1  0.22290858  0.53859887  0.87228593  1
  N  N55  1  0.10981981  0.42875141  0.62459759  1
  N  N56  1  0.88798662  0.53975177  0.36960944  1
  N  N57  1  0.77770219  0.42730665  0.12395018  1
  N  N58  1  0.55594471  0.53871165  0.87425627  1
  N  N59  1  0.44640892  0.42694501  0.62393573  1
  N  N60  1  0.22224646  0.87118848  0.37108025  1
  N  N61  1  0.11104485  0.76139213  0.12295932  1
  N  N62  1  0.88833423  0.87271601  0.87995134  1
  N  N63  1  0.78937998  0.75781634  0.61806428  1
  N  N64  1  0.55784468  0.86536864  0.37654969  1
  N  N65  1  0.45892768  0.77536192  0.12053017  1
  N  N66  1  0.22325594  0.87137281  0.87449752  1
  N  N67  1  0.10884364  0.76292197  0.62204161  1
  N  N68  1  0.87665119  0.89706110  0.36403639  1
  N  N69  1  0.74727827  0.77613630  0.12126915  1
  N  N70  1  0.55604511  0.87312294  0.81626438  1
  N  N71  1  0.43921077  0.75659655  0.61973541  1
