# generated using pymatgen
data_Al17BN18
_symmetry_space_group_name_H-M   'P 1'
_cell_length_a   9.29996001
_cell_length_b   9.29737837
_cell_length_c   9.97707397
_cell_angle_alpha   89.86321054
_cell_angle_beta   89.96458061
_cell_angle_gamma   59.99228336
_symmetry_Int_Tables_number   1
_chemical_formula_structural   Al17BN18
_chemical_formula_sum   'Al34 B2 N36'
_cell_volume   747.03388482
_cell_formula_units_Z   2
loop_
 _symmetry_equiv_pos_site_id
 _symmetry_equiv_pos_as_xyz
  1  'x, y, z'
loop_
 _atom_site_type_symbol
 _atom_site_label
 _atom_site_symmetry_multiplicity
 _atom_site_fract_x
 _atom_site_fract_y
 _atom_site_fract_z
 _atom_site_occupancy
  Al  Al0  1  0.10684101  0.09296743  0.31295917  1
  Al  Al1  1  0.22681054  0.19901547  0.06391874  1
  Al  Al2  1  0.77736781  0.09390316  0.81577054  1
  Al  Al3  1  0.88627170  0.20279499  0.55994010  1
  Al  Al4  1  0.45161903  0.08828481  0.31722467  1
  Al  Al5  1  0.55954017  0.19823466  0.07070770  1
  Al  Al6  1  0.11043179  0.09468061  0.81388603  1
  Al  Al7  1  0.22209833  0.20617174  0.56313670  1
  Al  Al8  1  0.88730385  0.20454019  0.06864621  1
  Al  Al9  1  0.44679690  0.09276359  0.81519672  1
  Al  Al10  1  0.56092608  0.20336322  0.55951133  1
  Al  Al11  1  0.11123071  0.42806382  0.31184043  1
  Al  Al12  1  0.22226724  0.53922798  0.06203796  1
  Al  Al13  1  0.77811128  0.42712512  0.81349728  1
  Al  Al14  1  0.88952444  0.53907946  0.56245444  1
  Al  Al15  1  0.44905629  0.42446720  0.31265018  1
  Al  Al16  1  0.55731168  0.54354949  0.06306708  1
  Al  Al17  1  0.11097355  0.42748504  0.81424945  1
  Al  Al18  1  0.22234692  0.53870790  0.56413533  1
  Al  Al19  1  0.77627881  0.42375081  0.31289919  1
  Al  Al20  1  0.88199591  0.54384871  0.06342430  1
  Al  Al21  1  0.44612470  0.42577249  0.81474091  1
  Al  Al22  1  0.55535183  0.53878905  0.56277175  1
  Al  Al23  1  0.10783181  0.76562247  0.31256931  1
  Al  Al24  1  0.22644432  0.87425054  0.06308374  1
  Al  Al25  1  0.77648170  0.76321403  0.81487687  1
  Al  Al26  1  0.88662293  0.87739167  0.55893077  1
  Al  Al27  1  0.44686931  0.76365126  0.31543661  1
  Al  Al28  1  0.10929378  0.76260006  0.81425837  1
  Al  Al29  1  0.22217777  0.87193012  0.56282590  1
  Al  Al30  1  0.77132475  0.76872432  0.31544317  1
  Al  Al31  1  0.88139716  0.87669227  0.07006563  1
  Al  Al32  1  0.44566236  0.76222654  0.81440926  1
  Al  Al33  1  0.55601383  0.87214641  0.57159742  1
  B  B34  1  0.77802264  0.09441159  0.30942920  1
  B  B35  1  0.55513727  0.87275308  0.08646177  1
  N  N36  1  0.22262127  0.20478896  0.37101711  1
  N  N37  1  0.11063189  0.09442488  0.12369484  1
  N  N38  1  0.88807680  0.20471495  0.87680955  1
  N  N39  1  0.77787193  0.09405680  0.62678662  1
  N  N40  1  0.58015913  0.19290148  0.36468291  1
  N  N41  1  0.45829070  0.06593261  0.12241524  1
  N  N42  1  0.22315553  0.20477441  0.87358677  1
  N  N43  1  0.10927723  0.09533390  0.62117348  1
  N  N44  1  0.87618105  0.19271775  0.36605663  1
  N  N45  1  0.77795931  0.09484849  0.14496866  1
  N  N46  1  0.55701494  0.20432691  0.87938296  1
  N  N47  1  0.44442104  0.09832197  0.62144803  1
  N  N48  1  0.22258014  0.53891543  0.37263447  1
  N  N49  1  0.11062712  0.42767523  0.12131250  1
  N  N50  1  0.88845526  0.53947017  0.87328419  1
  N  N51  1  0.77899382  0.42591433  0.62072025  1
  N  N52  1  0.55478237  0.54002334  0.37161177  1
  N  N53  1  0.44485534  0.42815877  0.12255596  1
  N  N54  1  0.22255498  0.53899611  0.87162562  1
  N  N55  1  0.11089256  0.42758823  0.62304845  1
  N  N56  1  0.88800797  0.53992677  0.37032620  1
  N  N57  1  0.77754128  0.42773825  0.12365507  1
  N  N58  1  0.55558598  0.53896334  0.87323189  1
  N  N59  1  0.44618988  0.42532507  0.62189389  1
  N  N60  1  0.22346026  0.87128686  0.37166640  1
  N  N61  1  0.11118263  0.76171358  0.12248950  1
  N  N62  1  0.88817992  0.87327734  0.87895693  1
  N  N63  1  0.78204086  0.76082339  0.62156077  1
  N  N64  1  0.55551577  0.87143732  0.38212028  1
  N  N65  1  0.45831363  0.77544372  0.12048972  1
  N  N66  1  0.22256396  0.87184146  0.87323349  1
  N  N67  1  0.10875764  0.76257280  0.62143588  1
  N  N68  1  0.87621675  0.89667887  0.36412455  1
  N  N69  1  0.74870610  0.77564508  0.12134668  1
  N  N70  1  0.55598181  0.87214764  0.86860803  1
  N  N71  1  0.44318223  0.75963914  0.62307626  1
