# generated using pymatgen
data_Al17BN18
_symmetry_space_group_name_H-M   'P 1'
_cell_length_a   9.29942951
_cell_length_b   9.29942991
_cell_length_c   9.93898991
_cell_angle_alpha   90.02516062
_cell_angle_beta   90.02511465
_cell_angle_gamma   60.01364518
_symmetry_Int_Tables_number   1
_chemical_formula_structural   Al17BN18
_chemical_formula_sum   'Al34 B2 N36'
_cell_volume   744.46649313
_cell_formula_units_Z   2
loop_
 _symmetry_equiv_pos_site_id
 _symmetry_equiv_pos_as_xyz
  1  'x, y, z'
loop_
 _atom_site_type_symbol
 _atom_site_label
 _atom_site_symmetry_multiplicity
 _atom_site_fract_x
 _atom_site_fract_y
 _atom_site_fract_z
 _atom_site_occupancy
  Al  Al0  1  0.10765621  0.09281904  0.40949818  1
  Al  Al1  1  0.22551898  0.20065325  0.15918534  1
  Al  Al2  1  0.77759150  0.09425941  0.90687977  1
  Al  Al3  1  0.88762951  0.20429634  0.65241008  1
  Al  Al4  1  0.45068550  0.09060172  0.40262407  1
  Al  Al5  1  0.56258854  0.19784188  0.16341992  1
  Al  Al6  1  0.10958063  0.09508346  0.90860505  1
  Al  Al7  1  0.22422745  0.20423732  0.65869937  1
  Al  Al8  1  0.88609231  0.20275901  0.16336521  1
  Al  Al9  1  0.44827399  0.08976436  0.91285771  1
  Al  Al10  1  0.55752139  0.20331370  0.65189200  1
  Al  Al11  1  0.11093906  0.42760540  0.40964144  1
  Al  Al12  1  0.22204757  0.53871581  0.15980087  1
  Al  Al13  1  0.77841673  0.42624727  0.90860523  1
  Al  Al14  1  0.88757103  0.54089361  0.65869942  1
  Al  Al15  1  0.44997141  0.42412661  0.40892319  1
  Al  Al16  1  0.55734369  0.54219564  0.15875939  1
  Al  Al17  1  0.11120504  0.42787135  0.90911273  1
  Al  Al18  1  0.22244862  0.53911625  0.65887025  1
  Al  Al19  1  0.77615045  0.42432476  0.40949805  1
  Al  Al20  1  0.88398695  0.54218512  0.15918534  1
  Al  Al21  1  0.44527607  0.42604265  0.90871334  1
  Al  Al22  1  0.55482679  0.54072725  0.65926572  1
  Al  Al23  1  0.10745817  0.76663913  0.40892316  1
  Al  Al24  1  0.22552837  0.87401087  0.15875958  1
  Al  Al25  1  0.77309762  0.76494048  0.91285770  1
  Al  Al26  1  0.88664654  0.87418899  0.65189214  1
  Al  Al27  1  0.44580707  0.76247594  0.40280429  1
  Al  Al28  1  0.10937471  0.76194434  0.90871337  1
  Al  Al29  1  0.22406089  0.87149322  0.65926546  1
  Al  Al30  1  0.77393480  0.76735191  0.40262414  1
  Al  Al31  1  0.88117320  0.87925645  0.16341983  1
  Al  Al32  1  0.44737681  0.76404406  0.91334426  1
  Al  Al33  1  0.55566180  0.87232773  0.65749850  1
  B  B34  1  0.77778414  0.09445216  0.41267201  1
  B  B35  1  0.55588960  0.87255659  0.16342614  1
  N  N36  1  0.22203040  0.20496230  0.34993640  1
  N  N37  1  0.10802947  0.09602000  0.10062077  1
  N  N38  1  0.88797411  0.20464096  0.84472140  1
  N  N39  1  0.77771304  0.09438062  0.57849311  1
  N  N40  1  0.58119179  0.19300310  0.35670195  1
  N  N41  1  0.45787884  0.07063930  0.10860108  1
  N  N42  1  0.22482066  0.20404896  0.85182343  1
  N  N43  1  0.11203697  0.09378111  0.60009555  1
  N  N44  1  0.87644626  0.19311445  0.35754319  1
  N  N45  1  0.77797465  0.09464249  0.09538865  1
  N  N46  1  0.55602694  0.20362394  0.84606078  1
  N  N47  1  0.44525206  0.09229548  0.59431263  1
  N  N48  1  0.22254101  0.53920874  0.35099822  1
  N  N49  1  0.11072694  0.42739347  0.10045256  1
  N  N50  1  0.88738247  0.54148708  0.85182353  1
  N  N51  1  0.77711424  0.42870383  0.60009544  1
  N  N52  1  0.55573241  0.53907562  0.34864845  1
  N  N53  1  0.44602703  0.42492202  0.10174326  1
  N  N54  1  0.22243250  0.53910053  0.85037097  1
  N  N55  1  0.11092022  0.42758662  0.60102338  1
  N  N56  1  0.88829561  0.53869704  0.34993643  1
  N  N57  1  0.77935302  0.42469627  0.10062091  1
  N  N58  1  0.55439530  0.54102810  0.85214834  1
  N  N59  1  0.44488046  0.42812950  0.59982829  1
  N  N60  1  0.22240697  0.87240069  0.34864857  1
  N  N61  1  0.10825373  0.76269518  0.10174334  1
  N  N62  1  0.88695621  0.87269467  0.84606087  1
  N  N63  1  0.77562938  0.76191836  0.59431272  1
  N  N64  1  0.55546734  0.87213450  0.32786805  1
  N  N65  1  0.45720340  0.77387079  0.10690104  1
  N  N66  1  0.22436109  0.87106230  0.85214811  1
  N  N67  1  0.11146216  0.76154787  0.59982820  1
  N  N68  1  0.87633476  0.89785968  0.35670187  1
  N  N69  1  0.75397215  0.77454547  0.10860110  1
  N  N70  1  0.55581908  0.87248581  0.84655092  1
  N  N71  1  0.44533515  0.76200168  0.59553006  1
