# generated using pymatgen
data_Al17BN18
_symmetry_space_group_name_H-M   'P 1'
_cell_length_a   9.35557604
_cell_length_b   9.34828204
_cell_length_c   10.11479219
_cell_angle_alpha   89.67043316
_cell_angle_beta   89.66951985
_cell_angle_gamma   59.94752626
_symmetry_Int_Tables_number   1
_chemical_formula_structural   Al17BN18
_chemical_formula_sum   'Al34 B2 N36'
_cell_volume   765.68555659
_cell_formula_units_Z   2
loop_
 _symmetry_equiv_pos_site_id
 _symmetry_equiv_pos_as_xyz
  1  'x, y, z'
loop_
 _atom_site_type_symbol
 _atom_site_label
 _atom_site_symmetry_multiplicity
 _atom_site_fract_x
 _atom_site_fract_y
 _atom_site_fract_z
 _atom_site_occupancy
  Al  Al0  1  0.10655749  0.09371637  0.35157631  1
  Al  Al1  1  0.22740930  0.20300038  0.13841713  1
  Al  Al2  1  0.77568212  0.09262899  0.82165914  1
  Al  Al3  1  0.88513003  0.20493515  0.56603324  1
  Al  Al4  1  0.44987933  0.08714244  0.37688603  1
  Al  Al5  1  0.56228188  0.20034157  0.08163542  1
  Al  Al6  1  0.11188534  0.09328660  0.86282511  1
  Al  Al7  1  0.22582675  0.20546652  0.63623892  1
  Al  Al8  1  0.88535146  0.20594004  0.07489165  1
  Al  Al9  1  0.44612247  0.08485939  0.89550400  1
  Al  Al10  1  0.56403217  0.20475471  0.56289691  1
  Al  Al11  1  0.10848348  0.42521000  0.39043163  1
  Al  Al12  1  0.22510295  0.54164900  0.06833343  1
  Al  Al13  1  0.78051505  0.42222830  0.82199997  1
  Al  Al14  1  0.89145292  0.54563345  0.63583426  1
  Al  Al15  1  0.44544871  0.42129547  0.31985615  1
  Al  Al16  1  0.55349463  0.54885633  0.13679653  1
  Al  Al17  1  0.10794013  0.42514259  0.88853960  1
  Al  Al18  1  0.22529435  0.54234833  0.56991679  1
  Al  Al19  1  0.77965762  0.41841792  0.32164764  1
  Al  Al20  1  0.88841791  0.54540877  0.13875727  1
  Al  Al21  1  0.44236858  0.42115273  0.82190009  1
  Al  Al22  1  0.55241409  0.54499831  0.63489617  1
  Al  Al23  1  0.10430976  0.76215038  0.31884378  1
  Al  Al24  1  0.23114086  0.87260418  0.13745521  1
  Al  Al25  1  0.76865115  0.76194615  0.89563041  1
  Al  Al26  1  0.88826271  0.88168124  0.56272569  1
  Al  Al27  1  0.44566561  0.76157970  0.38589363  1
  Al  Al28  1  0.10419168  0.75889351  0.82140364  1
  Al  Al29  1  0.22527439  0.87456643  0.63667184  1
  Al  Al30  1  0.77063129  0.76650010  0.37694357  1
  Al  Al31  1  0.88387014  0.87934934  0.08144625  1
  Al  Al32  1  0.44730177  0.76173862  0.89282308  1
  Al  Al33  1  0.55700054  0.87442246  0.63594836  1
  B  B34  1  0.77770788  0.09498232  0.31524981  1
  B  B35  1  0.55549070  0.87217677  0.14260894  1
  N  N36  1  0.22420116  0.20833293  0.32673612  1
  N  N37  1  0.11140595  0.09483441  0.10109723  1
  N  N38  1  0.88362161  0.20523900  0.88407134  1
  N  N39  1  0.77684400  0.09439427  0.63475015  1
  N  N40  1  0.58416923  0.19339310  0.36990496  1
  N  N41  1  0.45682663  0.06522374  0.08855016  1
  N  N42  1  0.22792704  0.20537671  0.82879751  1
  N  N43  1  0.10983726  0.09660247  0.59738599  1
  N  N44  1  0.87419752  0.19353417  0.37317491  1
  N  N45  1  0.77854659  0.09550795  0.15368849  1
  N  N46  1  0.55909401  0.20493537  0.88943640  1
  N  N47  1  0.44420556  0.09119800  0.56902588  1
  N  N48  1  0.22498922  0.54191319  0.38028800  1
  N  N49  1  0.10869882  0.42474112  0.07804067  1
  N  N50  1  0.89007983  0.54573174  0.82907426  1
  N  N51  1  0.78158227  0.42305918  0.62438274  1
  N  N52  1  0.55244574  0.54354580  0.33313169  1
  N  N53  1  0.44124457  0.42504797  0.12998543  1
  N  N54  1  0.22444079  0.54096019  0.87882895  1
  N  N55  1  0.10967988  0.42540678  0.57983307  1
  N  N56  1  0.89254222  0.54171340  0.32869755  1
  N  N57  1  0.78071570  0.42380816  0.12625435  1
  N  N58  1  0.55146159  0.54418767  0.83342119  1
  N  N59  1  0.44340172  0.42114368  0.62899383  1
  N  N60  1  0.22748983  0.86954656  0.32949045  1
  N  N61  1  0.10837471  0.75798978  0.12961252  1
  N  N62  1  0.88839577  0.87624437  0.88952773  1
  N  N63  1  0.77373665  0.76216152  0.56876139  1
  N  N64  1  0.55437962  0.87083966  0.30483526  1
  N  N65  1  0.45705103  0.77329915  0.08311996  1
  N  N66  1  0.22777230  0.86902947  0.83201365  1
  N  N67  1  0.10441397  0.76071140  0.62933235  1
  N  N68  1  0.87702372  0.90143165  0.36987270  1
  N  N69  1  0.74881125  0.77327390  0.08843104  1
  N  N70  1  0.55606770  0.87230713  0.82344485  1
  N  N71  1  0.44518044  0.76357446  0.57443562  1
