# generated using pymatgen
data_Al17BN18
_symmetry_space_group_name_H-M   'P 1'
_cell_length_a   9.29940814
_cell_length_b   9.29940862
_cell_length_c   9.93903839
_cell_angle_alpha   90.02480024
_cell_angle_beta   90.02502313
_cell_angle_gamma   60.01362088
_symmetry_Int_Tables_number   1
_chemical_formula_structural   Al17BN18
_chemical_formula_sum   'Al34 B2 N36'
_cell_volume   744.46653013
_cell_formula_units_Z   2
loop_
 _symmetry_equiv_pos_site_id
 _symmetry_equiv_pos_as_xyz
  1  'x, y, z'
loop_
 _atom_site_type_symbol
 _atom_site_label
 _atom_site_symmetry_multiplicity
 _atom_site_fract_x
 _atom_site_fract_y
 _atom_site_fract_z
 _atom_site_occupancy
  Al  Al0  1  0.10765218  0.09281509  0.40173339  1
  Al  Al1  1  0.22551551  0.20064924  0.15142025  1
  Al  Al2  1  0.77758761  0.09425578  0.89911546  1
  Al  Al3  1  0.88762583  0.20429271  0.64464744  1
  Al  Al4  1  0.45068185  0.09059811  0.39486072  1
  Al  Al5  1  0.56258463  0.19783806  0.15565500  1
  Al  Al6  1  0.10957724  0.09507957  0.90084068  1
  Al  Al7  1  0.22422350  0.20423357  0.65093538  1
  Al  Al8  1  0.88608846  0.20275546  0.15560025  1
  Al  Al9  1  0.44827005  0.08976015  0.90509424  1
  Al  Al10  1  0.55751722  0.20331035  0.64412964  1
  Al  Al11  1  0.11093522  0.42760153  0.40187679  1
  Al  Al12  1  0.22204362  0.53871221  0.15203617  1
  Al  Al13  1  0.77841259  0.42624412  0.90084087  1
  Al  Al14  1  0.88756720  0.54088967  0.65093524  1
  Al  Al15  1  0.44996791  0.42412271  0.40115783  1
  Al  Al16  1  0.55733958  0.54219260  0.15099388  1
  Al  Al17  1  0.11120117  0.42786773  0.90134827  1
  Al  Al18  1  0.22244494  0.53911248  0.65110555  1
  Al  Al19  1  0.77614634  0.42432094  0.40173321  1
  Al  Al20  1  0.88398266  0.54218204  0.15142028  1
  Al  Al21  1  0.44527184  0.42603946  0.90094920  1
  Al  Al22  1  0.55482285  0.54072341  0.65150197  1
  Al  Al23  1  0.10745410  0.76663584  0.40115786  1
  Al  Al24  1  0.22552491  0.87400709  0.15099400  1
  Al  Al25  1  0.77309326  0.76493677  0.90509413  1
  Al  Al26  1  0.88664311  0.87418487  0.64412955  1
  Al  Al27  1  0.44580302  0.76247208  0.39504094  1
  Al  Al28  1  0.10937128  0.76194031  0.90094910  1
  Al  Al29  1  0.22405706  0.87148932  0.65150183  1
  Al  Al30  1  0.77393113  0.76734831  0.39486062  1
  Al  Al31  1  0.88116915  0.87925277  0.15565495  1
  Al  Al32  1  0.44737302  0.76404051  0.90558053  1
  Al  Al33  1  0.55565795  0.87232392  0.64973438  1
  B  B34  1  0.77778015  0.09444885  0.40490678  1
  B  B35  1  0.55588555  0.87255338  0.15566154  1
  N  N36  1  0.22202654  0.20495884  0.34217033  1
  N  N37  1  0.10802559  0.09601661  0.09285441  1
  N  N38  1  0.88797017  0.20463768  0.83695712  1
  N  N39  1  0.77770904  0.09437704  0.57072876  1
  N  N40  1  0.58118800  0.19299962  0.34893550  1
  N  N41  1  0.45787517  0.07063551  0.10083454  1
  N  N42  1  0.22481679  0.20404558  0.84405815  1
  N  N43  1  0.11203335  0.09377743  0.59233039  1
  N  N44  1  0.87644197  0.19311078  0.34977683  1
  N  N45  1  0.77797067  0.09463927  0.08762297  1
  N  N46  1  0.55602274  0.20362069  0.83829668  1
  N  N47  1  0.44524811  0.09229202  0.58654818  1
  N  N48  1  0.22253706  0.53920530  0.34323206  1
  N  N49  1  0.11072310  0.42739026  0.09268651  1
  N  N50  1  0.88737848  0.54148377  0.84405811  1
  N  N51  1  0.77711009  0.42870060  0.59233018  1
  N  N52  1  0.55572816  0.53907243  0.34088182  1
  N  N53  1  0.44602292  0.42491893  0.09397714  1
  N  N54  1  0.22242850  0.53909709  0.84260544  1
  N  N55  1  0.11091637  0.42758312  0.59325831  1
  N  N56  1  0.88829178  0.53869354  0.34217037  1
  N  N57  1  0.77934890  0.42469315  0.09285465  1
  N  N58  1  0.55439114  0.54102482  0.84438330  1
  N  N59  1  0.44487658  0.42812616  0.59206268  1
  N  N60  1  0.22240316  0.87239706  0.34088191  1
  N  N61  1  0.10824998  0.76269171  0.09397703  1
  N  N62  1  0.88695227  0.87269122  0.83829656  1
  N  N63  1  0.77562536  0.76191484  0.58654816  1
  N  N64  1  0.55546331  0.87213096  0.32010212  1
  N  N65  1  0.45719949  0.77386760  0.09913427  1
  N  N66  1  0.22435723  0.87105875  0.84438306  1
  N  N67  1  0.11145851  0.76154433  0.59206255  1
  N  N68  1  0.87633080  0.89785631  0.34893538  1
  N  N69  1  0.75396786  0.77454241  0.10083455  1
  N  N70  1  0.55581499  0.87248239  0.83878632  1
  N  N71  1  0.44533127  0.76199831  0.58776545  1
