# generated using pymatgen
data_Al17BN18
_symmetry_space_group_name_H-M   'P 1'
_cell_length_a   9.29943050
_cell_length_b   9.29943085
_cell_length_c   9.93897891
_cell_angle_alpha   90.02509987
_cell_angle_beta   90.02508640
_cell_angle_gamma   60.01364444
_symmetry_Int_Tables_number   1
_chemical_formula_structural   Al17BN18
_chemical_formula_sum   'Al34 B2 N36'
_cell_volume   744.46581890
_cell_formula_units_Z   2
loop_
 _symmetry_equiv_pos_site_id
 _symmetry_equiv_pos_as_xyz
  1  'x, y, z'
loop_
 _atom_site_type_symbol
 _atom_site_label
 _atom_site_symmetry_multiplicity
 _atom_site_fract_x
 _atom_site_fract_y
 _atom_site_fract_z
 _atom_site_occupancy
  Al  Al0  1  0.10765687  0.09282002  0.41222676  1
  Al  Al1  1  0.22552130  0.20065368  0.16191432  1
  Al  Al2  1  0.77759286  0.09426058  0.90960172  1
  Al  Al3  1  0.88763102  0.20429751  0.65514044  1
  Al  Al4  1  0.45068757  0.09060340  0.40535356  1
  Al  Al5  1  0.56259037  0.19784176  0.16614287  1
  Al  Al6  1  0.10958269  0.09508461  0.91133313  1
  Al  Al7  1  0.22422831  0.20423871  0.66142818  1
  Al  Al8  1  0.88609341  0.20275991  0.16608882  1
  Al  Al9  1  0.44827528  0.08976424  0.91558122  1
  Al  Al10  1  0.55752282  0.20331559  0.65462186  1
  Al  Al11  1  0.11094025  0.42760626  0.41237242  1
  Al  Al12  1  0.22204875  0.53871677  0.16253288  1
  Al  Al13  1  0.77841809  0.42624910  0.91133329  1
  Al  Al14  1  0.88757274  0.54089412  0.66142823  1
  Al  Al15  1  0.44997424  0.42412668  0.41165041  1
  Al  Al16  1  0.55734505  0.54219782  0.16148569  1
  Al  Al17  1  0.11120664  0.42787266  0.91184263  1
  Al  Al18  1  0.22245029  0.53911757  0.66159836  1
  Al  Al19  1  0.77615167  0.42432519  0.41222664  1
  Al  Al20  1  0.88398766  0.54218720  0.16191430  1
  Al  Al21  1  0.44527639  0.42604458  0.91144280  1
  Al  Al22  1  0.55482826  0.54072749  0.66199536  1
  Al  Al23  1  0.10745851  0.76664168  0.41165033  1
  Al  Al24  1  0.22553073  0.87401204  0.16148583  1
  Al  Al25  1  0.77309778  0.76494152  0.91558118  1
  Al  Al26  1  0.88664879  0.87419005  0.65462195  1
  Al  Al27  1  0.44580812  0.76247679  0.40553366  1
  Al  Al28  1  0.10937686  0.76194446  0.91144283  1
  Al  Al29  1  0.22406148  0.87149435  0.66199513  1
  Al  Al30  1  0.77393675  0.76735368  0.40535357  1
  Al  Al31  1  0.88117334  0.87925802  0.16614278  1
  Al  Al32  1  0.44737880  0.76404582  0.91606798  1
  Al  Al33  1  0.55566320  0.87232879  0.66021979  1
  B  B34  1  0.77778559  0.09445336  0.41539702  1
  B  B35  1  0.55589096  0.87255779  0.16615157  1
  N  N36  1  0.22203198  0.20496346  0.35266545  1
  N  N37  1  0.10803131  0.09602136  0.10334734  1
  N  N38  1  0.88797594  0.20464262  0.84744965  1
  N  N39  1  0.77771450  0.09438176  0.58122152  1
  N  N40  1  0.58119380  0.19300378  0.35942618  1
  N  N41  1  0.45788030  0.07063950  0.11132461  1
  N  N42  1  0.22482142  0.20405083  0.85455088  1
  N  N43  1  0.11203818  0.09378217  0.60282444  1
  N  N44  1  0.87644732  0.19311532  0.36026817  1
  N  N45  1  0.77797610  0.09464378  0.09811059  1
  N  N46  1  0.55602750  0.20362611  0.84878806  1
  N  N47  1  0.44525310  0.09229807  0.59704108  1
  N  N48  1  0.22254232  0.53920981  0.35372856  1
  N  N49  1  0.11072850  0.42739481  0.10318180  1
  N  N50  1  0.88738453  0.54148763  0.85455099  1
  N  N51  1  0.77711558  0.42870476  0.60282434  1
  N  N52  1  0.55573386  0.53907703  0.35137509  1
  N  N53  1  0.44602757  0.42492382  0.10447134  1
  N  N54  1  0.22243380  0.53910168  0.85309880  1
  N  N55  1  0.11092163  0.42758777  0.60375302  1
  N  N56  1  0.88829704  0.53869832  0.35266544  1
  N  N57  1  0.77935450  0.42469798  0.10334749  1
  N  N58  1  0.55439675  0.54102851  0.85487658  1
  N  N59  1  0.44488220  0.42813038  0.60255593  1
  N  N60  1  0.22240854  0.87240197  0.35137520  1
  N  N61  1  0.10825568  0.76269553  0.10447140  1
  N  N62  1  0.88695852  0.87269509  0.84878813  1
  N  N63  1  0.77563224  0.76191912  0.59704115  1
  N  N64  1  0.55546878  0.87213573  0.33059608  1
  N  N65  1  0.45720522  0.77387241  0.10962506  1
  N  N66  1  0.22436168  0.87106359  0.85487635  1
  N  N67  1  0.11146333  0.76154934  0.60255582  1
  N  N68  1  0.87633568  0.89786144  0.35942609  1
  N  N69  1  0.75397259  0.77454672  0.11132463  1
  N  N70  1  0.55582049  0.87248699  0.84927245  1
  N  N71  1  0.44533579  0.76200210  0.59825832  1
