# generated using pymatgen
data_Al17BN18
_symmetry_space_group_name_H-M   'P 1'
_cell_length_a   9.33630041
_cell_length_b   9.33660291
_cell_length_c   10.09587864
_cell_angle_alpha   89.68018773
_cell_angle_beta   89.60503323
_cell_angle_gamma   59.98348577
_symmetry_Int_Tables_number   1
_chemical_formula_structural   Al17BN18
_chemical_formula_sum   'Al34 B2 N36'
_cell_volume   761.99922157
_cell_formula_units_Z   2
loop_
 _symmetry_equiv_pos_site_id
 _symmetry_equiv_pos_as_xyz
  1  'x, y, z'
loop_
 _atom_site_type_symbol
 _atom_site_label
 _atom_site_symmetry_multiplicity
 _atom_site_fract_x
 _atom_site_fract_y
 _atom_site_fract_z
 _atom_site_occupancy
  Al  Al0  1  0.10566384  0.09278316  0.38887769  1
  Al  Al1  1  0.22314530  0.19998415  0.13822556  1
  Al  Al2  1  0.77380518  0.09014912  0.82010733  1
  Al  Al3  1  0.89238541  0.20947362  0.63838095  1
  Al  Al4  1  0.44803925  0.08828681  0.37174277  1
  Al  Al5  1  0.56065688  0.19648485  0.08432167  1
  Al  Al6  1  0.11035173  0.09320638  0.88822317  1
  Al  Al7  1  0.22708903  0.20435956  0.63602317  1
  Al  Al8  1  0.88902504  0.20657520  0.14266378  1
  Al  Al9  1  0.44455177  0.08536912  0.89234879  1
  Al  Al10  1  0.56903689  0.19827965  0.55969732  1
  Al  Al11  1  0.10679404  0.42466053  0.38480260  1
  Al  Al12  1  0.21764999  0.54317979  0.08294027  1
  Al  Al13  1  0.77882911  0.42641517  0.88791441  1
  Al  Al14  1  0.88748998  0.54318839  0.63562311  1
  Al  Al15  1  0.45167230  0.42837277  0.37435518  1
  Al  Al16  1  0.55817508  0.54452727  0.13878112  1
  Al  Al17  1  0.10939709  0.42462004  0.88523605  1
  Al  Al18  1  0.22103019  0.54338169  0.57222574  1
  Al  Al19  1  0.77677442  0.42326055  0.38891046  1
  Al  Al20  1  0.88174990  0.54165950  0.13755933  1
  Al  Al21  1  0.44849206  0.42987888  0.89040701  1
  Al  Al22  1  0.55565094  0.53943521  0.63702231  1
  Al  Al23  1  0.10243849  0.76708966  0.31655440  1
  Al  Al24  1  0.23023076  0.87680639  0.13694100  1
  Al  Al25  1  0.76968346  0.76071129  0.89162782  1
  Al  Al26  1  0.88928696  0.88226143  0.55915840  1
  Al  Al27  1  0.44568564  0.76320694  0.38286377  1
  Al  Al28  1  0.10623841  0.75895295  0.81878096  1
  Al  Al29  1  0.22811238  0.87529948  0.63653736  1
  Al  Al30  1  0.77151514  0.76547065  0.37378582  1
  Al  Al31  1  0.88392913  0.87699667  0.07619687  1
  Al  Al32  1  0.44683831  0.76341924  0.88956633  1
  Al  Al33  1  0.55867222  0.87316098  0.63266523  1
  B  B34  1  0.77501636  0.09190084  0.30886490  1
  B  B35  1  0.55453336  0.87033804  0.13978483  1
  N  N36  1  0.21988877  0.20476208  0.32545394  1
  N  N37  1  0.10761532  0.09506252  0.07664020  1
  N  N38  1  0.89160912  0.20764361  0.82904782  1
  N  N39  1  0.77640719  0.09149840  0.63248035  1
  N  N40  1  0.58565018  0.19071861  0.36301032  1
  N  N41  1  0.45236938  0.06508699  0.08727998  1
  N  N42  1  0.22588067  0.20268375  0.82694873  1
  N  N43  1  0.11198118  0.09520031  0.57705199  1
  N  N44  1  0.87966120  0.19740608  0.33272759  1
  N  N45  1  0.77451161  0.08839602  0.14914384  1
  N  N46  1  0.56163454  0.19983670  0.88842415  1
  N  N47  1  0.44421528  0.09063486  0.56602465  1
  N  N48  1  0.21836038  0.54370735  0.36634337  1
  N  N49  1  0.10611302  0.42346231  0.07812458  1
  N  N50  1  0.88730714  0.54197865  0.82650126  1
  N  N51  1  0.77807032  0.42895101  0.57757308  1
  N  N52  1  0.55872835  0.54236942  0.32533254  1
  N  N53  1  0.44667926  0.43155541  0.08947518  1
  N  N54  1  0.22202465  0.54077358  0.87095942  1
  N  N55  1  0.10838676  0.42458934  0.57717793  1
  N  N56  1  0.88711380  0.53797569  0.32503611  1
  N  N57  1  0.77776984  0.42502536  0.07659248  1
  N  N58  1  0.55633812  0.54066225  0.82788742  1
  N  N59  1  0.45045401  0.42785417  0.57371013  1
  N  N60  1  0.22571063  0.87562531  0.32748325  1
  N  N61  1  0.10634461  0.76375596  0.12743064  1
  N  N62  1  0.88993804  0.87439269  0.88611960  1
  N  N63  1  0.77629643  0.76049496  0.56649032  1
  N  N64  1  0.55506188  0.87062857  0.30228570  1
  N  N65  1  0.45724227  0.77228639  0.08169962  1
  N  N66  1  0.22711927  0.87303948  0.82889193  1
  N  N67  1  0.10563082  0.76331099  0.62535148  1
  N  N68  1  0.87627901  0.90249081  0.36765263  1
  N  N69  1  0.74870390  0.77084233  0.08533236  1
  N  N70  1  0.55687289  0.87223262  0.82055097  1
  N  N71  1  0.44746098  0.76143017  0.57289874  1
