# generated using pymatgen
data_Al17BN18
_symmetry_space_group_name_H-M   'P 1'
_cell_length_a   9.35499201
_cell_length_b   9.34649048
_cell_length_c   10.11467317
_cell_angle_alpha   89.67119571
_cell_angle_beta   89.67267659
_cell_angle_gamma   59.94919409
_symmetry_Int_Tables_number   1
_chemical_formula_structural   Al17BN18
_chemical_formula_sum   'Al34 B2 N36'
_cell_volume   765.49511037
_cell_formula_units_Z   2
loop_
 _symmetry_equiv_pos_site_id
 _symmetry_equiv_pos_as_xyz
  1  'x, y, z'
loop_
 _atom_site_type_symbol
 _atom_site_label
 _atom_site_symmetry_multiplicity
 _atom_site_fract_x
 _atom_site_fract_y
 _atom_site_fract_z
 _atom_site_occupancy
  Al  Al0  1  0.10768705  0.09307466  0.35895364  1
  Al  Al1  1  0.22713793  0.20267514  0.13845511  1
  Al  Al2  1  0.77572399  0.09267325  0.82166916  1
  Al  Al3  1  0.88444181  0.20523824  0.56611066  1
  Al  Al4  1  0.44987544  0.08716967  0.37677536  1
  Al  Al5  1  0.56222122  0.20032521  0.08161338  1
  Al  Al6  1  0.11291297  0.09266794  0.86992516  1
  Al  Al7  1  0.22554531  0.20520171  0.63628295  1
  Al  Al8  1  0.88492073  0.20609110  0.07496620  1
  Al  Al9  1  0.44605769  0.08491392  0.89537963  1
  Al  Al10  1  0.56393449  0.20475791  0.56288609  1
  Al  Al11  1  0.10849333  0.42520120  0.39034441  1
  Al  Al12  1  0.22509996  0.54164982  0.06832534  1
  Al  Al13  1  0.78058518  0.42214403  0.82197198  1
  Al  Al14  1  0.89148589  0.54565771  0.63583610  1
  Al  Al15  1  0.44545980  0.42129515  0.31984039  1
  Al  Al16  1  0.55345923  0.54890031  0.13677786  1
  Al  Al17  1  0.10796221  0.42508013  0.88842085  1
  Al  Al18  1  0.22528918  0.54236201  0.56993057  1
  Al  Al19  1  0.77975301  0.41830930  0.32158203  1
  Al  Al20  1  0.88846537  0.54541812  0.13874320  1
  Al  Al21  1  0.44237563  0.42115952  0.82189066  1
  Al  Al22  1  0.55233624  0.54508195  0.63490418  1
  Al  Al23  1  0.10426987  0.76225895  0.31873717  1
  Al  Al24  1  0.23091106  0.87315985  0.13763462  1
  Al  Al25  1  0.76865807  0.76194882  0.89561725  1
  Al  Al26  1  0.88828368  0.88163674  0.56270479  1
  Al  Al27  1  0.44568604  0.76156955  0.38581021  1
  Al  Al28  1  0.10418227  0.75902393  0.82132255  1
  Al  Al29  1  0.22501117  0.87513454  0.63685796  1
  Al  Al30  1  0.77063909  0.76650406  0.37693165  1
  Al  Al31  1  0.88388743  0.87931379  0.08141955  1
  Al  Al32  1  0.44725091  0.76177392  0.89271696  1
  Al  Al33  1  0.55697820  0.87443104  0.63591451  1
  B  B34  1  0.77780609  0.09506623  0.31524237  1
  B  B35  1  0.55546502  0.87218695  0.14255478  1
  N  N36  1  0.22389526  0.20808634  0.32641734  1
  N  N37  1  0.11244849  0.09426145  0.09552481  1
  N  N38  1  0.88332114  0.20535700  0.88379769  1
  N  N39  1  0.77680968  0.09435656  0.63475336  1
  N  N40  1  0.58409900  0.19341002  0.36989689  1
  N  N41  1  0.45678946  0.06524115  0.08854918  1
  N  N42  1  0.22754151  0.20507174  0.82845357  1
  N  N43  1  0.11063834  0.09615707  0.59182171  1
  N  N44  1  0.87400039  0.19351289  0.37290960  1
  N  N45  1  0.77856436  0.09547232  0.15368342  1
  N  N46  1  0.55902664  0.20493498  0.88940357  1
  N  N47  1  0.44409317  0.09124229  0.56899184  1
  N  N48  1  0.22499005  0.54195710  0.38027396  1
  N  N49  1  0.10874979  0.42462953  0.07801198  1
  N  N50  1  0.89007436  0.54575699  0.82904504  1
  N  N51  1  0.78158259  0.42310146  0.62439024  1
  N  N52  1  0.55245892  0.54355109  0.33311060  1
  N  N53  1  0.44125909  0.42504602  0.12997181  1
  N  N54  1  0.22443236  0.54100539  0.87880333  1
  N  N55  1  0.10971202  0.42531121  0.57980574  1
  N  N56  1  0.89254966  0.54171987  0.32868653  1
  N  N57  1  0.78076117  0.42380806  0.12629290  1
  N  N58  1  0.55143999  0.54423181  0.83338108  1
  N  N59  1  0.44340972  0.42114738  0.62898270  1
  N  N60  1  0.22733358  0.87007130  0.32894264  1
  N  N61  1  0.10839221  0.75805915  0.12958279  1
  N  N62  1  0.88842046  0.87624130  0.88952282  1
  N  N63  1  0.77371584  0.76216968  0.56874847  1
  N  N64  1  0.55440223  0.87082730  0.30481118  1
  N  N65  1  0.45699303  0.77330767  0.08308384  1
  N  N66  1  0.22751492  0.86969108  0.83145753  1
  N  N67  1  0.10441972  0.76080306  0.62929800  1
  N  N68  1  0.87706104  0.90142256  0.36987702  1
  N  N69  1  0.74881258  0.77326844  0.08841671  1
  N  N70  1  0.55609549  0.87230255  0.82341155  1
  N  N71  1  0.44504231  0.76365445  0.57438525  1
