# generated using pymatgen
data_Al17BN18
_symmetry_space_group_name_H-M   'P 1'
_cell_length_a   9.31631570
_cell_length_b   9.31632103
_cell_length_c   10.12470048
_cell_angle_alpha   89.63743744
_cell_angle_beta   89.63554898
_cell_angle_gamma   60.07007720
_symmetry_Int_Tables_number   1
_chemical_formula_structural   Al17BN18
_chemical_formula_sum   'Al34 B2 N36'
_cell_volume   761.54581816
_cell_formula_units_Z   2
loop_
 _symmetry_equiv_pos_site_id
 _symmetry_equiv_pos_as_xyz
  1  'x, y, z'
loop_
 _atom_site_type_symbol
 _atom_site_label
 _atom_site_symmetry_multiplicity
 _atom_site_fract_x
 _atom_site_fract_y
 _atom_site_fract_z
 _atom_site_occupancy
  Al  Al0  1  0.10852272  0.09122823  0.38560620  1
  Al  Al1  1  0.22594677  0.20143561  0.13884387  1
  Al  Al2  1  0.77547297  0.09214690  0.82175561  1
  Al  Al3  1  0.88857286  0.20524586  0.61080383  1
  Al  Al4  1  0.44923728  0.08797728  0.37465429  1
  Al  Al5  1  0.56041166  0.20110095  0.07916144  1
  Al  Al6  1  0.11199652  0.09240696  0.88858307  1
  Al  Al7  1  0.22603764  0.20455528  0.63664405  1
  Al  Al8  1  0.88874584  0.20541900  0.12187745  1
  Al  Al9  1  0.44484143  0.08571753  0.89330979  1
  Al  Al10  1  0.56338213  0.20557582  0.56075083  1
  Al  Al11  1  0.10787016  0.42454418  0.38811106  1
  Al  Al12  1  0.22491357  0.54158427  0.06742114  1
  Al  Al13  1  0.77573127  0.42867181  0.88858333  1
  Al  Al14  1  0.88788163  0.54271088  0.63664460  1
  Al  Al15  1  0.44659622  0.42141074  0.31760550  1
  Al  Al16  1  0.55845228  0.54775346  0.13837047  1
  Al  Al17  1  0.10744646  0.42412142  0.88601059  1
  Al  Al18  1  0.22538041  0.54205250  0.56924039  1
  Al  Al19  1  0.77455465  0.42519471  0.38560631  1
  Al  Al20  1  0.88476336  0.54261855  0.13884368  1
  Al  Al21  1  0.44323674  0.42140699  0.82012550  1
  Al  Al22  1  0.55787287  0.54366782  0.63772796  1
  Al  Al23  1  0.10473741  0.76326908  0.31760527  1
  Al  Al24  1  0.23107928  0.87512638  0.13837013  1
  Al  Al25  1  0.76904193  0.76151694  0.89331004  1
  Al  Al26  1  0.88890341  0.88005334  0.56075128  1
  Al  Al27  1  0.44558435  0.76225885  0.38360437  1
  Al  Al28  1  0.10473332  0.75991053  0.82012594  1
  Al  Al29  1  0.22699283  0.87454761  0.63772797  1
  Al  Al30  1  0.77130443  0.76590890  0.37465474  1
  Al  Al31  1  0.88442920  0.87708321  0.07916169  1
  Al  Al32  1  0.44636704  0.76304247  0.89058199  1
  Al  Al33  1  0.55770605  0.87438023  0.63394214  1
  B  B34  1  0.77849568  0.09516940  0.31317181  1
  B  B35  1  0.55533495  0.87200569  0.14044419  1
  N  N36  1  0.22171136  0.20595124  0.32556600  1
  N  N37  1  0.11349013  0.09294265  0.07798355  1
  N  N38  1  0.88915626  0.20582917  0.84761274  1
  N  N39  1  0.77424936  0.09092438  0.63347942  1
  N  N40  1  0.58443301  0.19466843  0.36927245  1
  N  N41  1  0.45510084  0.06551004  0.08686241  1
  N  N42  1  0.22637640  0.20317981  0.82657464  1
  N  N43  1  0.11407925  0.09309157  0.57516087  1
  N  N44  1  0.87811758  0.19478820  0.34394347  1
  N  N45  1  0.77438897  0.09106277  0.15145997  1
  N  N46  1  0.55860842  0.20589289  0.88857885  1
  N  N47  1  0.44324391  0.09135306  0.56702606  1
  N  N48  1  0.22534384  0.54201937  0.37943845  1
  N  N49  1  0.10730834  0.42397808  0.07701983  1
  N  N50  1  0.88650704  0.54304907  0.82657528  1
  N  N51  1  0.77641979  0.43075081  0.57516094  1
  N  N52  1  0.55734772  0.54314081  0.32719297  1
  N  N53  1  0.44203904  0.42559944  0.12882330  1
  N  N54  1  0.22450708  0.54118335  0.87784056  1
  N  N55  1  0.10803705  0.42470810  0.57884263  1
  N  N56  1  0.88927981  0.53838171  0.32556572  1
  N  N57  1  0.77627101  0.43016151  0.07798368  1
  N  N58  1  0.55632661  0.54368174  0.82889492  1
  N  N59  1  0.44452088  0.42164237  0.62841317  1
  N  N60  1  0.22646931  0.87401892  0.32719253  1
  N  N61  1  0.10892551  0.75871282  0.12882293  1
  N  N62  1  0.88921611  0.87528554  0.88857909  1
  N  N63  1  0.77468237  0.75991403  0.56702641  1
  N  N64  1  0.55481366  0.87148492  0.30292066  1
  N  N65  1  0.45654646  0.77321797  0.08167465  1
  N  N66  1  0.22700898  0.87299954  0.82889474  1
  N  N67  1  0.10496721  0.76119577  0.62841357  1
  N  N68  1  0.87799298  0.90110680  0.36927252  1
  N  N69  1  0.74883909  0.77177089  0.08686240  1
  N  N70  1  0.55644735  0.87311980  0.82135313  1
  N  N71  1  0.44574702  0.76241928  0.57272244  1
