# generated using pymatgen
data_Al17BN18
_symmetry_space_group_name_H-M   'P 1'
_cell_length_a   9.32770765
_cell_length_b   9.32586489
_cell_length_c   10.11379684
_cell_angle_alpha   89.61331725
_cell_angle_beta   89.59815812
_cell_angle_gamma   60.03605545
_symmetry_Int_Tables_number   1
_chemical_formula_structural   Al17BN18
_chemical_formula_sum   'Al34 B2 N36'
_cell_volume   762.17174606
_cell_formula_units_Z   2
loop_
 _symmetry_equiv_pos_site_id
 _symmetry_equiv_pos_as_xyz
  1  'x, y, z'
loop_
 _atom_site_type_symbol
 _atom_site_label
 _atom_site_symmetry_multiplicity
 _atom_site_fract_x
 _atom_site_fract_y
 _atom_site_fract_z
 _atom_site_occupancy
  Al  Al0  1  0.10572324  0.09229682  0.38919763  1
  Al  Al1  1  0.22298965  0.20062060  0.13845752  1
  Al  Al2  1  0.77418308  0.09002091  0.81985884  1
  Al  Al3  1  0.89249818  0.20939530  0.63840271  1
  Al  Al4  1  0.44795843  0.08727779  0.37276841  1
  Al  Al5  1  0.56037596  0.19676189  0.08539496  1
  Al  Al6  1  0.11060264  0.09313933  0.88838406  1
  Al  Al7  1  0.22766942  0.20483282  0.63561293  1
  Al  Al8  1  0.88923632  0.20643815  0.14296697  1
  Al  Al9  1  0.44468600  0.08548409  0.89324172  1
  Al  Al10  1  0.56775537  0.20195472  0.55833321  1
  Al  Al11  1  0.10582769  0.42431830  0.38569065  1
  Al  Al12  1  0.21729269  0.54488849  0.07370029  1
  Al  Al13  1  0.77962936  0.42639215  0.88829572  1
  Al  Al14  1  0.88820743  0.54320234  0.63544352  1
  Al  Al15  1  0.44969057  0.42548182  0.35218187  1
  Al  Al16  1  0.55877429  0.54542166  0.13835595  1
  Al  Al17  1  0.10856055  0.42393396  0.88563024  1
  Al  Al18  1  0.22348563  0.54365046  0.56558147  1
  Al  Al19  1  0.77612355  0.42296948  0.38973325  1
  Al  Al20  1  0.88210151  0.54157561  0.13804848  1
  Al  Al21  1  0.44950454  0.42821826  0.87997334  1
  Al  Al22  1  0.55572216  0.53953338  0.63655644  1
  Al  Al23  1  0.10217739  0.76630244  0.31568988  1
  Al  Al24  1  0.22988264  0.87672887  0.13732570  1
  Al  Al25  1  0.76963035  0.76091466  0.89198840  1
  Al  Al26  1  0.88952002  0.88207313  0.55966352  1
  Al  Al27  1  0.44536871  0.76267676  0.38350465  1
  Al  Al28  1  0.10601184  0.75915771  0.81833137  1
  Al  Al29  1  0.22816018  0.87485492  0.63679057  1
  Al  Al30  1  0.77121683  0.76535322  0.37435445  1
  Al  Al31  1  0.88397550  0.87684220  0.07655902  1
  Al  Al32  1  0.44666018  0.76439224  0.88997908  1
  Al  Al33  1  0.55868418  0.87382797  0.63273536  1
  B  B34  1  0.77600074  0.09091342  0.30893845  1
  B  B35  1  0.55424317  0.87058873  0.13998352  1
  N  N36  1  0.21997210  0.20487067  0.32542593  1
  N  N37  1  0.10768556  0.09501533  0.07658934  1
  N  N38  1  0.89190702  0.20785672  0.82887781  1
  N  N39  1  0.77586317  0.09158990  0.63251182  1
  N  N40  1  0.58568569  0.19005318  0.36258044  1
  N  N41  1  0.45232351  0.06492512  0.08733872  1
  N  N42  1  0.22657825  0.20295996  0.82667123  1
  N  N43  1  0.11222016  0.09492970  0.57707222  1
  N  N44  1  0.87967640  0.19716494  0.33279208  1
  N  N45  1  0.77484730  0.08786259  0.14960911  1
  N  N46  1  0.56236746  0.20050764  0.89071888  1
  N  N47  1  0.44463895  0.09087425  0.56559902  1
  N  N48  1  0.21767984  0.54489182  0.37101550  1
  N  N49  1  0.10540830  0.42360966  0.07772047  1
  N  N50  1  0.88760838  0.54254959  0.82617713  1
  N  N51  1  0.77838722  0.42897414  0.57779645  1
  N  N52  1  0.55923970  0.54276799  0.32534690  1
  N  N53  1  0.44447435  0.42968696  0.10343618  1
  N  N54  1  0.22187745  0.54283645  0.87882806  1
  N  N55  1  0.10863077  0.42499712  0.57730699  1
  N  N56  1  0.88680140  0.53791182  0.32518140  1
  N  N57  1  0.77787348  0.42485016  0.07645120  1
  N  N58  1  0.55734611  0.54194279  0.82895345  1
  N  N59  1  0.44947598  0.42689301  0.58425438  1
  N  N60  1  0.22545311  0.87523568  0.32743123  1
  N  N61  1  0.10645058  0.76264917  0.12780610  1
  N  N62  1  0.89020460  0.87451058  0.88666774  1
  N  N63  1  0.77609921  0.76052179  0.56650881  1
  N  N64  1  0.55488423  0.87035713  0.30229613  1
  N  N65  1  0.45660320  0.77267716  0.08154814  1
  N  N66  1  0.22720736  0.87311908  0.82888681  1
  N  N67  1  0.10601275  0.76165423  0.62665293  1
  N  N68  1  0.87668875  0.90209008  0.36809507  1
  N  N69  1  0.74839325  0.77080381  0.08534175  1
  N  N70  1  0.55700549  0.87308494  0.82061234  1
  N  N71  1  0.44736580  0.76185094  0.57309585  1
