# generated using pymatgen
data_Al17BN18
_symmetry_space_group_name_H-M   'P 1'
_cell_length_a   9.33618541
_cell_length_b   9.33625192
_cell_length_c   10.09735276
_cell_angle_alpha   89.67730060
_cell_angle_beta   89.60571706
_cell_angle_gamma   59.98013480
_symmetry_Int_Tables_number   1
_chemical_formula_structural   Al17BN18
_chemical_formula_sum   'Al34 B2 N36'
_cell_volume   762.04663465
_cell_formula_units_Z   2
loop_
 _symmetry_equiv_pos_site_id
 _symmetry_equiv_pos_as_xyz
  1  'x, y, z'
loop_
 _atom_site_type_symbol
 _atom_site_label
 _atom_site_symmetry_multiplicity
 _atom_site_fract_x
 _atom_site_fract_y
 _atom_site_fract_z
 _atom_site_occupancy
  Al  Al0  1  0.10313525  0.08990902  0.32199920  1
  Al  Al1  1  0.23089333  0.19969954  0.14248895  1
  Al  Al2  1  0.77468812  0.09354562  0.82629171  1
  Al  Al3  1  0.88652244  0.20326761  0.56937549  1
  Al  Al4  1  0.44943891  0.08969878  0.38274235  1
  Al  Al5  1  0.56185004  0.20121458  0.08515950  1
  Al  Al6  1  0.10524275  0.09142784  0.82240139  1
  Al  Al7  1  0.22712657  0.20775683  0.64021515  1
  Al  Al8  1  0.88768361  0.20348210  0.07609244  1
  Al  Al9  1  0.44403697  0.08446616  0.89979365  1
  Al  Al10  1  0.56368475  0.20597545  0.56731489  1
  Al  Al11  1  0.11582073  0.42328841  0.37715878  1
  Al  Al12  1  0.22660825  0.54205480  0.07415254  1
  Al  Al13  1  0.77771151  0.42727770  0.82195104  1
  Al  Al14  1  0.88468967  0.53689907  0.56857775  1
  Al  Al15  1  0.45159731  0.42504412  0.32139141  1
  Al  Al16  1  0.55658378  0.54343989  0.07003336  1
  Al  Al17  1  0.11238652  0.42317322  0.88740803  1
  Al  Al18  1  0.22404753  0.54214996  0.57373134  1
  Al  Al19  1  0.77520848  0.42218496  0.32016351  1
  Al  Al20  1  0.88164198  0.53835707  0.08464821  1
  Al  Al21  1  0.44585261  0.42351772  0.82335004  1
  Al  Al22  1  0.55452369  0.54027836  0.57102788  1
  Al  Al23  1  0.11023008  0.76667286  0.32072827  1
  Al  Al24  1  0.22769505  0.87393870  0.07007435  1
  Al  Al25  1  0.76432380  0.76841538  0.89924618  1
  Al  Al26  1  0.88880203  0.88134065  0.56659340  1
  Al  Al27  1  0.44433358  0.76012071  0.31628809  1
  Al  Al28  1  0.10626912  0.76232792  0.82295508  1
  Al  Al29  1  0.22300249  0.87350786  0.57071940  1
  Al  Al30  1  0.77273489  0.77018374  0.37460732  1
  Al  Al31  1  0.88531723  0.87841709  0.08719512  1
  Al  Al32  1  0.44096724  0.75722773  0.82057060  1
  Al  Al33  1  0.55952810  0.87657272  0.63885893  1
  B  B34  1  0.77883464  0.09635243  0.31918269  1
  B  B35  1  0.55832214  0.87481371  0.15008660  1
  N  N36  1  0.22699846  0.20302542  0.33149362  1
  N  N37  1  0.10766177  0.09109314  0.13149061  1
  N  N38  1  0.88590636  0.20526787  0.88607059  1
  N  N39  1  0.77648905  0.09446535  0.63841552  1
  N  N40  1  0.58467141  0.19584721  0.37363625  1
  N  N41  1  0.45704293  0.06422811  0.09129285  1
  N  N42  1  0.22769546  0.20349397  0.83348803  1
  N  N43  1  0.10623760  0.09367143  0.63006994  1
  N  N44  1  0.87612751  0.19441323  0.37726393  1
  N  N45  1  0.77830221  0.09606495  0.15668351  1
  N  N46  1  0.55706811  0.20619839  0.89248039  1
  N  N47  1  0.44340177  0.09232077  0.57281102  1
  N  N48  1  0.22729298  0.54323559  0.38085179  1
  N  N49  1  0.11507625  0.42282900  0.09202142  1
  N  N50  1  0.88289269  0.53886886  0.88517318  1
  N  N51  1  0.77700942  0.42601889  0.63109643  1
  N  N52  1  0.55560584  0.54166172  0.38237373  1
  N  N53  1  0.44626204  0.42871165  0.13393183  1
  N  N54  1  0.22497545  0.54210738  0.88174949  1
  N  N55  1  0.11142382  0.42574768  0.58725222  1
  N  N56  1  0.88670779  0.53513546  0.36944281  1
  N  N57  1  0.77462804  0.42432331  0.13362765  1
  N  N58  1  0.55528592  0.53774686  0.88139368  1
  N  N59  1  0.44607183  0.42469792  0.63248726  1
  N  N60  1  0.22574016  0.87164295  0.38232431  1
  N  N61  1  0.11346789  0.76193408  0.13351206  1
  N  N62  1  0.88914013  0.87607285  0.89294526  1
  N  N63  1  0.77170437  0.76689021  0.57053586  1
  N  N64  1  0.55885416  0.87830178  0.30979394  1
  N  N65  1  0.45369720  0.76929013  0.12624276  1
  N  N66  1  0.22137270  0.87152198  0.88191486  1
  N  N67  1  0.10746292  0.76402247  0.63203819  1
  N  N68  1  0.88099915  0.90160546  0.37169137  1
  N  N69  1  0.74770202  0.77599449  0.09593402  1
  N  N70  1  0.55692895  0.87522710  0.82646356  1
  N  N71  1  0.44174692  0.75904912  0.62991976  1
