# generated using pymatgen
data_Al17BN18
_symmetry_space_group_name_H-M   'P 1'
_cell_length_a   9.33116966
_cell_length_b   9.32834546
_cell_length_c   10.04358364
_cell_angle_alpha   89.71020324
_cell_angle_beta   89.84298982
_cell_angle_gamma   59.95233613
_symmetry_Int_Tables_number   1
_chemical_formula_structural   Al17BN18
_chemical_formula_sum   'Al34 B2 N36'
_cell_volume   756.73824402
_cell_formula_units_Z   2
loop_
 _symmetry_equiv_pos_site_id
 _symmetry_equiv_pos_as_xyz
  1  'x, y, z'
loop_
 _atom_site_type_symbol
 _atom_site_label
 _atom_site_symmetry_multiplicity
 _atom_site_fract_x
 _atom_site_fract_y
 _atom_site_fract_z
 _atom_site_occupancy
  Al  Al0  1  0.10612813  0.09377326  0.38698985  1
  Al  Al1  1  0.22332040  0.20097314  0.13636559  1
  Al  Al2  1  0.77325879  0.09042402  0.81971665  1
  Al  Al3  1  0.89238628  0.20925438  0.63682934  1
  Al  Al4  1  0.44802838  0.08856769  0.37077613  1
  Al  Al5  1  0.55848537  0.19865128  0.09015416  1
  Al  Al6  1  0.11050364  0.09465026  0.88643846  1
  Al  Al7  1  0.22604983  0.20414166  0.63488978  1
  Al  Al8  1  0.89049197  0.20633727  0.14078513  1
  Al  Al9  1  0.44515052  0.08636105  0.89201123  1
  Al  Al10  1  0.56470543  0.20068159  0.56309367  1
  Al  Al11  1  0.11052808  0.42725683  0.38689643  1
  Al  Al12  1  0.22142026  0.53859522  0.13823857  1
  Al  Al13  1  0.77815837  0.42651706  0.88651972  1
  Al  Al14  1  0.88735756  0.54315003  0.63419073  1
  Al  Al15  1  0.44788932  0.42985377  0.37801091  1
  Al  Al16  1  0.55753466  0.54444274  0.13672094  1
  Al  Al17  1  0.11158099  0.42800985  0.88417727  1
  Al  Al18  1  0.22244108  0.53971552  0.63426870  1
  Al  Al19  1  0.77703876  0.42278196  0.38697518  1
  Al  Al20  1  0.88413175  0.54054165  0.13611366  1
  Al  Al21  1  0.44353387  0.43092298  0.88984583  1
  Al  Al22  1  0.55467922  0.53992300  0.63549938  1
  Al  Al23  1  0.11332798  0.76468012  0.37832630  1
  Al  Al24  1  0.22797804  0.87386498  0.13649776  1
  Al  Al25  1  0.76889117  0.76068685  0.89030770  1
  Al  Al26  1  0.88255600  0.88414256  0.55971473  1
  Al  Al27  1  0.44633965  0.76267085  0.38174637  1
  Al  Al28  1  0.11645060  0.75886695  0.88810633  1
  Al  Al29  1  0.22315273  0.87142560  0.63502665  1
  Al  Al30  1  0.77201656  0.76504162  0.37053103  1
  Al  Al31  1  0.88228120  0.87588540  0.07939594  1
  Al  Al32  1  0.44690589  0.76360509  0.88834225  1
  Al  Al33  1  0.55638965  0.87297226  0.63202983  1
  B  B34  1  0.77681032  0.09072790  0.30654610  1
  B  B35  1  0.55328338  0.86999435  0.13952586  1
  N  N36  1  0.21930996  0.20630860  0.32506867  1
  N  N37  1  0.10895819  0.09479537  0.07591328  1
  N  N38  1  0.89139094  0.20760356  0.82823247  1
  N  N39  1  0.77532502  0.09295069  0.63065895  1
  N  N40  1  0.58273946  0.19264959  0.35776859  1
  N  N41  1  0.45278306  0.06566349  0.08739632  1
  N  N42  1  0.22542317  0.20392858  0.82672061  1
  N  N43  1  0.11203988  0.09448794  0.57649557  1
  N  N44  1  0.88001589  0.19673715  0.33179442  1
  N  N45  1  0.77647534  0.08865892  0.14652206  1
  N  N46  1  0.55923926  0.20164266  0.88381213  1
  N  N47  1  0.44330309  0.09087058  0.56568581  1
  N  N48  1  0.22125786  0.53850840  0.32647131  1
  N  N49  1  0.11083376  0.42779753  0.07497629  1
  N  N50  1  0.88739232  0.54150432  0.82609093  1
  N  N51  1  0.77738746  0.42914173  0.57650415  1
  N  N52  1  0.55738037  0.54127801  0.32473308  1
  N  N53  1  0.44254873  0.43438130  0.08329066  1
  N  N54  1  0.22344744  0.53909499  0.82496554  1
  N  N55  1  0.11109195  0.42790903  0.57699923  1
  N  N56  1  0.88945199  0.53637019  0.32492186  1
  N  N57  1  0.77826771  0.42530646  0.07606689  1
  N  N58  1  0.55465609  0.54066333  0.82736712  1
  N  N59  1  0.44342342  0.43125915  0.57211886  1
  N  N60  1  0.22460023  0.87414564  0.32457773  1
  N  N61  1  0.11857642  0.75898415  0.08159878  1
  N  N62  1  0.88552344  0.87512634  0.88355637  1
  N  N63  1  0.77382996  0.76078190  0.56567258  1
  N  N64  1  0.55404670  0.87046357  0.30202290  1
  N  N65  1  0.45665467  0.77333400  0.08130637  1
  N  N66  1  0.22425108  0.87158807  0.82669702  1
  N  N67  1  0.11384952  0.76077157  0.57241120  1
  N  N68  1  0.87506796  0.90188216  0.36277790  1
  N  N69  1  0.74889537  0.76983066  0.08604133  1
  N  N70  1  0.55515985  0.87284547  0.82028520  1
  N  N71  1  0.44527140  0.76213716  0.57255376  1
