# generated using pymatgen
data_Al17BN18
_symmetry_space_group_name_H-M   'P 1'
_cell_length_a   9.31004802
_cell_length_b   9.31005597
_cell_length_c   10.13384550
_cell_angle_alpha   89.62405970
_cell_angle_beta   89.62085965
_cell_angle_gamma   60.06480657
_symmetry_Int_Tables_number   1
_chemical_formula_structural   Al17BN18
_chemical_formula_sum   'Al34 B2 N36'
_cell_volume   761.16670297
_cell_formula_units_Z   2
loop_
 _symmetry_equiv_pos_site_id
 _symmetry_equiv_pos_as_xyz
  1  'x, y, z'
loop_
 _atom_site_type_symbol
 _atom_site_label
 _atom_site_symmetry_multiplicity
 _atom_site_fract_x
 _atom_site_fract_y
 _atom_site_fract_z
 _atom_site_occupancy
  Al  Al0  1  0.10723793  0.09193948  0.38714208  1
  Al  Al1  1  0.22537194  0.20123465  0.13848040  1
  Al  Al2  1  0.77435710  0.09102981  0.82113789  1
  Al  Al3  1  0.89075286  0.20742873  0.63088731  1
  Al  Al4  1  0.44907542  0.08805310  0.37458353  1
  Al  Al5  1  0.56013841  0.20121221  0.07892760  1
  Al  Al6  1  0.11082267  0.09314055  0.88861826  1
  Al  Al7  1  0.22621014  0.20437796  0.63632306  1
  Al  Al8  1  0.88951849  0.20619336  0.13748401  1
  Al  Al9  1  0.44463607  0.08571089  0.89329198  1
  Al  Al10  1  0.56434401  0.20554166  0.56041726  1
  Al  Al11  1  0.10778577  0.42446155  0.38801451  1
  Al  Al12  1  0.22491246  0.54158166  0.06739990  1
  Al  Al13  1  0.77646510  0.42749727  0.88861839  1
  Al  Al14  1  0.88770404  0.54288409  0.63632432  1
  Al  Al15  1  0.44661939  0.42155407  0.31742309  1
  Al  Al16  1  0.55907972  0.54713825  0.13803438  1
  Al  Al17  1  0.10750074  0.42417582  0.88596004  1
  Al  Al18  1  0.22537678  0.54204895  0.56913322  1
  Al  Al19  1  0.77526449  0.42391219  0.38714211  1
  Al  Al20  1  0.88456237  0.54204325  0.13847985  1
  Al  Al21  1  0.44314123  0.42159961  0.81985120  1
  Al  Al22  1  0.55814633  0.54353198  0.63749807  1
  Al  Al23  1  0.10488046  0.76329205  0.31742242  1
  Al  Al24  1  0.23046320  0.87575500  0.13803410  1
  Al  Al25  1  0.76903446  0.76131226  0.89329256  1
  Al  Al26  1  0.88886990  0.88101464  0.56041794  1
  Al  Al27  1  0.44558553  0.76226135  0.38336256  1
  Al  Al28  1  0.10492698  0.75981423  0.81985229  1
  Al  Al29  1  0.22685538  0.87482262  0.63749804  1
  Al  Al30  1  0.77137907  0.76574822  0.37458442  1
  Al  Al31  1  0.88454139  0.87680901  0.07892822  1
  Al  Al32  1  0.44635400  0.76302934  0.89051792  1
  Al  Al33  1  0.55784399  0.87451862  0.63373705  1
  B  B34  1  0.77736475  0.09404048  0.31156522  1
  B  B35  1  0.55525471  0.87192350  0.14027952  1
  N  N36  1  0.22144556  0.20578440  0.32531046  1
  N  N37  1  0.11036139  0.09422307  0.07701191  1
  N  N38  1  0.89089594  0.20756598  0.83244405  1
  N  N39  1  0.77421361  0.09089134  0.63331193  1
  N  N40  1  0.58496669  0.19464061  0.36904213  1
  N  N41  1  0.45457371  0.06548368  0.08653358  1
  N  N42  1  0.22632992  0.20319397  0.82646740  1
  N  N43  1  0.11236768  0.09390996  0.57537274  1
  N  N44  1  0.87977631  0.19644684  0.33405806  1
  N  N45  1  0.77325588  0.08993120  0.15057595  1
  N  N46  1  0.55873604  0.20613329  0.88876134  1
  N  N47  1  0.44333162  0.09152994  0.56666830  1
  N  N48  1  0.22536778  0.54204587  0.37946097  1
  N  N49  1  0.10728292  0.42395016  0.07682923  1
  N  N50  1  0.88652293  0.54300083  0.82646869  1
  N  N51  1  0.77723902  0.42903898  0.57537291  1
  N  N52  1  0.55804699  0.54276749  0.32708812  1
  N  N53  1  0.44197075  0.42561070  0.12886102  1
  N  N54  1  0.22455940  0.54123707  0.87791980  1
  N  N55  1  0.10802806  0.42469744  0.57868708  1
  N  N56  1  0.88911349  0.53811555  0.32530977  1
  N  N57  1  0.77755260  0.42703114  0.07701161  1
  N  N58  1  0.55671282  0.54342765  0.82891048  1
  N  N59  1  0.44450097  0.42167742  0.62840199  1
  N  N60  1  0.22609686  0.87471683  0.32708769  1
  N  N61  1  0.10893578  0.75864565  0.12886017  1
  N  N62  1  0.88945459  0.87541532  0.88876189  1
  N  N63  1  0.77486182  0.75999964  0.56666899  1
  N  N64  1  0.55489727  0.87156781  0.30266304  1
  N  N65  1  0.45645987  0.77312985  0.08160594  1
  N  N66  1  0.22675731  0.87338358  0.82891018  1
  N  N67  1  0.10500005  0.76117803  0.62840311  1
  N  N68  1  0.87796250  0.90164244  0.36904202  1
  N  N69  1  0.74881454  0.77124126  0.08653352  1
  N  N70  1  0.55652959  0.87319994  0.82112868  1
  N  N71  1  0.44579750  0.76246892  0.57253000  1
