# generated using pymatgen
data_Al17BN18
_symmetry_space_group_name_H-M   'P 1'
_cell_length_a   9.32834448
_cell_length_b   9.31068962
_cell_length_c   10.05085937
_cell_angle_alpha   89.61821351
_cell_angle_beta   89.95031911
_cell_angle_gamma   59.92713305
_symmetry_Int_Tables_number   1
_chemical_formula_structural   Al17BN18
_chemical_formula_sum   'Al34 B2 N36'
_cell_volume   755.42175436
_cell_formula_units_Z   2
loop_
 _symmetry_equiv_pos_site_id
 _symmetry_equiv_pos_as_xyz
  1  'x, y, z'
loop_
 _atom_site_type_symbol
 _atom_site_label
 _atom_site_symmetry_multiplicity
 _atom_site_fract_x
 _atom_site_fract_y
 _atom_site_fract_z
 _atom_site_occupancy
  Al  Al0  1  0.10476878  0.09315304  0.31245595  1
  Al  Al1  1  0.21939708  0.20303938  0.07097564  1
  Al  Al2  1  0.77730018  0.09420844  0.81662156  1
  Al  Al3  1  0.88675198  0.20319342  0.56038015  1
  Al  Al4  1  0.44943745  0.09242857  0.37311152  1
  Al  Al5  1  0.56185326  0.20102285  0.07897978  1
  Al  Al6  1  0.11122417  0.09486895  0.81468799  1
  Al  Al7  1  0.21548132  0.20933617  0.56167534  1
  Al  Al8  1  0.88687228  0.20461832  0.06847395  1
  Al  Al9  1  0.45422656  0.07830660  0.89085956  1
  Al  Al10  1  0.56523061  0.20715793  0.55939879  1
  Al  Al11  1  0.10899485  0.43027232  0.31134172  1
  Al  Al12  1  0.22183245  0.53983551  0.06241217  1
  Al  Al13  1  0.77881840  0.42619506  0.81326843  1
  Al  Al14  1  0.88912840  0.53944073  0.56136623  1
  Al  Al15  1  0.44882476  0.42567995  0.31248867  1
  Al  Al16  1  0.55694142  0.54440634  0.06280533  1
  Al  Al17  1  0.11374636  0.42466130  0.81485349  1
  Al  Al18  1  0.22255308  0.53852596  0.56473530  1
  Al  Al19  1  0.77597627  0.42459891  0.31268226  1
  Al  Al20  1  0.88073420  0.54545205  0.06306177  1
  Al  Al21  1  0.44669454  0.42302443  0.81569819  1
  Al  Al22  1  0.55576438  0.53921963  0.56189461  1
  Al  Al23  1  0.10721855  0.76599619  0.31237424  1
  Al  Al24  1  0.22690342  0.87314090  0.06322496  1
  Al  Al25  1  0.78597179  0.75816236  0.81276788  1
  Al  Al26  1  0.88727945  0.87773815  0.55796153  1
  Al  Al27  1  0.44111037  0.76022678  0.31200865  1
  Al  Al28  1  0.10988882  0.76215944  0.81389697  1
  Al  Al29  1  0.22141997  0.87224680  0.56180706  1
  Al  Al30  1  0.77863201  0.76658772  0.31222238  1
  Al  Al31  1  0.88164598  0.87590501  0.07010393  1
  Al  Al32  1  0.44195554  0.75725860  0.81224177  1
  Al  Al33  1  0.55302410  0.87957791  0.62708212  1
  B  B34  1  0.77842054  0.09604723  0.31010584  1
  B  B35  1  0.55237112  0.87645662  0.14483936  1
  N  N36  1  0.21240188  0.20943274  0.36851752  1
  N  N37  1  0.10899705  0.09280457  0.12490232  1
  N  N38  1  0.88894530  0.20396042  0.87732065  1
  N  N39  1  0.77904347  0.09373941  0.62841910  1
  N  N40  1  0.58422286  0.19644380  0.36320745  1
  N  N41  1  0.45943023  0.06279228  0.08841665  1
  N  N42  1  0.22143549  0.20459580  0.87782496  1
  N  N43  1  0.10948533  0.09493049  0.62298403  1
  N  N44  1  0.87626964  0.19339205  0.36733956  1
  N  N45  1  0.78030721  0.09376622  0.14670495  1
  N  N46  1  0.56051828  0.20469509  0.88434881  1
  N  N47  1  0.44658681  0.09534076  0.56744979  1
  N  N48  1  0.22261765  0.53846873  0.37380618  1
  N  N49  1  0.10844597  0.43062968  0.12233957  1
  N  N50  1  0.88980862  0.53759393  0.87320288  1
  N  N51  1  0.77906339  0.42619228  0.62133925  1
  N  N52  1  0.55512644  0.53972621  0.37278544  1
  N  N53  1  0.44376130  0.43052516  0.12400009  1
  N  N54  1  0.22313239  0.53824078  0.87244366  1
  N  N55  1  0.11101480  0.42748595  0.62456472  1
  N  N56  1  0.88682751  0.54083336  0.37139157  1
  N  N57  1  0.77749927  0.42773037  0.12385394  1
  N  N58  1  0.55654216  0.53715260  0.87326972  1
  N  N59  1  0.44647107  0.42556751  0.62378996  1
  N  N60  1  0.22134383  0.87189876  0.37273584  1
  N  N61  1  0.11093684  0.76171258  0.12303746  1
  N  N62  1  0.88909583  0.87288981  0.87907933  1
  N  N63  1  0.78588458  0.75946893  0.61748618  1
  N  N64  1  0.55089279  0.87822303  0.31701280  1
  N  N65  1  0.45443922  0.77103425  0.12003224  1
  N  N66  1  0.22259757  0.87148256  0.87365166  1
  N  N67  1  0.10905488  0.76244889  0.62220872  1
  N  N68  1  0.87669618  0.89753950  0.36559961  1
  N  N69  1  0.75622841  0.77185700  0.12071628  1
  N  N70  1  0.55607146  0.87334114  0.81848029  1
  N  N71  1  0.44113050  0.75848812  0.61910297  1
