# generated using pymatgen
data_Al17BN18
_symmetry_space_group_name_H-M   'P 1'
_cell_length_a   9.35587465
_cell_length_b   9.35093927
_cell_length_c   10.11668870
_cell_angle_alpha   89.66950890
_cell_angle_beta   89.66652492
_cell_angle_gamma   59.94381531
_symmetry_Int_Tables_number   1
_chemical_formula_structural   Al17BN18
_chemical_formula_sum   'Al34 B2 N36'
_cell_volume   766.04234582
_cell_formula_units_Z   2
loop_
 _symmetry_equiv_pos_site_id
 _symmetry_equiv_pos_as_xyz
  1  'x, y, z'
loop_
 _atom_site_type_symbol
 _atom_site_label
 _atom_site_symmetry_multiplicity
 _atom_site_fract_x
 _atom_site_fract_y
 _atom_site_fract_z
 _atom_site_occupancy
  Al  Al0  1  0.10448266  0.09481802  0.33739446  1
  Al  Al1  1  0.22795191  0.20363514  0.13842447  1
  Al  Al2  1  0.77566133  0.09257639  0.82173901  1
  Al  Al3  1  0.88616870  0.20447513  0.56584717  1
  Al  Al4  1  0.44980583  0.08712980  0.37701900  1
  Al  Al5  1  0.56240529  0.20037352  0.08165595  1
  Al  Al6  1  0.10965834  0.09457670  0.84734379  1
  Al  Al7  1  0.22657214  0.20613938  0.63624980  1
  Al  Al8  1  0.88621444  0.20562831  0.07460502  1
  Al  Al9  1  0.44612227  0.08480039  0.89568929  1
  Al  Al10  1  0.56421432  0.20475187  0.56288707  1
  Al  Al11  1  0.10850051  0.42514898  0.39051241  1
  Al  Al12  1  0.22510711  0.54164482  0.06832126  1
  Al  Al13  1  0.78043478  0.42231422  0.82216534  1
  Al  Al14  1  0.89137453  0.54562376  0.63587558  1
  Al  Al15  1  0.44542300  0.42129445  0.31988039  1
  Al  Al16  1  0.55357542  0.54876319  0.13685558  1
  Al  Al17  1  0.10793776  0.42513362  0.88873721  1
  Al  Al18  1  0.22530313  0.54231824  0.56984741  1
  Al  Al19  1  0.77957709  0.41850110  0.32180971  1
  Al  Al20  1  0.88831846  0.54540758  0.13881139  1
  Al  Al21  1  0.44234413  0.42113823  0.82193509  1
  Al  Al22  1  0.55257208  0.54483293  0.63492286  1
  Al  Al23  1  0.10442784  0.76203827  0.31907986  1
  Al  Al24  1  0.23158186  0.87155134  0.13712050  1
  Al  Al25  1  0.76863674  0.76193856  0.89565330  1
  Al  Al26  1  0.88819688  0.88174913  0.56273653  1
  Al  Al27  1  0.44554345  0.76164529  0.38596390  1
  Al  Al28  1  0.10425827  0.75872507  0.82163069  1
  Al  Al29  1  0.22594592  0.87317341  0.63634886  1
  Al  Al30  1  0.77061806  0.76648787  0.37695178  1
  Al  Al31  1  0.88382549  0.87941711  0.08147851  1
  Al  Al32  1  0.44725694  0.76176772  0.89297273  1
  Al  Al33  1  0.55708161  0.87438719  0.63605043  1
  B  B34  1  0.77762870  0.09480900  0.31535130  1
  B  B35  1  0.55554817  0.87215210  0.14271862  1
  N  N36  1  0.22468613  0.20868095  0.32744435  1
  N  N37  1  0.10931765  0.09594916  0.11233096  1
  N  N38  1  0.88455633  0.20484101  0.88462312  1
  N  N39  1  0.77694263  0.09444226  0.63478639  1
  N  N40  1  0.58431997  0.19335625  0.36994526  1
  N  N41  1  0.45684500  0.06519064  0.08854152  1
  N  N42  1  0.22859285  0.20588177  0.82945203  1
  N  N43  1  0.10813003  0.09749264  0.60893573  1
  N  N44  1  0.87490289  0.19344445  0.37387366  1
  N  N45  1  0.77857053  0.09558270  0.15372300  1
  N  N46  1  0.55922748  0.20492629  0.88951426  1
  N  N47  1  0.44438721  0.09107900  0.56905979  1
  N  N48  1  0.22497685  0.54184891  0.38032886  1
  N  N49  1  0.10859608  0.42490005  0.07808564  1
  N  N50  1  0.89008870  0.54569672  0.82911159  1
  N  N51  1  0.78164125  0.42293765  0.62440152  1
  N  N52  1  0.55245104  0.54352218  0.33316086  1
  N  N53  1  0.44121292  0.42504949  0.13002113  1
  N  N54  1  0.22443642  0.54088296  0.87888778  1
  N  N55  1  0.10958350  0.42555066  0.57983848  1
  N  N56  1  0.89251881  0.54172291  0.32870804  1
  N  N57  1  0.78068599  0.42374714  0.12619639  1
  N  N58  1  0.55150909  0.54411347  0.83346968  1
  N  N59  1  0.44338078  0.42112895  0.62902235  1
  N  N60  1  0.22760841  0.86888783  0.33066049  1
  N  N61  1  0.10834795  0.75789172  0.12967236  1
  N  N62  1  0.88834405  0.87623089  0.88954894  1
  N  N63  1  0.77376704  0.76214118  0.56877639  1
  N  N64  1  0.55436028  0.87085486  0.30486457  1
  N  N65  1  0.45712456  0.77331921  0.08317949  1
  N  N66  1  0.22813008  0.86801701  0.83310464  1
  N  N67  1  0.10438181  0.76056654  0.62937240  1
  N  N68  1  0.87694661  0.90143986  0.36988479  1
  N  N69  1  0.74879930  0.77328668  0.08844916  1
  N  N70  1  0.55603137  0.87230845  0.82349371  1
  N  N71  1  0.44542635  0.76346434  0.57449037  1
