# generated using pymatgen
data_Al17BN18
_symmetry_space_group_name_H-M   'P 1'
_cell_length_a   9.33917111
_cell_length_b   9.33140179
_cell_length_c   10.11927214
_cell_angle_alpha   89.64502371
_cell_angle_beta   89.75066761
_cell_angle_gamma   59.99566233
_symmetry_Int_Tables_number   1
_chemical_formula_structural   Al17BN18
_chemical_formula_sum   'Al34 B2 N36'
_cell_volume   763.67285783
_cell_formula_units_Z   2
loop_
 _symmetry_equiv_pos_site_id
 _symmetry_equiv_pos_as_xyz
  1  'x, y, z'
loop_
 _atom_site_type_symbol
 _atom_site_label
 _atom_site_symmetry_multiplicity
 _atom_site_fract_x
 _atom_site_fract_y
 _atom_site_fract_z
 _atom_site_occupancy
  Al  Al0  1  0.10227829  0.09143241  0.31923770  1
  Al  Al1  1  0.22855734  0.20353730  0.14018080  1
  Al  Al2  1  0.77634481  0.09253916  0.82379178  1
  Al  Al3  1  0.88767604  0.20290199  0.56691618  1
  Al  Al4  1  0.44897240  0.08825660  0.37763597  1
  Al  Al5  1  0.56222394  0.20017326  0.08228034  1
  Al  Al6  1  0.10841302  0.09028949  0.82105298  1
  Al  Al7  1  0.22910240  0.20638690  0.63812064  1
  Al  Al8  1  0.88732107  0.20502895  0.07346286  1
  Al  Al9  1  0.44508076  0.08614126  0.89608485  1
  Al  Al10  1  0.56476519  0.20369907  0.56389054  1
  Al  Al11  1  0.10830339  0.42494468  0.39064730  1
  Al  Al12  1  0.22422422  0.54226640  0.06899313  1
  Al  Al13  1  0.77690223  0.42318556  0.82246054  1
  Al  Al14  1  0.89123638  0.54550912  0.63775244  1
  Al  Al15  1  0.44591786  0.42244133  0.32053614  1
  Al  Al16  1  0.55497472  0.54453368  0.10749211  1
  Al  Al17  1  0.10826247  0.42419873  0.88859386  1
  Al  Al18  1  0.22475353  0.54253736  0.57157308  1
  Al  Al19  1  0.77784587  0.41815687  0.32129103  1
  Al  Al20  1  0.88759322  0.54580377  0.14008230  1
  Al  Al21  1  0.44476343  0.42404010  0.82300434  1
  Al  Al22  1  0.55686559  0.53776633  0.59360477  1
  Al  Al23  1  0.10743957  0.76536491  0.31910677  1
  Al  Al24  1  0.21953920  0.87787698  0.07349755  1
  Al  Al25  1  0.77095565  0.76140664  0.89596264  1
  Al  Al26  1  0.88836527  0.88091840  0.56441672  1
  Al  Al27  1  0.44813119  0.76340117  0.38040368  1
  Al  Al28  1  0.10933498  0.76205025  0.82209778  1
  Al  Al29  1  0.21671588  0.87670794  0.56892805  1
  Al  Al30  1  0.77167537  0.76643802  0.37743091  1
  Al  Al31  1  0.88357362  0.87925331  0.08305973  1
  Al  Al32  1  0.45262330  0.76160341  0.89123105  1
  Al  Al33  1  0.55751545  0.87367975  0.63714950  1
  B  B34  1  0.77796721  0.09451058  0.31721143  1
  B  B35  1  0.55328081  0.87200862  0.14335252  1
  N  N36  1  0.22420618  0.20802807  0.32915853  1
  N  N37  1  0.10616058  0.09384667  0.13084967  1
  N  N38  1  0.88902058  0.20329478  0.88475467  1
  N  N39  1  0.77730611  0.09377293  0.63615310  1
  N  N40  1  0.58447597  0.19325721  0.37106909  1
  N  N41  1  0.45535316  0.06610142  0.08867690  1
  N  N42  1  0.22879096  0.20515843  0.82974710  1
  N  N43  1  0.10696700  0.09348024  0.62977953  1
  N  N44  1  0.87702669  0.19293058  0.37635827  1
  N  N45  1  0.77836926  0.09598274  0.15460664  1
  N  N46  1  0.55939735  0.20538998  0.89029035  1
  N  N47  1  0.44437913  0.09071493  0.56947818  1
  N  N48  1  0.22435493  0.54308243  0.38134595  1
  N  N49  1  0.10791924  0.42463505  0.07850190  1
  N  N50  1  0.88978718  0.54516633  0.82935234  1
  N  N51  1  0.78098261  0.42177872  0.62734295  1
  N  N52  1  0.55506891  0.53785366  0.35773742  1
  N  N53  1  0.44093338  0.42576820  0.13260243  1
  N  N54  1  0.22452143  0.54152880  0.87896429  1
  N  N55  1  0.10921769  0.42498979  0.58035991  1
  N  N56  1  0.89177735  0.54172305  0.32931085  1
  N  N57  1  0.77978470  0.42273821  0.12975645  1
  N  N58  1  0.55521898  0.53803180  0.86402842  1
  N  N59  1  0.44486366  0.42189132  0.63062639  1
  N  N60  1  0.21615494  0.87531735  0.37888310  1
  N  N61  1  0.11104957  0.76047105  0.13242292  1
  N  N62  1  0.89074727  0.87523869  0.89039250  1
  N  N63  1  0.77471539  0.76138889  0.56956674  1
  N  N64  1  0.55478149  0.87231313  0.30475974  1
  N  N65  1  0.45735983  0.77649211  0.08845667  1
  N  N66  1  0.22023643  0.87266058  0.88303099  1
  N  N67  1  0.10789055  0.76320412  0.63169125  1
  N  N68  1  0.87739637  0.90113901  0.37053991  1
  N  N69  1  0.74929033  0.77293525  0.08867904  1
  N  N70  1  0.55752325  0.87332635  0.82376044  1
  N  N71  1  0.44857855  0.76462114  0.57603445  1
