# generated using pymatgen
data_Al17BN18
_symmetry_space_group_name_H-M   'P 1'
_cell_length_a   9.32689906
_cell_length_b   9.30718058
_cell_length_c   10.06628862
_cell_angle_alpha   89.68571454
_cell_angle_beta   89.96062071
_cell_angle_gamma   59.92625816
_symmetry_Int_Tables_number   1
_chemical_formula_structural   Al17BN18
_chemical_formula_sum   'Al34 B2 N36'
_cell_volume   756.17875075
_cell_formula_units_Z   2
loop_
 _symmetry_equiv_pos_site_id
 _symmetry_equiv_pos_as_xyz
  1  'x, y, z'
loop_
 _atom_site_type_symbol
 _atom_site_label
 _atom_site_symmetry_multiplicity
 _atom_site_fract_x
 _atom_site_fract_y
 _atom_site_fract_z
 _atom_site_occupancy
  Al  Al0  1  0.10418980  0.09356852  0.32111792  1
  Al  Al1  1  0.21854940  0.20391773  0.08042362  1
  Al  Al2  1  0.77734491  0.09395730  0.82538925  1
  Al  Al3  1  0.88684247  0.20285752  0.56930254  1
  Al  Al4  1  0.44894631  0.09308080  0.37877112  1
  Al  Al5  1  0.56193356  0.20185222  0.08848019  1
  Al  Al6  1  0.11151503  0.09466934  0.82350100  1
  Al  Al7  1  0.21639078  0.20812009  0.56922992  1
  Al  Al8  1  0.88671076  0.20498013  0.07721596  1
  Al  Al9  1  0.45458673  0.07770950  0.90262110  1
  Al  Al10  1  0.56546149  0.20587629  0.56689194  1
  Al  Al11  1  0.10813895  0.43138465  0.32015737  1
  Al  Al12  1  0.22173602  0.54011231  0.07131247  1
  Al  Al13  1  0.77916092  0.42559076  0.82201814  1
  Al  Al14  1  0.88926419  0.53924803  0.57083070  1
  Al  Al15  1  0.44850554  0.42678197  0.32132014  1
  Al  Al16  1  0.55672636  0.54449725  0.07125155  1
  Al  Al17  1  0.11458510  0.42355000  0.82356168  1
  Al  Al18  1  0.22287120  0.53789286  0.57348891  1
  Al  Al19  1  0.77556487  0.42539483  0.32161696  1
  Al  Al20  1  0.88088879  0.54557490  0.07156918  1
  Al  Al21  1  0.44707831  0.42187890  0.82439826  1
  Al  Al22  1  0.55581996  0.53903860  0.57130745  1
  Al  Al23  1  0.10691805  0.76661039  0.32146942  1
  Al  Al24  1  0.22626239  0.87329939  0.07164815  1
  Al  Al25  1  0.78659852  0.75753680  0.82289921  1
  Al  Al26  1  0.88724148  0.87713173  0.56730116  1
  Al  Al27  1  0.44014736  0.76047240  0.31919894  1
  Al  Al28  1  0.11026124  0.76154420  0.82247080  1
  Al  Al29  1  0.22199092  0.87181122  0.57113646  1
  Al  Al30  1  0.77919347  0.76688632  0.31947161  1
  Al  Al31  1  0.88222253  0.87604629  0.07857208  1
  Al  Al32  1  0.44204015  0.75666432  0.82225495  1
  Al  Al33  1  0.55307814  0.87964819  0.63886268  1
  B  B34  1  0.77821005  0.09680816  0.31887852  1
  B  B35  1  0.55141456  0.87817357  0.15588462  1
  N  N36  1  0.21160720  0.21031793  0.37653171  1
  N  N37  1  0.10866125  0.09300088  0.13385726  1
  N  N38  1  0.88917430  0.20361626  0.88621842  1
  N  N39  1  0.77880396  0.09352570  0.63723876  1
  N  N40  1  0.58391375  0.19734814  0.37122270  1
  N  N41  1  0.45836286  0.06491849  0.09839964  1
  N  N42  1  0.22187233  0.20396078  0.88736551  1
  N  N43  1  0.10977503  0.09474827  0.63187294  1
  N  N44  1  0.87585250  0.19401469  0.37633729  1
  N  N45  1  0.78054747  0.09395663  0.15573152  1
  N  N46  1  0.56094165  0.20405752  0.89390787  1
  N  N47  1  0.44809460  0.09210536  0.57257457  1
  N  N48  1  0.22236129  0.53900146  0.38276258  1
  N  N49  1  0.10803155  0.43135998  0.13146525  1
  N  N50  1  0.89053412  0.53659532  0.88200353  1
  N  N51  1  0.77925482  0.42579467  0.63039163  1
  N  N52  1  0.55475107  0.54094819  0.38219996  1
  N  N53  1  0.44352482  0.43121862  0.13312622  1
  N  N54  1  0.22347178  0.53770670  0.88141380  1
  N  N55  1  0.11193527  0.42619124  0.63329032  1
  N  N56  1  0.88595020  0.54211141  0.38085120  1
  N  N57  1  0.77723815  0.42827661  0.13287916  1
  N  N58  1  0.55690899  0.53618297  0.88200316  1
  N  N59  1  0.44686514  0.42424039  0.63245604  1
  N  N60  1  0.22131309  0.87247597  0.38213905  1
  N  N61  1  0.11086527  0.76201371  0.13225745  1
  N  N62  1  0.88972718  0.87273946  0.88785455  1
  N  N63  1  0.78584149  0.75915227  0.62775544  1
  N  N64  1  0.54983071  0.88017697  0.31819753  1
  N  N65  1  0.45309481  0.77078142  0.12793550  1
  N  N66  1  0.22230215  0.87134769  0.88240180  1
  N  N67  1  0.10938587  0.76188189  0.63108216  1
  N  N68  1  0.87620551  0.89796245  0.37499452  1
  N  N69  1  0.75784990  0.77162404  0.12865750  1
  N  N70  1  0.55629131  0.87304758  0.82933912  1
  N  N71  1  0.44151368  0.75825766  0.62923543  1
