# generated using pymatgen
data_Al17BN18
_symmetry_space_group_name_H-M   'P 1'
_cell_length_a   9.32679044
_cell_length_b   9.33075406
_cell_length_c   10.05538643
_cell_angle_alpha   89.71868431
_cell_angle_beta   89.64675811
_cell_angle_gamma   59.96610738
_symmetry_Int_Tables_number   1
_chemical_formula_structural   Al17BN18
_chemical_formula_sum   'Al34 B2 N36'
_cell_volume   757.56642237
_cell_formula_units_Z   2
loop_
 _symmetry_equiv_pos_site_id
 _symmetry_equiv_pos_as_xyz
  1  'x, y, z'
loop_
 _atom_site_type_symbol
 _atom_site_label
 _atom_site_symmetry_multiplicity
 _atom_site_fract_x
 _atom_site_fract_y
 _atom_site_fract_z
 _atom_site_occupancy
  Al  Al0  1  0.10564345  0.09423155  0.38761868  1
  Al  Al1  1  0.22331418  0.20078963  0.13677213  1
  Al  Al2  1  0.77349665  0.08995808  0.81923404  1
  Al  Al3  1  0.89246559  0.20892898  0.63710873  1
  Al  Al4  1  0.44798401  0.08889289  0.37097757  1
  Al  Al5  1  0.55936069  0.19842634  0.08129079  1
  Al  Al6  1  0.10985210  0.09500069  0.88684381  1
  Al  Al7  1  0.22669467  0.20366707  0.63459884  1
  Al  Al8  1  0.88916876  0.20679252  0.14178255  1
  Al  Al9  1  0.44432984  0.08538368  0.89113792  1
  Al  Al10  1  0.56767314  0.19889111  0.55997431  1
  Al  Al11  1  0.11024467  0.42711043  0.38741326  1
  Al  Al12  1  0.22188075  0.53691891  0.13760684  1
  Al  Al13  1  0.77827954  0.42656217  0.88691168  1
  Al  Al14  1  0.88773595  0.54303738  0.63455818  1
  Al  Al15  1  0.44747190  0.43063656  0.37931116  1
  Al  Al16  1  0.55706765  0.54458475  0.13708980  1
  Al  Al17  1  0.11160523  0.42720851  0.88447865  1
  Al  Al18  1  0.22301538  0.53911958  0.63369059  1
  Al  Al19  1  0.77674877  0.42323003  0.38744625  1
  Al  Al20  1  0.88379754  0.54061014  0.13653300  1
  Al  Al21  1  0.44328544  0.43212178  0.88908947  1
  Al  Al22  1  0.55490816  0.53980388  0.63539656  1
  Al  Al23  1  0.11060050  0.76598331  0.36820087  1
  Al  Al24  1  0.22820396  0.87497673  0.13590295  1
  Al  Al25  1  0.76933619  0.76058302  0.89136446  1
  Al  Al26  1  0.88555049  0.88255072  0.55906558  1
  Al  Al27  1  0.44583896  0.76329580  0.38216377  1
  Al  Al28  1  0.11526159  0.75930379  0.88518745  1
  Al  Al29  1  0.22359040  0.87114307  0.63470394  1
  Al  Al30  1  0.77126740  0.76511624  0.37143568  1
  Al  Al31  1  0.88113092  0.87712625  0.08136898  1
  Al  Al32  1  0.44766987  0.76324599  0.88850862  1
  Al  Al33  1  0.55740389  0.87291813  0.63185467  1
  B  B34  1  0.77348439  0.09297747  0.30745424  1
  B  B35  1  0.55361054  0.87001258  0.13942605  1
  N  N36  1  0.21934015  0.20636772  0.32527613  1
  N  N37  1  0.10787869  0.09562738  0.07602242  1
  N  N38  1  0.89102017  0.20766899  0.82838227  1
  N  N39  1  0.77632485  0.09138857  0.63122329  1
  N  N40  1  0.58437145  0.19245039  0.36294433  1
  N  N41  1  0.45261383  0.06552606  0.08651787  1
  N  N42  1  0.22538255  0.20355392  0.82630470  1
  N  N43  1  0.11233898  0.09431862  0.57676396  1
  N  N44  1  0.87959349  0.19726721  0.33231187  1
  N  N45  1  0.77268819  0.09107075  0.14768336  1
  N  N46  1  0.55958297  0.20125366  0.88527343  1
  N  N47  1  0.44408176  0.09042422  0.56578843  1
  N  N48  1  0.22189231  0.53692486  0.32595740  1
  N  N49  1  0.11066529  0.42701352  0.07486896  1
  N  N50  1  0.88772726  0.54156655  0.82645449  1
  N  N51  1  0.77795764  0.42877036  0.57677079  1
  N  N52  1  0.55702698  0.54174713  0.32498288  1
  N  N53  1  0.44260853  0.43478948  0.08210307  1
  N  N54  1  0.22365332  0.53816412  0.82522425  1
  N  N55  1  0.11153340  0.42720585  0.57712137  1
  N  N56  1  0.88933108  0.53669131  0.32511471  1
  N  N57  1  0.77800965  0.42539142  0.07634228  1
  N  N58  1  0.55523306  0.54066921  0.82703612  1
  N  N59  1  0.44458516  0.43013248  0.57291550  1
  N  N60  1  0.22486021  0.87543659  0.32404459  1
  N  N61  1  0.11627521  0.75993085  0.08703718  1
  N  N62  1  0.88513000  0.87621332  0.88573333  1
  N  N63  1  0.77509842  0.76027695  0.56566660  1
  N  N64  1  0.55386678  0.87096066  0.30195970  1
  N  N65  1  0.45701582  0.77308630  0.08115447  1
  N  N66  1  0.22491201  0.87169327  0.82744919  1
  N  N67  1  0.11442237  0.76026978  0.57435047  1
  N  N68  1  0.87375344  0.90256047  0.36209234  1
  N  N69  1  0.74866884  0.76984797  0.08640065  1
  N  N70  1  0.55641454  0.87211908  0.82005170  1
  N  N71  1  0.44622573  0.76197782  0.57268317  1
