# generated using pymatgen
data_Al17BN18
_symmetry_space_group_name_H-M   'P 1'
_cell_length_a   9.32648825
_cell_length_b   9.31606387
_cell_length_c   10.00872753
_cell_angle_alpha   89.65763586
_cell_angle_beta   89.93581343
_cell_angle_gamma   59.95390994
_symmetry_Int_Tables_number   1
_chemical_formula_structural   Al17BN18
_chemical_formula_sum   'Al34 B2 N36'
_cell_volume   752.74771552
_cell_formula_units_Z   2
loop_
 _symmetry_equiv_pos_site_id
 _symmetry_equiv_pos_as_xyz
  1  'x, y, z'
loop_
 _atom_site_type_symbol
 _atom_site_label
 _atom_site_symmetry_multiplicity
 _atom_site_fract_x
 _atom_site_fract_y
 _atom_site_fract_z
 _atom_site_occupancy
  Al  Al0  1  0.10715061  0.09218062  0.39639444  1
  Al  Al1  1  0.22557515  0.20143403  0.14734996  1
  Al  Al2  1  0.77623988  0.09634614  0.87003351  1
  Al  Al3  1  0.89013819  0.20708921  0.65099718  1
  Al  Al4  1  0.45240391  0.08947662  0.38933818  1
  Al  Al5  1  0.56273856  0.19742072  0.14224206  1
  Al  Al6  1  0.11199911  0.09499439  0.89850471  1
  Al  Al7  1  0.22400849  0.20383086  0.64572953  1
  Al  Al8  1  0.88638817  0.20325128  0.14204822  1
  Al  Al9  1  0.44560906  0.08938435  0.90220181  1
  Al  Al10  1  0.55140063  0.20612492  0.65079325  1
  Al  Al11  1  0.11146592  0.42689881  0.39787595  1
  Al  Al12  1  0.22295538  0.53799901  0.14844306  1
  Al  Al13  1  0.77798691  0.42812147  0.89887076  1
  Al  Al14  1  0.88732958  0.54063646  0.64467806  1
  Al  Al15  1  0.45267049  0.42195789  0.39642808  1
  Al  Al16  1  0.55687704  0.54305669  0.14705253  1
  Al  Al17  1  0.11084881  0.42806268  0.89516581  1
  Al  Al18  1  0.22217974  0.53901336  0.64546329  1
  Al  Al19  1  0.77572642  0.42277352  0.39657992  1
  Al  Al20  1  0.88423498  0.54225840  0.14734261  1
  Al  Al21  1  0.44326738  0.42783972  0.89940885  1
  Al  Al22  1  0.55540414  0.53899549  0.64648795  1
  Al  Al23  1  0.11197786  0.76518110  0.39182546  1
  Al  Al24  1  0.22779470  0.87398009  0.14729375  1
  Al  Al25  1  0.76884681  0.75900000  0.89753915  1
  Al  Al26  1  0.88270367  0.88154627  0.59309858  1
  Al  Al27  1  0.44658000  0.76180892  0.39160483  1
  Al  Al28  1  0.11764593  0.75688880  0.89539410  1
  Al  Al29  1  0.22287464  0.87223866  0.64578289  1
  Al  Al30  1  0.77188996  0.76698997  0.38402240  1
  Al  Al31  1  0.88279656  0.87593166  0.08324813  1
  Al  Al32  1  0.44659422  0.76364160  0.89975264  1
  Al  Al33  1  0.55531796  0.87291562  0.64365556  1
  B  B34  1  0.77951410  0.09244858  0.35567082  1
  B  B35  1  0.55497578  0.87161400  0.14999671  1
  N  N36  1  0.22236329  0.20504390  0.33728276  1
  N  N37  1  0.11066826  0.09553024  0.08912295  1
  N  N38  1  0.89377973  0.21052993  0.84047285  1
  N  N39  1  0.77624074  0.09604658  0.63605304  1
  N  N40  1  0.58709151  0.18954408  0.33799285  1
  N  N41  1  0.45679700  0.06981030  0.09620144  1
  N  N42  1  0.22446784  0.20402423  0.83812179  1
  N  N43  1  0.11018024  0.09516457  0.58585173  1
  N  N44  1  0.87439081  0.19018603  0.33879067  1
  N  N45  1  0.77445615  0.10281927  0.07579251  1
  N  N46  1  0.54408316  0.20927830  0.84215157  1
  N  N47  1  0.44532433  0.09379389  0.58027235  1
  N  N48  1  0.22409093  0.53706958  0.33841031  1
  N  N49  1  0.11039127  0.42876734  0.08666360  1
  N  N50  1  0.88710398  0.53996203  0.83638721  1
  N  N51  1  0.77777574  0.42743405  0.58591643  1
  N  N52  1  0.55583233  0.53902778  0.33630983  1
  N  N53  1  0.44511689  0.42733267  0.09070386  1
  N  N54  1  0.22328874  0.53810308  0.83567349  1
  N  N55  1  0.11070066  0.42773368  0.58791032  1
  N  N56  1  0.88934257  0.53707889  0.33678893  1
  N  N57  1  0.77820292  0.42794943  0.08927494  1
  N  N58  1  0.55438621  0.54036816  0.83929585  1
  N  N59  1  0.44492208  0.42698344  0.58608540  1
  N  N60  1  0.22420905  0.87294901  0.33577584  1
  N  N61  1  0.11847939  0.75932619  0.09043475  1
  N  N62  1  0.89031920  0.86408376  0.87827177  1
  N  N63  1  0.77369811  0.76028352  0.57796554  1
  N  N64  1  0.55409153  0.87217495  0.31422233  1
  N  N65  1  0.45679389  0.77409963  0.09328720  1
  N  N66  1  0.22432338  0.87211012  0.83754208  1
  N  N67  1  0.11361564  0.76025475  0.58437494  1
  N  N68  1  0.87295762  0.90580619  0.36892542  1
  N  N69  1  0.74912150  0.77214800  0.09579531  1
  N  N70  1  0.55344571  0.87336229  0.83189623  1
  N  N71  1  0.44504181  0.76188393  0.58293020  1
