# generated using pymatgen
data_Al17BN18
_symmetry_space_group_name_H-M   'P 1'
_cell_length_a   9.31758790
_cell_length_b   9.31759170
_cell_length_c   10.12415404
_cell_angle_alpha   89.64399444
_cell_angle_beta   89.64297878
_cell_angle_gamma   60.07191402
_symmetry_Int_Tables_number   1
_chemical_formula_structural   Al17BN18
_chemical_formula_sum   'Al34 B2 N36'
_cell_volume   761.72741933
_cell_formula_units_Z   2
loop_
 _symmetry_equiv_pos_site_id
 _symmetry_equiv_pos_as_xyz
  1  'x, y, z'
loop_
 _atom_site_type_symbol
 _atom_site_label
 _atom_site_symmetry_multiplicity
 _atom_site_fract_x
 _atom_site_fract_y
 _atom_site_fract_z
 _atom_site_occupancy
  Al  Al0  1  0.10907083  0.09096644  0.38523335  1
  Al  Al1  1  0.22605774  0.20149336  0.13897854  1
  Al  Al2  1  0.77579599  0.09247053  0.82189613  1
  Al  Al3  1  0.88765300  0.20432507  0.60164800  1
  Al  Al4  1  0.44928711  0.08796140  0.37468750  1
  Al  Al5  1  0.56050722  0.20106862  0.07930272  1
  Al  Al6  1  0.11260820  0.09206437  0.88859069  1
  Al  Al7  1  0.22595713  0.20459890  0.63670902  1
  Al  Al8  1  0.88825325  0.20492544  0.11333080  1
  Al  Al9  1  0.44490479  0.08572507  0.89333430  1
  Al  Al10  1  0.56316380  0.20558123  0.56088725  1
  Al  Al11  1  0.10789693  0.42457013  0.38815233  1
  Al  Al12  1  0.22491506  0.54158652  0.06742528  1
  Al  Al13  1  0.77538887  0.42928346  0.88859109  1
  Al  Al14  1  0.88792564  0.54262982  0.63670932  1
  Al  Al15  1  0.44659560  0.42136299  0.31764855  1
  Al  Al16  1  0.55831237  0.54790083  0.13849722  1
  Al  Al17  1  0.10744663  0.42412128  0.88604525  1
  Al  Al18  1  0.22538503  0.54205737  0.56924802  1
  Al  Al19  1  0.77429332  0.42574230  0.38523348  1
  Al  Al20  1  0.88482140  0.54272938  0.13897848  1
  Al  Al21  1  0.44325062  0.42135330  0.82017125  1
  Al  Al22  1  0.55786920  0.54366388  0.63777784  1
  Al  Al23  1  0.10468947  0.76326885  0.31764847  1
  Al  Al24  1  0.23122722  0.87498579  0.13849689  1
  Al  Al25  1  0.76905004  0.76157985  0.89333444  1
  Al  Al26  1  0.88890833  0.87983555  0.56088760  1
  Al  Al27  1  0.44558401  0.76225792  0.38367488  1
  Al  Al28  1  0.10467904  0.75992496  0.82017145  1
  Al  Al29  1  0.22698971  0.87454315  0.63777788  1
  Al  Al30  1  0.77128911  0.76595825  0.37468778  1
  Al  Al31  1  0.88439639  0.87717927  0.07930282  1
  Al  Al32  1  0.44636893  0.76304422  0.89061472  1
  Al  Al33  1  0.55766987  0.87434362  0.63398280  1
  B  B34  1  0.77884852  0.09552161  0.31379847  1
  B  B35  1  0.55534643  0.87201789  0.14047411  1
  N  N36  1  0.22180320  0.20600405  0.32563814  1
  N  N37  1  0.11457578  0.09249902  0.07840499  1
  N  N38  1  0.88842801  0.20510218  0.85475474  1
  N  N39  1  0.77442743  0.09110130  0.63379153  1
  N  N40  1  0.58426529  0.19466039  0.36934191  1
  N  N41  1  0.45526584  0.06551783  0.08694003  1
  N  N42  1  0.22635405  0.20320106  0.82659095  1
  N  N43  1  0.11457387  0.09292177  0.57536396  1
  N  N44  1  0.87740619  0.19407720  0.34961491  1
  N  N45  1  0.77498738  0.09166047  0.15198604  1
  N  N46  1  0.55858208  0.20584117  0.88857194  1
  N  N47  1  0.44325224  0.09131393  0.56711750  1
  N  N48  1  0.22534683  0.54202134  0.37943621  1
  N  N49  1  0.10731216  0.42398291  0.07705036  1
  N  N50  1  0.88652751  0.54302747  0.82659136  1
  N  N51  1  0.77624952  0.43124562  0.57536411  1
  N  N52  1  0.55717251  0.54322864  0.32721910  1
  N  N53  1  0.44205133  0.42559901  0.12883226  1
  N  N54  1  0.22450254  0.54117808  0.87783432  1
  N  N55  1  0.10805178  0.42472361  0.57887015  1
  N  N56  1  0.88933226  0.53847389  0.32563800  1
  N  N57  1  0.77582695  0.43124755  0.07840531  1
  N  N58  1  0.55622457  0.54373541  0.82887300  1
  N  N59  1  0.44452188  0.42163641  0.62843068  1
  N  N60  1  0.22655647  0.87384454  0.32721872  1
  N  N61  1  0.10892562  0.75872453  0.12883205  1
  N  N62  1  0.88916531  0.87525816  0.88857206  1
  N  N63  1  0.77464214  0.75992328  0.56711774  1
  N  N64  1  0.55479104  0.87146268  0.30297193  1
  N  N65  1  0.45655884  0.77323098  0.08168547  1
  N  N66  1  0.22706164  0.87289844  0.82887288  1
  N  N67  1  0.10496219  0.76119580  0.62843082  1
  N  N68  1  0.87798594  0.90093844  0.36934204  1
  N  N69  1  0.74884622  0.77193681  0.08694006  1
  N  N70  1  0.55642601  0.87309936  0.82140220  1
  N  N71  1  0.44572764  0.76240035  0.57276330  1
