# generated using pymatgen
data_Al17BN18
_symmetry_space_group_name_H-M   'P 1'
_cell_length_a   9.32816999
_cell_length_b   9.32594137
_cell_length_c   10.11724301
_cell_angle_alpha   89.62258990
_cell_angle_beta   89.59964614
_cell_angle_gamma   60.04014851
_symmetry_Int_Tables_number   1
_chemical_formula_structural   Al17BN18
_chemical_formula_sum   'Al34 B2 N36'
_cell_volume   762.50750954
_cell_formula_units_Z   2
loop_
 _symmetry_equiv_pos_site_id
 _symmetry_equiv_pos_as_xyz
  1  'x, y, z'
loop_
 _atom_site_type_symbol
 _atom_site_label
 _atom_site_symmetry_multiplicity
 _atom_site_fract_x
 _atom_site_fract_y
 _atom_site_fract_z
 _atom_site_occupancy
  Al  Al0  1  0.10339447  0.08996852  0.32169099  1
  Al  Al1  1  0.23117312  0.20040122  0.14343422  1
  Al  Al2  1  0.77465579  0.09312429  0.82616667  1
  Al  Al3  1  0.88661748  0.20260912  0.56910080  1
  Al  Al4  1  0.44948448  0.08972309  0.38253285  1
  Al  Al5  1  0.56211651  0.20128737  0.08467085  1
  Al  Al6  1  0.10515354  0.09179015  0.82209178  1
  Al  Al7  1  0.22723186  0.20772761  0.64056155  1
  Al  Al8  1  0.88797526  0.20387231  0.07564722  1
  Al  Al9  1  0.44372389  0.08469164  0.89941269  1
  Al  Al10  1  0.56372530  0.20578155  0.56700323  1
  Al  Al11  1  0.11667582  0.42141367  0.38528323  1
  Al  Al12  1  0.22746976  0.54235836  0.07353821  1
  Al  Al13  1  0.77772108  0.42738283  0.82231591  1
  Al  Al14  1  0.88332052  0.53793502  0.57231038  1
  Al  Al15  1  0.45141463  0.42507408  0.32102040  1
  Al  Al16  1  0.55702885  0.54368377  0.06943751  1
  Al  Al17  1  0.11113503  0.42247414  0.89311073  1
  Al  Al18  1  0.22471100  0.54272720  0.57351818  1
  Al  Al19  1  0.77500805  0.42171211  0.32036462  1
  Al  Al20  1  0.88267136  0.54014946  0.09589124  1
  Al  Al21  1  0.44530476  0.42349843  0.82346070  1
  Al  Al22  1  0.55393876  0.54026900  0.57078148  1
  Al  Al23  1  0.11042828  0.76605761  0.32051729  1
  Al  Al24  1  0.22765572  0.87442175  0.06981190  1
  Al  Al25  1  0.76488141  0.76636265  0.90026690  1
  Al  Al26  1  0.88860721  0.88121245  0.56585974  1
  Al  Al27  1  0.44417421  0.76017017  0.31602071  1
  Al  Al28  1  0.10580519  0.76198954  0.82323196  1
  Al  Al29  1  0.22275606  0.87358312  0.57054504  1
  Al  Al30  1  0.77293697  0.77006162  0.37348008  1
  Al  Al31  1  0.88541150  0.87922328  0.08649822  1
  Al  Al32  1  0.44076535  0.75727836  0.82048926  1
  Al  Al33  1  0.55922410  0.87667427  0.63899923  1
  B  B34  1  0.77912865  0.09620466  0.31908184  1
  B  B35  1  0.55754039  0.87563744  0.15004535  1
  N  N36  1  0.22705897  0.20381346  0.33121464  1
  N  N37  1  0.10787981  0.09145933  0.13159652  1
  N  N38  1  0.88599152  0.20504109  0.88596682  1
  N  N39  1  0.77636514  0.09382090  0.63838301  1
  N  N40  1  0.58498593  0.19583517  0.37366860  1
  N  N41  1  0.45664986  0.06457534  0.09086675  1
  N  N42  1  0.22735343  0.20488569  0.83227776  1
  N  N43  1  0.10613072  0.09359657  0.63010718  1
  N  N44  1  0.87662045  0.19417714  0.37740999  1
  N  N45  1  0.77844172  0.09633191  0.15669278  1
  N  N46  1  0.55723482  0.20618221  0.89249345  1
  N  N47  1  0.44308959  0.09224072  0.57234378  1
  N  N48  1  0.22799117  0.54307442  0.38124665  1
  N  N49  1  0.11606403  0.42157842  0.08825353  1
  N  N50  1  0.88324563  0.53927818  0.88127334  1
  N  N51  1  0.77638745  0.42529707  0.63065833  1
  N  N52  1  0.55564776  0.54175093  0.38253642  1
  N  N53  1  0.44658714  0.42872680  0.13386020  1
  N  N54  1  0.22476310  0.54183462  0.88164765  1
  N  N55  1  0.11161438  0.42402185  0.58095964  1
  N  N56  1  0.88819026  0.53603361  0.36245509  1
  N  N57  1  0.77431280  0.42411825  0.13384674  1
  N  N58  1  0.55506253  0.53775277  0.88128491  1
  N  N59  1  0.44587315  0.42419185  0.63282993  1
  N  N60  1  0.22570547  0.87167632  0.38238215  1
  N  N61  1  0.11344305  0.76186412  0.13354050  1
  N  N62  1  0.88882540  0.87595398  0.89328901  1
  N  N63  1  0.77090422  0.76668397  0.56888287  1
  N  N64  1  0.55855174  0.87875952  0.30932038  1
  N  N65  1  0.45366359  0.76947055  0.12621071  1
  N  N66  1  0.22114508  0.87181678  0.88194623  1
  N  N67  1  0.10684375  0.76384174  0.63232307  1
  N  N68  1  0.88114346  0.90169899  0.37158424  1
  N  N69  1  0.74760476  0.77671765  0.09644896  1
  N  N70  1  0.55724333  0.87522779  0.82636354  1
  N  N71  1  0.44140489  0.75886551  0.63013004  1
