# generated using pymatgen
data_Al17BN18
_symmetry_space_group_name_H-M   'P 1'
_cell_length_a   9.32811741
_cell_length_b   9.33386506
_cell_length_c   10.05410452
_cell_angle_alpha   89.72106296
_cell_angle_beta   89.63511077
_cell_angle_gamma   59.97004762
_symmetry_Int_Tables_number   1
_chemical_formula_structural   Al17BN18
_chemical_formula_sum   'Al34 B2 N36'
_cell_volume   757.85961565
_cell_formula_units_Z   2
loop_
 _symmetry_equiv_pos_site_id
 _symmetry_equiv_pos_as_xyz
  1  'x, y, z'
loop_
 _atom_site_type_symbol
 _atom_site_label
 _atom_site_symmetry_multiplicity
 _atom_site_fract_x
 _atom_site_fract_y
 _atom_site_fract_z
 _atom_site_occupancy
  Al  Al0  1  0.10473648  0.09114363  0.32337577  1
  Al  Al1  1  0.22498156  0.19967573  0.10147979  1
  Al  Al2  1  0.77564755  0.09378488  0.82714726  1
  Al  Al3  1  0.88534724  0.20356760  0.57027032  1
  Al  Al4  1  0.45205338  0.08950522  0.37787286  1
  Al  Al5  1  0.56232811  0.20162298  0.08715467  1
  Al  Al6  1  0.10947333  0.09531498  0.82441069  1
  Al  Al7  1  0.21923381  0.20696509  0.58089775  1
  Al  Al8  1  0.88752557  0.20344713  0.07656920  1
  Al  Al9  1  0.44617400  0.08484404  0.90020324  1
  Al  Al10  1  0.56405414  0.20621917  0.56745743  1
  Al  Al11  1  0.11117949  0.43075497  0.32165654  1
  Al  Al12  1  0.22317215  0.53972336  0.07131619  1
  Al  Al13  1  0.77846557  0.42687759  0.82355339  1
  Al  Al14  1  0.88975148  0.53477174  0.56962341  1
  Al  Al15  1  0.44965733  0.42596711  0.32239865  1
  Al  Al16  1  0.55664186  0.54342286  0.07146101  1
  Al  Al17  1  0.11008724  0.42810843  0.82542631  1
  Al  Al18  1  0.22176692  0.53987275  0.57430226  1
  Al  Al19  1  0.77627903  0.42212909  0.32176320  1
  Al  Al20  1  0.88595989  0.53592400  0.07932358  1
  Al  Al21  1  0.44559204  0.42352737  0.82446921  1
  Al  Al22  1  0.55506198  0.54014287  0.57206833  1
  Al  Al23  1  0.11008446  0.76590517  0.32203288  1
  Al  Al24  1  0.22778432  0.87237434  0.07107705  1
  Al  Al25  1  0.76545980  0.76804035  0.89901088  1
  Al  Al26  1  0.88901862  0.88134036  0.56779488  1
  Al  Al27  1  0.44429498  0.75985041  0.31716359  1
  Al  Al28  1  0.10663556  0.76307231  0.82433182  1
  Al  Al29  1  0.22357002  0.87145111  0.57194897  1
  Al  Al30  1  0.77399420  0.76834707  0.37755281  1
  Al  Al31  1  0.88543624  0.87780529  0.08795032  1
  Al  Al32  1  0.44094368  0.75785035  0.82191032  1
  Al  Al33  1  0.56000798  0.87657356  0.63991588  1
  B  B34  1  0.77957102  0.09672135  0.31945665  1
  B  B35  1  0.56031725  0.87328559  0.15154988  1
  N  N36  1  0.21873080  0.20596748  0.36561309  1
  N  N37  1  0.10811933  0.09067958  0.13472027  1
  N  N38  1  0.88683215  0.20475216  0.88618274  1
  N  N39  1  0.77675325  0.09458112  0.63887282  1
  N  N40  1  0.58471460  0.19672772  0.37263316  1
  N  N41  1  0.46006337  0.06379169  0.09676529  1
  N  N42  1  0.21990918  0.20600963  0.87805328  1
  N  N43  1  0.10781789  0.09453297  0.63093741  1
  N  N44  1  0.87612091  0.19374298  0.37776690  1
  N  N45  1  0.77944950  0.09575540  0.15696774  1
  N  N46  1  0.55806275  0.20634334  0.89337744  1
  N  N47  1  0.44809370  0.09038369  0.57281245  1
  N  N48  1  0.22280984  0.53993956  0.38407305  1
  N  N49  1  0.11111463  0.43070299  0.13280025  1
  N  N50  1  0.88850244  0.53681424  0.88594693  1
  N  N51  1  0.77812429  0.42602161  0.63185922  1
  N  N52  1  0.55537328  0.54126731  0.38259416  1
  N  N53  1  0.44403800  0.42991798  0.13382944  1
  N  N54  1  0.22180897  0.53975555  0.88176192  1
  N  N55  1  0.10900943  0.42991285  0.63325323  1
  N  N56  1  0.89063757  0.53194580  0.37682749  1
  N  N57  1  0.77638990  0.42491692  0.13390064  1
  N  N58  1  0.55535886  0.53793150  0.88212867  1
  N  N59  1  0.44556054  0.42509207  0.63245709  1
  N  N60  1  0.22561053  0.87077680  0.38291412  1
  N  N61  1  0.11407503  0.76032808  0.13360010  1
  N  N62  1  0.88924890  0.87629835  0.89314884  1
  N  N63  1  0.77363960  0.76560098  0.57353521  1
  N  N64  1  0.56079322  0.87554863  0.31128312  1
  N  N65  1  0.45383146  0.76939669  0.12662028  1
  N  N66  1  0.22103356  0.87218809  0.88209836  1
  N  N67  1  0.10791089  0.76324775  0.63261110  1
  N  N68  1  0.88080461  0.90117741  0.37238919  1
  N  N69  1  0.74908005  0.77416228  0.09605809  1
  N  N70  1  0.55694375  0.87552535  0.82785429  1
  N  N71  1  0.44233510  0.75906525  0.63053506  1
