# generated using pymatgen
data_Al17BN18
_symmetry_space_group_name_H-M   'P 1'
_cell_length_a   9.29941879
_cell_length_b   9.29941962
_cell_length_c   9.93900422
_cell_angle_alpha   90.02506110
_cell_angle_beta   90.02507972
_cell_angle_gamma   60.01363776
_symmetry_Int_Tables_number   1
_chemical_formula_structural   Al17BN18
_chemical_formula_sum   'Al34 B2 N36'
_cell_volume   744.46582814
_cell_formula_units_Z   2
loop_
 _symmetry_equiv_pos_site_id
 _symmetry_equiv_pos_as_xyz
  1  'x, y, z'
loop_
 _atom_site_type_symbol
 _atom_site_label
 _atom_site_symmetry_multiplicity
 _atom_site_fract_x
 _atom_site_fract_y
 _atom_site_fract_z
 _atom_site_occupancy
  Al  Al0  1  0.10783195  0.09268523  0.30504472  1
  Al  Al1  1  0.22590421  0.20005529  0.05488028  1
  Al  Al2  1  0.77770039  0.09436767  0.80631186  1
  Al  Al3  1  0.88598512  0.20265021  0.55046323  1
  Al  Al4  1  0.45218935  0.08743870  0.30038880  1
  Al  Al5  1  0.55942597  0.19934286  0.06117797  1
  Al  Al6  1  0.10930252  0.09520200  0.80453558  1
  Al  Al7  1  0.22398654  0.20475244  0.55508788  1
  Al  Al8  1  0.88755437  0.20422045  0.06099732  1
  Al  Al9  1  0.44671484  0.09250712  0.81190961  1
  Al  Al10  1  0.56026588  0.20175471  0.55095041  1
  Al  Al11  1  0.11131493  0.42798014  0.30399745  1
  Al  Al12  1  0.22242364  0.53909073  0.05415809  1
  Al  Al13  1  0.77853606  0.42596855  0.80453568  1
  Al  Al14  1  0.88808697  0.54065177  0.55508791  1
  Al  Al15  1  0.44937632  0.42450885  0.30461638  1
  Al  Al16  1  0.55721127  0.54237185  0.05430380  1
  Al  Al17  1  0.11091373  0.42757956  0.80493200  1
  Al  Al18  1  0.22215743  0.53882403  0.55468774  1
  Al  Al19  1  0.77601815  0.42449908  0.30504458  1
  Al  Al20  1  0.88338960  0.54257002  0.05488015  1
  Al  Al21  1  0.44579085  0.42580230  0.80510253  1
  Al  Al22  1  0.55494648  0.54044645  0.55519762  1
  Al  Al23  1  0.10784205  0.76604270  0.30461622  1
  Al  Al24  1  0.22570567  0.87387740  0.05430411  1
  Al  Al25  1  0.77584027  0.76338148  0.81190958  1
  Al  Al26  1  0.88508873  0.87693239  0.55095036  1
  Al  Al27  1  0.44726966  0.76393641  0.30044245  1
  Al  Al28  1  0.10913500  0.76245825  0.80510265  1
  Al  Al29  1  0.22378159  0.87161144  0.55519736  1
  Al  Al30  1  0.77077326  0.76885485  0.30038877  1
  Al  Al31  1  0.88267527  0.87609346  0.06117783  1
  Al  Al32  1  0.44573238  0.76239946  0.81139086  1
  Al  Al33  1  0.55577079  0.87243565  0.55692953  1
  B  B34  1  0.77747222  0.09413909  0.30038004  1
  B  B35  1  0.55557735  0.87224358  0.05113513  1
  N  N36  1  0.22510690  0.20400170  0.36205977  1
  N  N37  1  0.11095402  0.09429540  0.11515595  1
  N  N38  1  0.88802813  0.20469430  0.86827299  1
  N  N39  1  0.77754310  0.09420955  0.61725949  1
  N  N40  1  0.57939079  0.19214975  0.35520706  1
  N  N41  1  0.45702683  0.06883554  0.10710588  1
  N  N42  1  0.22190000  0.20514783  0.86397533  1
  N  N43  1  0.10900228  0.09563266  0.61165477  1
  N  N44  1  0.87615773  0.19282460  0.35690634  1
  N  N45  1  0.77789407  0.09456126  0.13593543  1
  N  N46  1  0.55773132  0.20477778  0.86949090  1
  N  N47  1  0.44640488  0.09400146  0.61774357  1
  N  N48  1  0.22263537  0.53930181  0.36334906  1
  N  N49  1  0.11082145  0.42748726  0.11280227  1
  N  N50  1  0.88848169  0.53856636  0.86397520  1
  N  N51  1  0.77896749  0.42566740  0.61165489  1
  N  N52  1  0.55400909  0.54199827  0.36318385  1
  N  N53  1  0.44506648  0.42799847  0.11386589  1
  N  N54  1  0.22244215  0.53910937  0.86277792  1
  N  N55  1  0.11092986  0.42759542  0.61343207  1
  N  N56  1  0.88733613  0.54177249  0.36205968  1
  N  N57  1  0.77762916  0.42762027  0.11515578  1
  N  N58  1  0.55624815  0.53799172  0.86370671  1
  N  N59  1  0.44597933  0.42520855  0.61198019  1
  N  N60  1  0.22533153  0.87067570  0.36318363  1
  N  N61  1  0.11133112  0.76173351  0.11386578  1
  N  N62  1  0.88811041  0.87439859  0.86949078  1
  N  N63  1  0.77733624  0.76307035  0.61774348  1
  N  N64  1  0.55538712  0.87205270  0.36842107  1
  N  N65  1  0.45691548  0.77358168  0.10626338  1
  N  N66  1  0.22132506  0.87291461  0.86370705  1
  N  N67  1  0.10854243  0.76264578  0.61198027  1
  N  N68  1  0.87548312  0.89605743  0.35520711  1
  N  N69  1  0.75216936  0.77369294  0.10710582  1
  N  N70  1  0.55564863  0.87231540  0.88531063  1
  N  N71  1  0.44538802  0.76205328  0.61908173  1
