# generated using pymatgen
data_Al17BN18
_symmetry_space_group_name_H-M   'P 1'
_cell_length_a   9.32491429
_cell_length_b   9.32357729
_cell_length_c   10.11563754
_cell_angle_alpha   89.60604738
_cell_angle_beta   89.60065878
_cell_angle_gamma   60.02504749
_symmetry_Int_Tables_number   1
_chemical_formula_structural   Al17BN18
_chemical_formula_sum   'Al34 B2 N36'
_cell_volume   761.81056590
_cell_formula_units_Z   2
loop_
 _symmetry_equiv_pos_site_id
 _symmetry_equiv_pos_as_xyz
  1  'x, y, z'
loop_
 _atom_site_type_symbol
 _atom_site_label
 _atom_site_symmetry_multiplicity
 _atom_site_fract_x
 _atom_site_fract_y
 _atom_site_fract_z
 _atom_site_occupancy
  Al  Al0  1  0.10361199  0.08997101  0.32149401  1
  Al  Al1  1  0.23092406  0.20069391  0.14296759  1
  Al  Al2  1  0.77471939  0.09254035  0.82625906  1
  Al  Al3  1  0.88677449  0.20208733  0.56873728  1
  Al  Al4  1  0.44929290  0.09000923  0.38212931  1
  Al  Al5  1  0.56218087  0.20137387  0.08452689  1
  Al  Al6  1  0.10531114  0.09187354  0.82219144  1
  Al  Al7  1  0.22751826  0.20726040  0.64061061  1
  Al  Al8  1  0.88797056  0.20427942  0.07534332  1
  Al  Al9  1  0.44396044  0.08455012  0.89920270  1
  Al  Al10  1  0.56375782  0.20581777  0.56689284  1
  Al  Al11  1  0.11432250  0.42274540  0.38578194  1
  Al  Al12  1  0.22736362  0.54234281  0.07287313  1
  Al  Al13  1  0.77708508  0.42640106  0.82243669  1
  Al  Al14  1  0.88520930  0.54011999  0.59764227  1
  Al  Al15  1  0.45099624  0.42516884  0.32077032  1
  Al  Al16  1  0.55757785  0.54374128  0.06909563  1
  Al  Al17  1  0.10829231  0.42381474  0.89348708  1
  Al  Al18  1  0.22495383  0.54280460  0.57301008  1
  Al  Al19  1  0.77403420  0.42069587  0.32081315  1
  Al  Al20  1  0.88532715  0.54263568  0.12538583  1
  Al  Al21  1  0.44495768  0.42351264  0.82355364  1
  Al  Al22  1  0.55366816  0.54031673  0.57040568  1
  Al  Al23  1  0.11029271  0.76606798  0.32047110  1
  Al  Al24  1  0.22759744  0.87436329  0.06971456  1
  Al  Al25  1  0.76659190  0.76265466  0.90094819  1
  Al  Al26  1  0.88876522  0.88121794  0.56547003  1
  Al  Al27  1  0.44409137  0.76039575  0.31589280  1
  Al  Al28  1  0.10561750  0.76176849  0.82345521  1
  Al  Al29  1  0.22275278  0.87352164  0.57056306  1
  Al  Al30  1  0.77335831  0.76904141  0.37418256  1
  Al  Al31  1  0.88532829  0.87942375  0.08577410  1
  Al  Al32  1  0.44093962  0.75739079  0.82056944  1
  Al  Al33  1  0.55907720  0.87670566  0.63910989  1
  B  B34  1  0.77906670  0.09593023  0.31886872  1
  B  B35  1  0.55731497  0.87564221  0.14975749  1
  N  N36  1  0.22656778  0.20465426  0.33101156  1
  N  N37  1  0.10795466  0.09140984  0.13151245  1
  N  N38  1  0.88609578  0.20460877  0.88586184  1
  N  N39  1  0.77636791  0.09333428  0.63832817  1
  N  N40  1  0.58497268  0.19596716  0.37360405  1
  N  N41  1  0.45664541  0.06464203  0.09081469  1
  N  N42  1  0.22736931  0.20524162  0.83215819  1
  N  N43  1  0.10616874  0.09354034  0.63006160  1
  N  N44  1  0.87696058  0.19385902  0.37739827  1
  N  N45  1  0.77852359  0.09621268  0.15668373  1
  N  N46  1  0.55732191  0.20619345  0.89243845  1
  N  N47  1  0.44324581  0.09210583  0.57209075  1
  N  N48  1  0.22778975  0.54304701  0.38131942  1
  N  N49  1  0.11411283  0.42244285  0.08649868  1
  N  N50  1  0.88525277  0.54116061  0.85978179  1
  N  N51  1  0.77532931  0.42380255  0.62912498  1
  N  N52  1  0.55534865  0.54197318  0.38244913  1
  N  N53  1  0.44636672  0.42883989  0.13373609  1
  N  N54  1  0.22471250  0.54161259  0.88162497  1
  N  N55  1  0.11088253  0.42384430  0.57888715  1
  N  N56  1  0.89021043  0.53865543  0.34210337  1
  N  N57  1  0.77405894  0.42386326  0.13280762  1
  N  N58  1  0.55486836  0.53778980  0.88115957  1
  N  N59  1  0.44559975  0.42412487  0.63276120  1
  N  N60  1  0.22567242  0.87169040  0.38240294  1
  N  N61  1  0.11331266  0.76173528  0.13358105  1
  N  N62  1  0.88869005  0.87564440  0.89341138  1
  N  N63  1  0.77144398  0.76486826  0.56728012  1
  N  N64  1  0.55880064  0.87876059  0.30925804  1
  N  N65  1  0.45365008  0.76961187  0.12617131  1
  N  N66  1  0.22116209  0.87174239  0.88186905  1
  N  N67  1  0.10669642  0.76359089  0.63229567  1
  N  N68  1  0.88087329  0.90178011  0.37176338  1
  N  N69  1  0.74803110  0.77570721  0.09540245  1
  N  N70  1  0.55781513  0.87500332  0.82639323  1
  N  N71  1  0.44150806  0.75878640  0.63005435  1
