# generated using pymatgen
data_Al17BN18
_symmetry_space_group_name_H-M   'P 1'
_cell_length_a   9.29940849
_cell_length_b   9.29940957
_cell_length_c   9.93903737
_cell_angle_alpha   90.02477019
_cell_angle_beta   90.02501574
_cell_angle_gamma   60.01361886
_symmetry_Int_Tables_number   1
_chemical_formula_structural   Al17BN18
_chemical_formula_sum   'Al34 B2 N36'
_cell_volume   744.46654144
_cell_formula_units_Z   2
loop_
 _symmetry_equiv_pos_site_id
 _symmetry_equiv_pos_as_xyz
  1  'x, y, z'
loop_
 _atom_site_type_symbol
 _atom_site_label
 _atom_site_symmetry_multiplicity
 _atom_site_fract_x
 _atom_site_fract_y
 _atom_site_fract_z
 _atom_site_occupancy
  Al  Al0  1  0.10783425  0.09268705  0.30836401  1
  Al  Al1  1  0.22590483  0.20005840  0.05820107  1
  Al  Al2  1  0.77770205  0.09436944  0.80962673  1
  Al  Al3  1  0.88598722  0.20265247  0.55378001  1
  Al  Al4  1  0.45218988  0.08744071  0.30370542  1
  Al  Al5  1  0.55942806  0.19934504  0.06450140  1
  Al  Al6  1  0.10930292  0.09520404  0.80785887  1
  Al  Al7  1  0.22398865  0.20475311  0.55841054  1
  Al  Al8  1  0.88755560  0.20422192  0.06432039  1
  Al  Al9  1  0.44671699  0.09250937  0.81523322  1
  Al  Al10  1  0.56026663  0.20175621  0.55426726  1
  Al  Al11  1  0.11131620  0.42798155  0.30732302  1
  Al  Al12  1  0.22242485  0.53909215  0.05748287  1
  Al  Al13  1  0.77853786  0.42596920  0.80785899  1
  Al  Al14  1  0.88808751  0.54065402  0.55841059  1
  Al  Al15  1  0.44937757  0.42451090  0.30793879  1
  Al  Al16  1  0.55721283  0.54237284  0.05762612  1
  Al  Al17  1  0.11091545  0.42758154  0.80825332  1
  Al  Al18  1  0.22215918  0.53882589  0.55801076  1
  Al  Al19  1  0.77601991  0.42450138  0.30836389  1
  Al  Al20  1  0.88339254  0.54257078  0.05820091  1
  Al  Al21  1  0.44579270  0.42580347  0.80842486  1
  Al  Al22  1  0.55494834  0.54044846  0.55851886  1
  Al  Al23  1  0.10784414  0.76604401  0.30793863  1
  Al  Al24  1  0.22570655  0.87387914  0.05762640  1
  Al  Al25  1  0.77584239  0.76338377  0.81523305  1
  Al  Al26  1  0.88509013  0.87693334  0.55426719  1
  Al  Al27  1  0.44727103  0.76393781  0.30375938  1
  Al  Al28  1  0.10913600  0.76246024  0.80842491  1
  Al  Al29  1  0.22378346  0.87161348  0.55851861  1
  Al  Al30  1  0.77077519  0.76885543  0.30370539  1
  Al  Al31  1  0.88267732  0.87609566  0.06450119  1
  Al  Al32  1  0.44573385  0.76240108  0.81471509  1
  Al  Al33  1  0.55577241  0.87243732  0.56024534  1
  B  B34  1  0.77747389  0.09414037  0.30369882  1
  B  B35  1  0.55557913  0.87224510  0.05445366  1
  N  N36  1  0.22510912  0.20400217  0.36538231  1
  N  N37  1  0.11095587  0.09429724  0.11847679  1
  N  N38  1  0.88802881  0.20469489  0.87159612  1
  N  N39  1  0.77754487  0.09421111  0.62057512  1
  N  N40  1  0.57939177  0.19215086  0.35852568  1
  N  N41  1  0.45702791  0.06883763  0.11042479  1
  N  N42  1  0.22190103  0.20515000  0.86729751  1
  N  N43  1  0.10900293  0.09563443  0.61497769  1
  N  N44  1  0.87615989  0.19282646  0.36022507  1
  N  N45  1  0.77789586  0.09456285  0.13925834  1
  N  N46  1  0.55773483  0.20477890  0.87281391  1
  N  N47  1  0.44640754  0.09400220  0.62106553  1
  N  N48  1  0.22263702  0.53930325  0.36667262  1
  N  N49  1  0.11082283  0.42748857  0.11612741  1
  N  N50  1  0.88848388  0.53856732  0.86729731  1
  N  N51  1  0.77896940  0.42566793  0.61497778  1
  N  N52  1  0.55401115  0.54199994  0.36650481  1
  N  N53  1  0.44506803  0.42800013  0.11718937  1
  N  N54  1  0.22244360  0.53911071  0.86610207  1
  N  N55  1  0.11093147  0.42759683  0.61675411  1
  N  N56  1  0.88733679  0.54177451  0.36538220  1
  N  N57  1  0.77763117  0.42762198  0.11847664  1
  N  N58  1  0.55624999  0.53799255  0.86703023  1
  N  N59  1  0.44598165  0.42520929  0.61530226  1
  N  N60  1  0.22533352  0.87067751  0.36650462  1
  N  N61  1  0.11133291  0.76173496  0.11718927  1
  N  N62  1  0.88811172  0.87440181  0.87281376  1
  N  N63  1  0.77733732  0.76307278  0.62106535  1
  N  N64  1  0.55538889  0.87205410  0.37173724  1
  N  N65  1  0.45691709  0.77358307  0.10958275  1
  N  N66  1  0.22132604  0.87291629  0.86703050  1
  N  N67  1  0.10854338  0.76264791  0.61530227  1
  N  N68  1  0.87548445  0.89605829  0.35852576  1
  N  N69  1  0.75217151  0.77369388  0.11042467  1
  N  N70  1  0.55565047  0.87231707  0.88863321  1
  N  N71  1  0.44539011  0.76205516  0.62240467  1
