# generated using pymatgen
data_Al17BN18
_symmetry_space_group_name_H-M   'P 1'
_cell_length_a   9.32481761
_cell_length_b   9.31036900
_cell_length_c   10.04872358
_cell_angle_alpha   89.59521323
_cell_angle_beta   89.94779761
_cell_angle_gamma   59.93636521
_symmetry_Int_Tables_number   1
_chemical_formula_structural   Al17BN18
_chemical_formula_sum   'Al34 B2 N36'
_cell_volume   755.01762928
_cell_formula_units_Z   2
loop_
 _symmetry_equiv_pos_site_id
 _symmetry_equiv_pos_as_xyz
  1  'x, y, z'
loop_
 _atom_site_type_symbol
 _atom_site_label
 _atom_site_symmetry_multiplicity
 _atom_site_fract_x
 _atom_site_fract_y
 _atom_site_fract_z
 _atom_site_occupancy
  Al  Al0  1  0.10511935  0.09293759  0.31276922  1
  Al  Al1  1  0.21919981  0.20274272  0.07026267  1
  Al  Al2  1  0.77745355  0.09407336  0.81645106  1
  Al  Al3  1  0.88673361  0.20329388  0.56031193  1
  Al  Al4  1  0.45025944  0.09090089  0.37664267  1
  Al  Al5  1  0.56232087  0.20072441  0.07830980  1
  Al  Al6  1  0.11117323  0.09472019  0.81441233  1
  Al  Al7  1  0.21510763  0.21012200  0.56243454  1
  Al  Al8  1  0.88689754  0.20457282  0.06840452  1
  Al  Al9  1  0.45351392  0.07969614  0.88590508  1
  Al  Al10  1  0.56485026  0.20799654  0.56030472  1
  Al  Al11  1  0.10941629  0.42981508  0.31162791  1
  Al  Al12  1  0.22184573  0.53978429  0.06213432  1
  Al  Al13  1  0.77861762  0.42657736  0.81310472  1
  Al  Al14  1  0.88897872  0.53987499  0.56068412  1
  Al  Al15  1  0.44886156  0.42524830  0.31274987  1
  Al  Al16  1  0.55754639  0.54363559  0.06291863  1
  Al  Al17  1  0.11314471  0.42536905  0.81457779  1
  Al  Al18  1  0.22249736  0.53867519  0.56475574  1
  Al  Al19  1  0.77604118  0.42449832  0.31294591  1
  Al  Al20  1  0.88088643  0.54464506  0.06311480  1
  Al  Al21  1  0.44657303  0.42373701  0.81542561  1
  Al  Al22  1  0.55549800  0.53962946  0.56121177  1
  Al  Al23  1  0.10729997  0.76574251  0.31255218  1
  Al  Al24  1  0.22640632  0.87370712  0.06330369  1
  Al  Al25  1  0.78532544  0.75861586  0.81120688  1
  Al  Al26  1  0.88723577  0.87773200  0.55754308  1
  Al  Al27  1  0.44376850  0.76204715  0.31447197  1
  Al  Al28  1  0.10978796  0.76232793  0.81374263  1
  Al  Al29  1  0.22151470  0.87215498  0.56124779  1
  Al  Al30  1  0.77425703  0.76835709  0.31446058  1
  Al  Al31  1  0.88147967  0.87651127  0.07021561  1
  Al  Al32  1  0.44210124  0.75769317  0.81082818  1
  Al  Al33  1  0.55351913  0.87832073  0.61937789  1
  B  B34  1  0.77842616  0.09560640  0.31040383  1
  B  B35  1  0.55412231  0.87323980  0.12477591  1
  N  N36  1  0.21311311  0.20886540  0.36866621  1
  N  N37  1  0.10904288  0.09284556  0.12492813  1
  N  N38  1  0.88886928  0.20411118  0.87730423  1
  N  N39  1  0.77926083  0.09371275  0.62839685  1
  N  N40  1  0.58423706  0.19585412  0.36334150  1
  N  N41  1  0.46086276  0.05991048  0.08708222  1
  N  N42  1  0.22092317  0.20511830  0.87780316  1
  N  N43  1  0.10940432  0.09489059  0.62291026  1
  N  N44  1  0.87637575  0.19319356  0.36726428  1
  N  N45  1  0.78019307  0.09379477  0.14650249  1
  N  N46  1  0.56038837  0.20517773  0.88430947  1
  N  N47  1  0.44434318  0.10000684  0.57243779  1
  N  N48  1  0.22270040  0.53828471  0.37377701  1
  N  N49  1  0.10872169  0.43036496  0.12225280  1
  N  N50  1  0.88940510  0.53817974  0.87366035  1
  N  N51  1  0.77894508  0.42645561  0.62113415  1
  N  N52  1  0.55491945  0.53927553  0.37181467  1
  N  N53  1  0.44371610  0.43028253  0.12390844  1
  N  N54  1  0.22305099  0.53836835  0.87237717  1
  N  N55  1  0.11024719  0.42827203  0.62460699  1
  N  N56  1  0.88752743  0.54031448  0.37039715  1
  N  N57  1  0.77762245  0.42748108  0.12391831  1
  N  N58  1  0.55634323  0.53772766  0.87377638  1
  N  N59  1  0.44645582  0.42642331  0.62388205  1
  N  N60  1  0.22164062  0.87144317  0.37177957  1
  N  N61  1  0.11101447  0.76148082  0.12296790  1
  N  N62  1  0.88880068  0.87279298  0.87953581  1
  N  N63  1  0.78731096  0.75889489  0.61799061  1
  N  N64  1  0.55423532  0.87179505  0.34664482  1
  N  N65  1  0.45705867  0.77320993  0.11967732  1
  N  N66  1  0.22286961  0.87141929  0.87411544  1
  N  N67  1  0.10893033  0.76274076  0.62208677  1
  N  N68  1  0.87683056  0.89728971  0.36467381  1
  N  N69  1  0.75133995  0.77403084  0.12034593  1
  N  N70  1  0.55597842  0.87342161  0.81677256  1
  N  N71  1  0.44026193  0.75781781  0.61959823  1
