# generated using pymatgen
data_Al17BN18
_symmetry_space_group_name_H-M   'P 1'
_cell_length_a   9.32860955
_cell_length_b   9.33575700
_cell_length_c   10.05564784
_cell_angle_alpha   89.71926536
_cell_angle_beta   89.63049564
_cell_angle_gamma   59.96663748
_symmetry_Int_Tables_number   1
_chemical_formula_structural   Al17BN18
_chemical_formula_sum   'Al34 B2 N36'
_cell_volume   758.14312326
_cell_formula_units_Z   2
loop_
 _symmetry_equiv_pos_site_id
 _symmetry_equiv_pos_as_xyz
  1  'x, y, z'
loop_
 _atom_site_type_symbol
 _atom_site_label
 _atom_site_symmetry_multiplicity
 _atom_site_fract_x
 _atom_site_fract_y
 _atom_site_fract_z
 _atom_site_occupancy
  Al  Al0  1  0.10441072  0.09072496  0.32349329  1
  Al  Al1  1  0.22660395  0.19888267  0.11103305  1
  Al  Al2  1  0.77545838  0.09379731  0.82716503  1
  Al  Al3  1  0.88514816  0.20364319  0.57011450  1
  Al  Al4  1  0.45177399  0.08955181  0.37813345  1
  Al  Al5  1  0.56240024  0.20164687  0.08690530  1
  Al  Al6  1  0.10916656  0.09503060  0.82448954  1
  Al  Al7  1  0.22042306  0.20646022  0.58884974  1
  Al  Al8  1  0.88753024  0.20347366  0.07643266  1
  Al  Al9  1  0.44506455  0.08531560  0.90044766  1
  Al  Al10  1  0.56407405  0.20630637  0.56733415  1
  Al  Al11  1  0.11093945  0.43147663  0.32175777  1
  Al  Al12  1  0.22317170  0.53978497  0.07116968  1
  Al  Al13  1  0.77846571  0.42687786  0.82353299  1
  Al  Al14  1  0.88957082  0.53485825  0.56941767  1
  Al  Al15  1  0.44971435  0.42589908  0.32235668  1
  Al  Al16  1  0.55664436  0.54340411  0.07142300  1
  Al  Al17  1  0.10979965  0.42869557  0.82551574  1
  Al  Al18  1  0.22176899  0.54010607  0.57414448  1
  Al  Al19  1  0.77625863  0.42214454  0.32167248  1
  Al  Al20  1  0.88601938  0.53582535  0.07912699  1
  Al  Al21  1  0.44558562  0.42345032  0.82450217  1
  Al  Al22  1  0.55504794  0.54014808  0.57206164  1
  Al  Al23  1  0.11010544  0.76590343  0.32191749  1
  Al  Al24  1  0.22779225  0.87238222  0.07090651  1
  Al  Al25  1  0.76532384  0.76817507  0.89903829  1
  Al  Al26  1  0.88902542  0.88134750  0.56776551  1
  Al  Al27  1  0.44436212  0.75983585  0.31712278  1
  Al  Al28  1  0.10663645  0.76308708  0.82430284  1
  Al  Al29  1  0.22359610  0.87130915  0.57179411  1
  Al  Al30  1  0.77396866  0.76841413  0.37747181  1
  Al  Al31  1  0.88546278  0.87780794  0.08791940  1
  Al  Al32  1  0.44098418  0.75790181  0.82191983  1
  Al  Al33  1  0.56012029  0.87642867  0.64000470  1
  B  B34  1  0.77945350  0.09672760  0.31940153  1
  B  B35  1  0.56049966  0.87307808  0.15149311  1
  N  N36  1  0.22014125  0.20525307  0.35914756  1
  N  N37  1  0.10783296  0.09034144  0.13434426  1
  N  N38  1  0.88664556  0.20479075  0.88613394  1
  N  N39  1  0.77663155  0.09458203  0.63884789  1
  N  N40  1  0.58471089  0.19664919  0.37270268  1
  N  N41  1  0.46015407  0.06365403  0.09640932  1
  N  N42  1  0.22092020  0.20555006  0.87132515  1
  N  N43  1  0.10731142  0.09413850  0.63045997  1
  N  N44  1  0.87599686  0.19382981  0.37773455  1
  N  N45  1  0.77938214  0.09577106  0.15696587  1
  N  N46  1  0.55795300  0.20631424  0.89342071  1
  N  N47  1  0.44781820  0.09040173  0.57237567  1
  N  N48  1  0.22287665  0.54006315  0.38405565  1
  N  N49  1  0.11084794  0.43131380  0.13241882  1
  N  N50  1  0.88833108  0.53693510  0.88590248  1
  N  N51  1  0.77813619  0.42601300  0.63182373  1
  N  N52  1  0.55537741  0.54125560  0.38259347  1
  N  N53  1  0.44403627  0.42987282  0.13383297  1
  N  N54  1  0.22181889  0.53991102  0.88172262  1
  N  N55  1  0.10844444  0.43102963  0.63285340  1
  N  N56  1  0.89059137  0.53193318  0.37680632  1
  N  N57  1  0.77640409  0.42491031  0.13386961  1
  N  N58  1  0.55533165  0.53794125  0.88209980  1
  N  N59  1  0.44551186  0.42506128  0.63243137  1
  N  N60  1  0.22568670  0.87061243  0.38288978  1
  N  N61  1  0.11411094  0.76032734  0.13356545  1
  N  N62  1  0.88924803  0.87630312  0.89313346  1
  N  N63  1  0.77354492  0.76570025  0.57340222  1
  N  N64  1  0.56083054  0.87558311  0.31123957  1
  N  N65  1  0.45385779  0.76938515  0.12661472  1
  N  N66  1  0.22106476  0.87204434  0.88204678  1
  N  N67  1  0.10789408  0.76329727  0.63258399  1
  N  N68  1  0.88084163  0.90118000  0.37237404  1
  N  N69  1  0.74909272  0.77414091  0.09605062  1
  N  N70  1  0.55692065  0.87564327  0.82785912  1
  N  N71  1  0.44232024  0.75909583  0.63050425  1
