# generated using pymatgen
data_Al17BN18
_symmetry_space_group_name_H-M   'P 1'
_cell_length_a   9.33762369
_cell_length_b   9.33095409
_cell_length_c   10.11840453
_cell_angle_alpha   89.64741796
_cell_angle_beta   89.75029458
_cell_angle_gamma   59.99840836
_symmetry_Int_Tables_number   1
_chemical_formula_structural   Al17BN18
_chemical_formula_sum   'Al34 B2 N36'
_cell_volume   763.46551754
_cell_formula_units_Z   2
loop_
 _symmetry_equiv_pos_site_id
 _symmetry_equiv_pos_as_xyz
  1  'x, y, z'
loop_
 _atom_site_type_symbol
 _atom_site_label
 _atom_site_symmetry_multiplicity
 _atom_site_fract_x
 _atom_site_fract_y
 _atom_site_fract_z
 _atom_site_occupancy
  Al  Al0  1  0.10222349  0.09148820  0.31927356  1
  Al  Al1  1  0.22855842  0.20353787  0.14019647  1
  Al  Al2  1  0.77633682  0.09255449  0.82381920  1
  Al  Al3  1  0.88762904  0.20296725  0.56701702  1
  Al  Al4  1  0.44898449  0.08830819  0.37766329  1
  Al  Al5  1  0.56219964  0.20017123  0.08238906  1
  Al  Al6  1  0.10831624  0.09039316  0.82105752  1
  Al  Al7  1  0.22909506  0.20639070  0.63812131  1
  Al  Al8  1  0.88733129  0.20500606  0.07353995  1
  Al  Al9  1  0.44507485  0.08623477  0.89609294  1
  Al  Al10  1  0.56471062  0.20376696  0.56401039  1
  Al  Al11  1  0.10831046  0.42495395  0.39065528  1
  Al  Al12  1  0.22424314  0.54226566  0.06908864  1
  Al  Al13  1  0.77642373  0.42339939  0.82230733  1
  Al  Al14  1  0.89110973  0.54551017  0.63781226  1
  Al  Al15  1  0.44623611  0.42267640  0.32050260  1
  Al  Al16  1  0.55564025  0.54345992  0.10086326  1
  Al  Al17  1  0.10825579  0.42421203  0.88857704  1
  Al  Al18  1  0.22483862  0.54252108  0.57168745  1
  Al  Al19  1  0.77737173  0.41833896  0.32116008  1
  Al  Al20  1  0.88750561  0.54583877  0.14018336  1
  Al  Al21  1  0.44500514  0.42427598  0.82293076  1
  Al  Al22  1  0.55743638  0.53686284  0.58739288  1
  Al  Al23  1  0.10742226  0.76533511  0.31912009  1
  Al  Al24  1  0.21960457  0.87784449  0.07361898  1
  Al  Al25  1  0.77099787  0.76138621  0.89598196  1
  Al  Al26  1  0.88835541  0.88091291  0.56442989  1
  Al  Al27  1  0.44797053  0.76370479  0.38018659  1
  Al  Al28  1  0.10929936  0.76203923  0.82208302  1
  Al  Al29  1  0.21678843  0.87668410  0.56901598  1
  Al  Al30  1  0.77170872  0.76641795  0.37746012  1
  Al  Al31  1  0.88356379  0.87924562  0.08307518  1
  Al  Al32  1  0.45230042  0.76221592  0.89096165  1
  Al  Al33  1  0.55746323  0.87363432  0.63712588  1
  B  B34  1  0.77795667  0.09453107  0.31726214  1
  B  B35  1  0.55322175  0.87192068  0.14338121  1
  N  N36  1  0.22420801  0.20802084  0.32917484  1
  N  N37  1  0.10613705  0.09387859  0.13085246  1
  N  N38  1  0.88893742  0.20342653  0.88479953  1
  N  N39  1  0.77730992  0.09374466  0.63618153  1
  N  N40  1  0.58446152  0.19327964  0.37106180  1
  N  N41  1  0.45533777  0.06614777  0.08868634  1
  N  N42  1  0.22878560  0.20515926  0.82976296  1
  N  N43  1  0.10690316  0.09354187  0.62978714  1
  N  N44  1  0.87702283  0.19297755  0.37638834  1
  N  N45  1  0.77838140  0.09596090  0.15462189  1
  N  N46  1  0.55935559  0.20549829  0.89032020  1
  N  N47  1  0.44437904  0.09077201  0.56951383  1
  N  N48  1  0.22446555  0.54303866  0.38135454  1
  N  N49  1  0.10789003  0.42464228  0.07851904  1
  N  N50  1  0.88970164  0.54515945  0.82939441  1
  N  N51  1  0.78038444  0.42200834  0.62781858  1
  N  N52  1  0.55564764  0.53686221  0.36278720  1
  N  N53  1  0.44118826  0.42603718  0.13286905  1
  N  N54  1  0.22462359  0.54151273  0.87898576  1
  N  N55  1  0.10918149  0.42501052  0.58039122  1
  N  N56  1  0.89172037  0.54170374  0.32934327  1
  N  N57  1  0.77936118  0.42285083  0.13023832  1
  N  N58  1  0.55563386  0.53732575  0.86891017  1
  N  N59  1  0.44517105  0.42222787  0.63090609  1
  N  N60  1  0.21613653  0.87530976  0.37883513  1
  N  N61  1  0.11101940  0.76047831  0.13242458  1
  N  N62  1  0.89073787  0.87525696  0.89040367  1
  N  N63  1  0.77471057  0.76136459  0.56957505  1
  N  N64  1  0.55482742  0.87230089  0.30476559  1
  N  N65  1  0.45732100  0.77656557  0.08874820  1
  N  N66  1  0.22016678  0.87271372  0.88301186  1
  N  N67  1  0.10784218  0.76322537  0.63170215  1
  N  N68  1  0.87739493  0.90113723  0.37054777  1
  N  N69  1  0.74928601  0.77289662  0.08867825  1
  N  N70  1  0.55757708  0.87337427  0.82375927  1
  N  N71  1  0.44840481  0.76482609  0.57643873  1
