# generated using pymatgen
data_Al17BN18
_symmetry_space_group_name_H-M   'P 1'
_cell_length_a   9.31222968
_cell_length_b   9.31149077
_cell_length_c   10.13502334
_cell_angle_alpha   89.60346141
_cell_angle_beta   89.60957652
_cell_angle_gamma   60.01521297
_symmetry_Int_Tables_number   1
_chemical_formula_structural   Al17BN18
_chemical_formula_sum   'Al34 B2 N36'
_cell_volume   761.16914708
_cell_formula_units_Z   2
loop_
 _symmetry_equiv_pos_site_id
 _symmetry_equiv_pos_as_xyz
  1  'x, y, z'
loop_
 _atom_site_type_symbol
 _atom_site_label
 _atom_site_symmetry_multiplicity
 _atom_site_fract_x
 _atom_site_fract_y
 _atom_site_fract_z
 _atom_site_occupancy
  Al  Al0  1  0.10381687  0.09010884  0.32121280  1
  Al  Al1  1  0.22980275  0.20194341  0.14235078  1
  Al  Al2  1  0.77481101  0.09199198  0.82590522  1
  Al  Al3  1  0.88670040  0.20297884  0.56851914  1
  Al  Al4  1  0.44916696  0.09026042  0.38142440  1
  Al  Al5  1  0.56218583  0.20132351  0.08440802  1
  Al  Al6  1  0.10572930  0.09161871  0.82174939  1
  Al  Al7  1  0.22755923  0.20731407  0.64000146  1
  Al  Al8  1  0.88795425  0.20453662  0.07572834  1
  Al  Al9  1  0.44409093  0.08440736  0.89912072  1
  Al  Al10  1  0.56389936  0.20587384  0.56657169  1
  Al  Al11  1  0.11033084  0.42447949  0.38909713  1
  Al  Al12  1  0.22653703  0.54231324  0.07205411  1
  Al  Al13  1  0.77504352  0.42385338  0.82149994  1
  Al  Al14  1  0.88862339  0.54382963  0.63253164  1
  Al  Al15  1  0.45022613  0.42533978  0.32066874  1
  Al  Al16  1  0.55783167  0.54379931  0.06948821  1
  Al  Al17  1  0.10737212  0.42441533  0.89194623  1
  Al  Al18  1  0.22501337  0.54248735  0.57263626  1
  Al  Al19  1  0.77382357  0.42044726  0.32114119  1
  Al  Al20  1  0.88687515  0.54432901  0.14054871  1
  Al  Al21  1  0.44479963  0.42347538  0.82311541  1
  Al  Al22  1  0.55502507  0.54005290  0.57003819  1
  Al  Al23  1  0.10990956  0.76593778  0.32052674  1
  Al  Al24  1  0.22745696  0.87430260  0.06969204  1
  Al  Al25  1  0.76753704  0.76101212  0.90005560  1
  Al  Al26  1  0.88863450  0.88087796  0.56534998  1
  Al  Al27  1  0.44413852  0.76063019  0.31570985  1
  Al  Al28  1  0.10593206  0.76189421  0.82309973  1
  Al  Al29  1  0.22273733  0.87333604  0.57035490  1
  Al  Al30  1  0.77406447  0.76644307  0.37759727  1
  Al  Al31  1  0.88514386  0.87894754  0.08515102  1
  Al  Al32  1  0.44080085  0.75766886  0.82011943  1
  Al  Al33  1  0.55950538  0.87640657  0.63852648  1
  B  B34  1  0.77888367  0.09547074  0.31898855  1
  B  B35  1  0.55737110  0.87473978  0.14894857  1
  N  N36  1  0.22557991  0.20655480  0.33040351  1
  N  N37  1  0.10805581  0.09123858  0.13161532  1
  N  N38  1  0.88661427  0.20427398  0.88647392  1
  N  N39  1  0.77654344  0.09307862  0.63835946  1
  N  N40  1  0.58498762  0.19612513  0.37349633  1
  N  N41  1  0.45637895  0.06469127  0.09047656  1
  N  N42  1  0.22742567  0.20541902  0.83161014  1
  N  N43  1  0.10633329  0.09322497  0.63018977  1
  N  N44  1  0.87723770  0.19377863  0.37730693  1
  N  N45  1  0.77856669  0.09570306  0.15670583  1
  N  N46  1  0.55753769  0.20625120  0.89252396  1
  N  N47  1  0.44335740  0.09183352  0.57129397  1
  N  N48  1  0.22707701  0.54285048  0.38161680  1
  N  N49  1  0.10995335  0.42397755  0.08224524  1
  N  N50  1  0.88791025  0.54408252  0.83382729  1
  N  N51  1  0.77525364  0.42320344  0.62930139  1
  N  N52  1  0.55524856  0.54212541  0.38222556  1
  N  N53  1  0.44559594  0.42891351  0.13372541  1
  N  N54  1  0.22463861  0.54171255  0.88134719  1
  N  N55  1  0.10879617  0.42481247  0.57919194  1
  N  N56  1  0.89161983  0.54055948  0.33079698  1
  N  N57  1  0.77457123  0.42440892  0.13172073  1
  N  N58  1  0.55487070  0.53819728  0.88185672  1
  N  N59  1  0.44567838  0.42418626  0.63276131  1
  N  N60  1  0.22570204  0.87174054  0.38242404  1
  N  N61  1  0.11308843  0.76147398  0.13369529  1
  N  N62  1  0.88902692  0.87501533  0.89323823  1
  N  N63  1  0.77340228  0.76141387  0.56815071  1
  N  N64  1  0.56015956  0.87818724  0.30865579  1
  N  N65  1  0.45347551  0.76979352  0.12629155  1
  N  N66  1  0.22129442  0.87172980  0.88208665  1
  N  N67  1  0.10670403  0.76334127  0.63247802  1
  N  N68  1  0.88039265  0.90152732  0.37220868  1
  N  N69  1  0.74881875  0.77299062  0.09220246  1
  N  N70  1  0.55827315  0.87478462  0.82595881  1
  N  N71  1  0.44148292  0.75867924  0.63014797  1
