
#======================================================================
# CRYSTAL DATA
#----------------------------------------------------------------------
data_VESTA_phase_1

_chemical_name_common                  'Al   Hf   Mg   N                      '
_cell_length_a                         9.899529
_cell_length_b                         9.864762
_cell_length_c                         9.859838
_cell_angle_alpha                      90.102470
_cell_angle_beta                       89.819420
_cell_angle_gamma                      59.990654
_cell_volume                           833.787282
_space_group_name_H-M_alt              'P 1'
_space_group_IT_number                 1

loop_
_space_group_symop_operation_xyz
   'x, y, z'

loop_
   _atom_site_label
   _atom_site_occupancy
   _atom_site_fract_x
   _atom_site_fract_y
   _atom_site_fract_z
   _atom_site_adp_type
   _atom_site_U_iso_or_equiv
   _atom_site_type_symbol
   Al1        1.0     0.127728     0.092252     0.391539    Uiso  ? Al
   Al2        1.0     0.217434     0.194179     0.132725    Uiso  ? Al
   Al3        1.0     0.788787     0.087222     0.808189    Uiso  ? Al
   Al4        1.0     0.898196     0.206494     0.578758    Uiso  ? Al
   Al5        1.0     0.439841     0.091610     0.381942    Uiso  ? Al
   Al6        1.0     0.117840     0.086450     0.856751    Uiso  ? Al
   Al7        1.0     0.223605     0.206674     0.630879    Uiso  ? Al
   Al8        1.0     0.892053     0.203918     0.060048    Uiso  ? Al
   Al9        1.0     0.436408     0.083791     0.876728    Uiso  ? Al
   Al10       1.0     0.554413     0.195248     0.626848    Uiso  ? Al
   Al11       1.0     0.113418     0.420844     0.385666    Uiso  ? Al
   Al12       1.0     0.781736     0.425824     0.818327    Uiso  ? Al
   Al13       1.0     0.442583     0.428423     0.392211    Uiso  ? Al
   Al14       1.0     0.552920     0.543282     0.138766    Uiso  ? Al
   Al15       1.0     0.109116     0.422432     0.873999    Uiso  ? Al
   Al16       1.0     0.562859     0.544932     0.622139    Uiso  ? Al
   Al17       1.0     0.219098     0.882856     0.137043    Uiso  ? Al
   Al18       1.0     0.767796     0.768912     0.869223    Uiso  ? Al
   Al19       1.0     0.885653     0.870132     0.574706    Uiso  ? Al
   Al20       1.0     0.446911     0.762236     0.380347    Uiso  ? Al
   Al21       1.0     0.549715     0.871616     0.133110    Uiso  ? Al
   Al22       1.0     0.102573     0.770844     0.808197    Uiso  ? Al
   Al23       1.0     0.772139     0.759486     0.388937    Uiso  ? Al
   Al24       1.0     0.893474     0.878585     0.061011    Uiso  ? Al
   Al25       1.0     0.439361     0.767441     0.885497    Uiso  ? Al
   Al26       1.0     0.554433     0.869786     0.630757    Uiso  ? Al
   Hf1        1.0     0.554149     0.200064     0.104114    Uiso  ? Hf
   Hf2        1.0     0.785752     0.093909     0.343542    Uiso  ? Hf
   Hf3        1.0     0.218087     0.545805     0.123328    Uiso  ? Hf
   Hf4        1.0     0.879235     0.541964     0.109023    Uiso  ? Hf
   Hf5        1.0     0.440984     0.436485     0.843686    Uiso  ? Hf
   Mg1        1.0     0.894975     0.542093     0.626835    Uiso  ? Mg
   Mg2        1.0     0.213438     0.537597     0.608168    Uiso  ? Mg
   Mg3        1.0     0.777385     0.434675     0.367988    Uiso  ? Mg
   Mg4        1.0     0.118378     0.762273     0.369518    Uiso  ? Mg
   Mg5        1.0     0.234452     0.868017     0.618575    Uiso  ? Mg
   N1         1.0     0.226363     0.202917     0.325015    Uiso  ? N
   N2         1.0     0.110923     0.094005     0.073443    Uiso  ? N
   N3         1.0     0.886160     0.203571     0.860889    Uiso  ? N
   N4         1.0     0.776475     0.095827     0.609197    Uiso  ? N
   N5         1.0     0.537078     0.213627     0.323815    Uiso  ? N
   N6         1.0     0.430463     0.083083     0.071343    Uiso  ? N
   N7         1.0     0.224724     0.205447     0.824815    Uiso  ? N
   N8         1.0     0.115484     0.101932     0.594788    Uiso  ? N
   N9         1.0     0.910964     0.199911     0.382703    Uiso  ? N
   N10        1.0     0.794457     0.089025     0.121570    Uiso  ? N
   N11        1.0     0.562238     0.185308     0.840322    Uiso  ? N
   N12        1.0     0.445376     0.091528     0.576704    Uiso  ? N
   N13        1.0     0.233994     0.519246     0.337374    Uiso  ? N
   N14        1.0     0.120518     0.405867     0.070820    Uiso  ? N
   N15        1.0     0.886997     0.540816     0.854763    Uiso  ? N
   N16        1.0     0.778546     0.418774     0.616815    Uiso  ? N
   N17        1.0     0.535911     0.544019     0.331066    Uiso  ? N
   N18        1.0     0.452907     0.437226     0.062798    Uiso  ? N
   N19        1.0     0.201250     0.550203     0.848175    Uiso  ? N
   N20        1.0     0.117948     0.408927     0.572950    Uiso  ? N
   N21        1.0     0.898353     0.550701     0.324441    Uiso  ? N
   N22        1.0     0.766400     0.416949     0.102627    Uiso  ? N
   N23        1.0     0.558998     0.556924     0.821572    Uiso  ? N
   N24        1.0     0.460710     0.416872     0.596969    Uiso  ? N
   N25        1.0     0.235691     0.884199     0.332181    Uiso  ? N
   N26        1.0     0.099539     0.781357     0.116183    Uiso  ? N
   N27        1.0     0.887701     0.878110     0.863853    Uiso  ? N
   N28        1.0     0.764648     0.774151     0.586685    Uiso  ? N
   N29        1.0     0.557982     0.872665     0.325227    Uiso  ? N
   N30        1.0     0.445893     0.759169     0.081023    Uiso  ? N
   N31        1.0     0.227038     0.866654     0.835855    Uiso  ? N
   N32        1.0     0.094622     0.770918     0.612769    Uiso  ? N
   N33        1.0     0.882913     0.865658     0.378538    Uiso  ? N
   N34        1.0     0.759858     0.787243     0.069116    Uiso  ? N
   N35        1.0     0.548996     0.872875     0.824990    Uiso  ? N
   N36        1.0     0.466313     0.751799     0.568595    Uiso  ? N
