
#======================================================================
# CRYSTAL DATA
#----------------------------------------------------------------------
data_VESTA_phase_1

_chemical_name_common                  'Al   Hf   Mg   N                      '
_cell_length_a                         9.805500
_cell_length_b                         9.789363
_cell_length_c                         9.994344
_cell_angle_alpha                      90.081871
_cell_angle_beta                       90.115677
_cell_angle_gamma                      59.945576
_cell_volume                           830.366306
_space_group_name_H-M_alt              'P 1'
_space_group_IT_number                 1

loop_
_space_group_symop_operation_xyz
   'x, y, z'

loop_
   _atom_site_label
   _atom_site_occupancy
   _atom_site_fract_x
   _atom_site_fract_y
   _atom_site_fract_z
   _atom_site_adp_type
   _atom_site_U_iso_or_equiv
   _atom_site_type_symbol
   Al1        1.0     0.119039     0.093996     0.390742    Uiso  ? Al
   Al2        1.0     0.221658     0.194445     0.141496    Uiso  ? Al
   Al3        1.0     0.788870     0.086583     0.883495    Uiso  ? Al
   Al4        1.0     0.894614     0.207786     0.643308    Uiso  ? Al
   Al5        1.0     0.438219     0.090694     0.392885    Uiso  ? Al
   Al6        1.0     0.115371     0.089015     0.887659    Uiso  ? Al
   Al7        1.0     0.217070     0.205279     0.635398    Uiso  ? Al
   Al8        1.0     0.899506     0.200059     0.133872    Uiso  ? Al
   Al9        1.0     0.437506     0.083394     0.881929    Uiso  ? Al
   Al10       1.0     0.557899     0.192654     0.641168    Uiso  ? Al
   Al11       1.0     0.113486     0.421909     0.395822    Uiso  ? Al
   Al12       1.0     0.778945     0.425586     0.880664    Uiso  ? Al
   Al13       1.0     0.442387     0.432623     0.404208    Uiso  ? Al
   Al14       1.0     0.554929     0.542656     0.143685    Uiso  ? Al
   Al15       1.0     0.109611     0.421020     0.881025    Uiso  ? Al
   Al16       1.0     0.568099     0.542209     0.632989    Uiso  ? Al
   Al17       1.0     0.222813     0.878392     0.140418    Uiso  ? Al
   Al18       1.0     0.770219     0.769766     0.884537    Uiso  ? Al
   Al19       1.0     0.883735     0.871224     0.642277    Uiso  ? Al
   Al20       1.0     0.445464     0.761375     0.387774    Uiso  ? Al
   Al21       1.0     0.549709     0.871578     0.141812    Uiso  ? Al
   Al22       1.0     0.105374     0.771176     0.848555    Uiso  ? Al
   Al23       1.0     0.776540     0.763367     0.392197    Uiso  ? Al
   Al24       1.0     0.890901     0.874803     0.135596    Uiso  ? Al
   Al25       1.0     0.443402     0.767038     0.890168    Uiso  ? Al
   Al26       1.0     0.557218     0.868283     0.634943    Uiso  ? Al
   Hf1        1.0     0.554668     0.199762     0.122623    Uiso  ? Hf
   Hf2        1.0     0.782155     0.096795     0.390049    Uiso  ? Hf
   Hf3        1.0     0.221276     0.546364     0.134479    Uiso  ? Hf
   Hf4        1.0     0.883358     0.542069     0.119802    Uiso  ? Hf
   Hf5        1.0     0.442996     0.433451     0.850541    Uiso  ? Hf
   Mg1        1.0     0.887825     0.539733     0.638873    Uiso  ? Mg
   Mg2        1.0     0.209437     0.540924     0.625221    Uiso  ? Mg
   Mg3        1.0     0.781455     0.430121     0.392321    Uiso  ? Mg
   Mg4        1.0     0.113424     0.766231     0.399922    Uiso  ? Mg
   Mg5        1.0     0.228641     0.874852     0.633279    Uiso  ? Mg
   N1         1.0     0.225679     0.204019     0.330124    Uiso  ? N
   N2         1.0     0.112723     0.095011     0.078663    Uiso  ? N
   N3         1.0     0.892159     0.201843     0.836895    Uiso  ? N
   N4         1.0     0.776369     0.095271     0.598193    Uiso  ? N
   N5         1.0     0.540448     0.213244     0.334011    Uiso  ? N
   N6         1.0     0.432550     0.082688     0.075201    Uiso  ? N
   N7         1.0     0.221543     0.202502     0.829498    Uiso  ? N
   N8         1.0     0.103542     0.107520     0.578763    Uiso  ? N
   N9         1.0     0.908884     0.197062     0.321125    Uiso  ? N
   N10        1.0     0.792258     0.089866     0.079944    Uiso  ? N
   N11        1.0     0.562769     0.183739     0.843134    Uiso  ? N
   N12        1.0     0.443485     0.091872     0.584345    Uiso  ? N
   N13        1.0     0.232156     0.523783     0.343691    Uiso  ? N
   N14        1.0     0.124836     0.406123     0.076397    Uiso  ? N
   N15        1.0     0.886497     0.541792     0.863934    Uiso  ? N
   N16        1.0     0.776556     0.416710     0.595594    Uiso  ? N
   N17        1.0     0.539867     0.542144     0.331339    Uiso  ? N
   N18        1.0     0.454447     0.435014     0.068465    Uiso  ? N
   N19        1.0     0.202773     0.546937     0.850083    Uiso  ? N
   N20        1.0     0.114916     0.410784     0.580142    Uiso  ? N
   N21        1.0     0.898356     0.549343     0.327733    Uiso  ? N
   N22        1.0     0.767268     0.416944     0.078974    Uiso  ? N
   N23        1.0     0.563952     0.554022     0.828506    Uiso  ? N
   N24        1.0     0.459830     0.417446     0.606154    Uiso  ? N
   N25        1.0     0.233043     0.881672     0.330483    Uiso  ? N
   N26        1.0     0.102894     0.780351     0.085022    Uiso  ? N
   N27        1.0     0.881673     0.874485     0.835402    Uiso  ? N
   N28        1.0     0.768517     0.777722     0.581324    Uiso  ? N
   N29        1.0     0.556738     0.873364     0.331113    Uiso  ? N
   N30        1.0     0.448925     0.757906     0.083652    Uiso  ? N
   N31        1.0     0.227664     0.871999     0.844091    Uiso  ? N
   N32        1.0     0.094604     0.773899     0.609573    Uiso  ? N
   N33        1.0     0.879489     0.870384     0.324818    Uiso  ? N
   N34        1.0     0.762563     0.786911     0.077256    Uiso  ? N
   N35        1.0     0.553621     0.870904     0.828859    Uiso  ? N
   N36        1.0     0.463667     0.752012     0.575083    Uiso  ? N
