
#======================================================================
# CRYSTAL DATA
#----------------------------------------------------------------------
data_VESTA_phase_1

_chemical_name_common                  'Al   Hf   Mg   N                      '
_cell_length_a                         9.843379
_cell_length_b                         9.818050
_cell_length_c                         10.035997
_cell_angle_alpha                      90.085793
_cell_angle_beta                       90.288017
_cell_angle_gamma                      60.093227
_cell_volume                           840.740704
_space_group_name_H-M_alt              'P 1'
_space_group_IT_number                 1

loop_
_space_group_symop_operation_xyz
   'x, y, z'

loop_
   _atom_site_label
   _atom_site_occupancy
   _atom_site_fract_x
   _atom_site_fract_y
   _atom_site_fract_z
   _atom_site_adp_type
   _atom_site_U_iso_or_equiv
   _atom_site_type_symbol
   Al1        1.0     0.123659     0.090677     0.320187    Uiso  ? Al
   Al2        1.0     0.218154     0.196304     0.063052    Uiso  ? Al
   Al3        1.0     0.787670     0.087731     0.809150    Uiso  ? Al
   Al4        1.0     0.901449     0.204033     0.576666    Uiso  ? Al
   Al5        1.0     0.440457     0.086486     0.391755    Uiso  ? Al
   Al6        1.0     0.111125     0.092520     0.820325    Uiso  ? Al
   Al7        1.0     0.210208     0.210492     0.577885    Uiso  ? Al
   Al8        1.0     0.893267     0.203310     0.066097    Uiso  ? Al
   Al9        1.0     0.436232     0.088526     0.835105    Uiso  ? Al
   Al10       1.0     0.559626     0.200155     0.581667    Uiso  ? Al
   Al11       1.0     0.117044     0.415765     0.325917    Uiso  ? Al
   Al12       1.0     0.787010     0.424200     0.813430    Uiso  ? Al
   Al13       1.0     0.441313     0.434027     0.392283    Uiso  ? Al
   Al14       1.0     0.551156     0.542318     0.141840    Uiso  ? Al
   Al15       1.0     0.102385     0.429301     0.814239    Uiso  ? Al
   Al16       1.0     0.564648     0.544837     0.625598    Uiso  ? Al
   Al17       1.0     0.217544     0.880099     0.078318    Uiso  ? Al
   Al18       1.0     0.780428     0.761887     0.818985    Uiso  ? Al
   Al19       1.0     0.890644     0.866008     0.579043    Uiso  ? Al
   Al20       1.0     0.448080     0.760289     0.387069    Uiso  ? Al
   Al21       1.0     0.542544     0.877152     0.143332    Uiso  ? Al
   Al22       1.0     0.102619     0.771502     0.820162    Uiso  ? Al
   Al23       1.0     0.780852     0.763784     0.326129    Uiso  ? Al
   Al24       1.0     0.891250     0.875409     0.065732    Uiso  ? Al
   Al25       1.0     0.448437     0.764126     0.888702    Uiso  ? Al
   Al26       1.0     0.557895     0.864829     0.634168    Uiso  ? Al
   Hf1        1.0     0.562417     0.191475     0.072445    Uiso  ? Hf
   Hf2        1.0     0.786768     0.090913     0.341239    Uiso  ? Hf
   Hf3        1.0     0.221553     0.542650     0.103938    Uiso  ? Hf
   Hf4        1.0     0.878415     0.540766     0.093149    Uiso  ? Hf
   Hf5        1.0     0.435352     0.436556     0.830916    Uiso  ? Hf
   Mg1        1.0     0.889694     0.542475     0.565457    Uiso  ? Mg
   Mg2        1.0     0.202752     0.549390     0.570648    Uiso  ? Mg
   Mg3        1.0     0.779595     0.424487     0.342939    Uiso  ? Mg
   Mg4        1.0     0.116806     0.767394     0.332860    Uiso  ? Mg
   Mg5        1.0     0.220244     0.877573     0.575434    Uiso  ? Mg
   N1         1.0     0.221224     0.204687     0.383451    Uiso  ? N
   N2         1.0     0.107345     0.098861     0.124700    Uiso  ? N
   N3         1.0     0.886669     0.203789     0.874346    Uiso  ? N
   N4         1.0     0.779830     0.095101     0.617064    Uiso  ? N
   N5         1.0     0.543709     0.209272     0.378527    Uiso  ? N
   N6         1.0     0.432756     0.085482     0.091756    Uiso  ? N
   N7         1.0     0.216528     0.208675     0.873458    Uiso  ? N
   N8         1.0     0.107675     0.105706     0.637260    Uiso  ? N
   N9         1.0     0.916362     0.192627     0.388378    Uiso  ? N
   N10        1.0     0.796785     0.086339     0.129289    Uiso  ? N
   N11        1.0     0.564640     0.186454     0.858468    Uiso  ? N
   N12        1.0     0.443779     0.091416     0.602183    Uiso  ? N
   N13        1.0     0.232395     0.522284     0.342201    Uiso  ? N
   N14        1.0     0.118471     0.402758     0.129528    Uiso  ? N
   N15        1.0     0.885782     0.540548     0.876804    Uiso  ? N
   N16        1.0     0.781360     0.416247     0.622084    Uiso  ? N
   N17        1.0     0.535852     0.544779     0.330851    Uiso  ? N
   N18        1.0     0.458634     0.432471     0.062009    Uiso  ? N
   N19        1.0     0.196584     0.551871     0.880637    Uiso  ? N
   N20        1.0     0.116307     0.416058     0.631159    Uiso  ? N
   N21        1.0     0.897197     0.546181     0.345932    Uiso  ? N
   N22        1.0     0.769022     0.413580     0.120627    Uiso  ? N
   N23        1.0     0.559564     0.553834     0.823456    Uiso  ? N
   N24        1.0     0.454127     0.425421     0.602022    Uiso  ? N
   N25        1.0     0.234799     0.881910     0.362173    Uiso  ? N
   N26        1.0     0.100039     0.781370     0.121118    Uiso  ? N
   N27        1.0     0.883583     0.878193     0.876946    Uiso  ? N
   N28        1.0     0.775783     0.772193     0.631227    Uiso  ? N
   N29        1.0     0.554763     0.873663     0.335393    Uiso  ? N
   N30        1.0     0.452089     0.756092     0.081754    Uiso  ? N
   N31        1.0     0.218818     0.875511     0.881127    Uiso  ? N
   N32        1.0     0.096689     0.772563     0.635172    Uiso  ? N
   N33        1.0     0.886526     0.861816     0.390413    Uiso  ? N
   N34        1.0     0.768078     0.787038     0.127353    Uiso  ? N
   N35        1.0     0.551264     0.870780     0.829917    Uiso  ? N
   N36        1.0     0.467038     0.750843     0.574156    Uiso  ? N
