
#======================================================================
# CRYSTAL DATA
#----------------------------------------------------------------------
data_VESTA_phase_1

_chemical_name_common                  'Al   Hf   Mg   N                      '
_cell_length_a                         9.919044
_cell_length_b                         9.891081
_cell_length_c                         9.784518
_cell_angle_alpha                      89.942635
_cell_angle_beta                       90.015770
_cell_angle_gamma                      60.164982
_cell_volume                           832.727451
_space_group_name_H-M_alt              'P 1'
_space_group_IT_number                 1

loop_
_space_group_symop_operation_xyz
   'x, y, z'

loop_
   _atom_site_label
   _atom_site_occupancy
   _atom_site_fract_x
   _atom_site_fract_y
   _atom_site_fract_z
   _atom_site_adp_type
   _atom_site_U_iso_or_equiv
   _atom_site_type_symbol
   Al1        1.0     0.122766     0.095574     0.316685    Uiso  ? Al
   Al2        1.0     0.215988     0.195880     0.059783    Uiso  ? Al
   Al3        1.0     0.790185     0.087603     0.810382    Uiso  ? Al
   Al4        1.0     0.903647     0.204680     0.576225    Uiso  ? Al
   Al5        1.0     0.441670     0.088911     0.384560    Uiso  ? Al
   Al6        1.0     0.113607     0.088961     0.820071    Uiso  ? Al
   Al7        1.0     0.220051     0.200243     0.580536    Uiso  ? Al
   Al8        1.0     0.890937     0.204308     0.066772    Uiso  ? Al
   Al9        1.0     0.442787     0.080430     0.869917    Uiso  ? Al
   Al10       1.0     0.554834     0.195162     0.628416    Uiso  ? Al
   Al11       1.0     0.110679     0.426742     0.394051    Uiso  ? Al
   Al12       1.0     0.782334     0.423794     0.818451    Uiso  ? Al
   Al13       1.0     0.441144     0.428229     0.393541    Uiso  ? Al
   Al14       1.0     0.554842     0.540625     0.141647    Uiso  ? Al
   Al15       1.0     0.106879     0.426873     0.845845    Uiso  ? Al
   Al16       1.0     0.562101     0.544510     0.619808    Uiso  ? Al
   Al17       1.0     0.219582     0.877168     0.091733    Uiso  ? Al
   Al18       1.0     0.770016     0.767570     0.869052    Uiso  ? Al
   Al19       1.0     0.890175     0.868693     0.579161    Uiso  ? Al
   Al20       1.0     0.447677     0.761165     0.378494    Uiso  ? Al
   Al21       1.0     0.551915     0.869603     0.134630    Uiso  ? Al
   Al22       1.0     0.105105     0.774913     0.816765    Uiso  ? Al
   Al23       1.0     0.772741     0.760271     0.391693    Uiso  ? Al
   Al24       1.0     0.890719     0.878772     0.064763    Uiso  ? Al
   Al25       1.0     0.445213     0.764423     0.885687    Uiso  ? Al
   Al26       1.0     0.555143     0.867917     0.631724    Uiso  ? Al
   Hf1        1.0     0.555395     0.197548     0.107516    Uiso  ? Hf
   Hf2        1.0     0.784217     0.093956     0.352514    Uiso  ? Hf
   Hf3        1.0     0.219911     0.541241     0.119045    Uiso  ? Hf
   Hf4        1.0     0.881641     0.540829     0.111060    Uiso  ? Hf
   Hf5        1.0     0.442528     0.434956     0.843649    Uiso  ? Hf
   Mg1        1.0     0.887280     0.544565     0.623927    Uiso  ? Mg
   Mg2        1.0     0.213778     0.548088     0.604069    Uiso  ? Mg
   Mg3        1.0     0.779028     0.430233     0.364594    Uiso  ? Mg
   Mg4        1.0     0.114580     0.766712     0.342900    Uiso  ? Mg
   Mg5        1.0     0.222247     0.879155     0.570137    Uiso  ? Mg
   N1         1.0     0.223391     0.204511     0.373801    Uiso  ? N
   N2         1.0     0.104939     0.101253     0.118690    Uiso  ? N
   N3         1.0     0.887214     0.203010     0.869667    Uiso  ? N
   N4         1.0     0.776994     0.096574     0.608295    Uiso  ? N
   N5         1.0     0.535934     0.213203     0.328026    Uiso  ? N
   N6         1.0     0.435368     0.078763     0.071842    Uiso  ? N
   N7         1.0     0.221814     0.201802     0.860724    Uiso  ? N
   N8         1.0     0.108637     0.103589     0.632387    Uiso  ? N
   N9         1.0     0.917570     0.194477     0.383311    Uiso  ? N
   N10        1.0     0.794473     0.087611     0.127217    Uiso  ? N
   N11        1.0     0.564250     0.184516     0.840000    Uiso  ? N
   N12        1.0     0.448387     0.088303     0.584311    Uiso  ? N
   N13        1.0     0.231541     0.520968     0.341747    Uiso  ? N
   N14        1.0     0.117431     0.410699     0.074185    Uiso  ? N
   N15        1.0     0.884383     0.541418     0.854495    Uiso  ? N
   N16        1.0     0.777781     0.415843     0.616009    Uiso  ? N
   N17        1.0     0.536805     0.542001     0.335040    Uiso  ? N
   N18        1.0     0.456107     0.433497     0.065260    Uiso  ? N
   N19        1.0     0.203991     0.552931     0.855004    Uiso  ? N
   N20        1.0     0.117204     0.414761     0.597833    Uiso  ? N
   N21        1.0     0.898045     0.550686     0.332600    Uiso  ? N
   N22        1.0     0.768455     0.415715     0.111607    Uiso  ? N
   N23        1.0     0.559587     0.555728     0.821826    Uiso  ? N
   N24        1.0     0.459856     0.416541     0.598820    Uiso  ? N
   N25        1.0     0.236276     0.881882     0.344408    Uiso  ? N
   N26        1.0     0.097950     0.778035     0.118357    Uiso  ? N
   N27        1.0     0.887477     0.879247     0.866697    Uiso  ? N
   N28        1.0     0.765532     0.776039     0.590393    Uiso  ? N
   N29        1.0     0.559401     0.872227     0.327834    Uiso  ? N
   N30        1.0     0.452968     0.753856     0.082845    Uiso  ? N
   N31        1.0     0.220181     0.874895     0.880678    Uiso  ? N
   N32        1.0     0.095926     0.778426     0.624705    Uiso  ? N
   N33        1.0     0.884979     0.864733     0.381198    Uiso  ? N
   N34        1.0     0.761304     0.785233     0.071836    Uiso  ? N
   N35        1.0     0.551837     0.869780     0.826280    Uiso  ? N
   N36        1.0     0.464028     0.752806     0.571438    Uiso  ? N
