
#======================================================================
# CRYSTAL DATA
#----------------------------------------------------------------------
data_VESTA_phase_1

_chemical_name_common                  'Al   Hf   Mg   N                      '
_cell_length_a                         9.799911
_cell_length_b                         9.779612
_cell_length_c                         10.035233
_cell_angle_alpha                      90.042885
_cell_angle_beta                       90.211327
_cell_angle_gamma                      59.938225
_cell_volume                           832.391985
_space_group_name_H-M_alt              'P 1'
_space_group_IT_number                 1

loop_
_space_group_symop_operation_xyz
   'x, y, z'

loop_
   _atom_site_label
   _atom_site_occupancy
   _atom_site_fract_x
   _atom_site_fract_y
   _atom_site_fract_z
   _atom_site_adp_type
   _atom_site_U_iso_or_equiv
   _atom_site_type_symbol
   Al1        1.0     0.121168     0.091571     0.313016    Uiso  ? Al
   Al2        1.0     0.221576     0.193325     0.058313    Uiso  ? Al
   Al3        1.0     0.786342     0.088944     0.798948    Uiso  ? Al
   Al4        1.0     0.898271     0.209100     0.569696    Uiso  ? Al
   Al5        1.0     0.434535     0.087309     0.320935    Uiso  ? Al
   Al6        1.0     0.113276     0.093282     0.811249    Uiso  ? Al
   Al7        1.0     0.217269     0.206638     0.566007    Uiso  ? Al
   Al8        1.0     0.895571     0.201505     0.056213    Uiso  ? Al
   Al9        1.0     0.440661     0.086178     0.804766    Uiso  ? Al
   Al10       1.0     0.550297     0.201591     0.563575    Uiso  ? Al
   Al11       1.0     0.114331     0.417693     0.318134    Uiso  ? Al
   Al12       1.0     0.781541     0.428496     0.806098    Uiso  ? Al
   Al13       1.0     0.443046     0.431734     0.336474    Uiso  ? Al
   Al14       1.0     0.561259     0.543026     0.059843    Uiso  ? Al
   Al15       1.0     0.106308     0.426313     0.805338    Uiso  ? Al
   Al16       1.0     0.559692     0.542530     0.561527    Uiso  ? Al
   Al17       1.0     0.222781     0.877086     0.064177    Uiso  ? Al
   Al18       1.0     0.773818     0.765405     0.809991    Uiso  ? Al
   Al19       1.0     0.888946     0.865233     0.571173    Uiso  ? Al
   Al20       1.0     0.443013     0.762383     0.314002    Uiso  ? Al
   Al21       1.0     0.548151     0.872404     0.062021    Uiso  ? Al
   Al22       1.0     0.104539     0.769649     0.809593    Uiso  ? Al
   Al23       1.0     0.772997     0.767661     0.316172    Uiso  ? Al
   Al24       1.0     0.890814     0.877739     0.056103    Uiso  ? Al
   Al25       1.0     0.445817     0.766722     0.809574    Uiso  ? Al
   Al26       1.0     0.557737     0.868038     0.563645    Uiso  ? Al
   Hf1        1.0     0.561865     0.189427     0.070407    Uiso  ? Hf
   Hf2        1.0     0.786885     0.091420     0.336568    Uiso  ? Hf
   Hf3        1.0     0.220034     0.544360     0.093500    Uiso  ? Hf
   Hf4        1.0     0.881970     0.541655     0.085685    Uiso  ? Hf
   Hf5        1.0     0.441056     0.432301     0.810579    Uiso  ? Hf
   Mg1        1.0     0.888106     0.542037     0.559361    Uiso  ? Mg
   Mg2        1.0     0.210314     0.544822     0.555315    Uiso  ? Mg
   Mg3        1.0     0.774875     0.427487     0.322800    Uiso  ? Mg
   Mg4        1.0     0.113995     0.769573     0.324458    Uiso  ? Mg
   Mg5        1.0     0.224133     0.875499     0.564358    Uiso  ? Mg
   N1         1.0     0.222344     0.204290     0.373097    Uiso  ? N
   N2         1.0     0.109211     0.095926     0.116025    Uiso  ? N
   N3         1.0     0.887742     0.203356     0.865011    Uiso  ? N
   N4         1.0     0.775048     0.097187     0.605311    Uiso  ? N
   N5         1.0     0.539533     0.208315     0.364029    Uiso  ? N
   N6         1.0     0.431243     0.083687     0.127300    Uiso  ? N
   N7         1.0     0.225915     0.203400     0.870138    Uiso  ? N
   N8         1.0     0.107358     0.107672     0.628141    Uiso  ? N
   N9         1.0     0.913776     0.197849     0.380679    Uiso  ? N
   N10        1.0     0.796395     0.088176     0.122984    Uiso  ? N
   N11        1.0     0.564392     0.187760     0.860659    Uiso  ? N
   N12        1.0     0.442859     0.091904     0.615918    Uiso  ? N
   N13        1.0     0.227319     0.526206     0.332527    Uiso  ? N
   N14        1.0     0.120875     0.401260     0.121530    Uiso  ? N
   N15        1.0     0.887280     0.541370     0.868536    Uiso  ? N
   N16        1.0     0.771215     0.422268     0.619002    Uiso  ? N
   N17        1.0     0.540718     0.547442     0.372586    Uiso  ? N
   N18        1.0     0.462858     0.426240     0.106102    Uiso  ? N
   N19        1.0     0.205570     0.546943     0.873979    Uiso  ? N
   N20        1.0     0.117943     0.414834     0.621506    Uiso  ? N
   N21        1.0     0.894247     0.548117     0.334112    Uiso  ? N
   N22        1.0     0.771684     0.414062     0.110620    Uiso  ? N
   N23        1.0     0.562655     0.547572     0.869470    Uiso  ? N
   N24        1.0     0.454598     0.421098     0.605899    Uiso  ? N
   N25        1.0     0.234318     0.882202     0.358327    Uiso  ? N
   N26        1.0     0.099957     0.783779     0.110941    Uiso  ? N
   N27        1.0     0.884160     0.877834     0.867136    Uiso  ? N
   N28        1.0     0.767003     0.776757     0.624606    Uiso  ? N
   N29        1.0     0.557083     0.869482     0.370605    Uiso  ? N
   N30        1.0     0.449071     0.756927     0.117781    Uiso  ? N
   N31        1.0     0.225649     0.871927     0.870171    Uiso  ? N
   N32        1.0     0.097244     0.770146     0.625080    Uiso  ? N
   N33        1.0     0.884387     0.861040     0.381920    Uiso  ? N
   N34        1.0     0.762894     0.792135     0.119830    Uiso  ? N
   N35        1.0     0.553676     0.874945     0.872390    Uiso  ? N
   N36        1.0     0.461707     0.753219     0.624449    Uiso  ? N
