
#======================================================================
# CRYSTAL DATA
#----------------------------------------------------------------------
data_VESTA_phase_1

_chemical_name_common                  'Al   Hf   Mg   N                      '
_cell_length_a                         9.901209
_cell_length_b                         9.875890
_cell_length_c                         9.831223
_cell_angle_alpha                      90.077965
_cell_angle_beta                       90.126266
_cell_angle_gamma                      60.129009
_cell_volume                           833.613327
_space_group_name_H-M_alt              'P 1'
_space_group_IT_number                 1

loop_
_space_group_symop_operation_xyz
   'x, y, z'

loop_
   _atom_site_label
   _atom_site_occupancy
   _atom_site_fract_x
   _atom_site_fract_y
   _atom_site_fract_z
   _atom_site_adp_type
   _atom_site_U_iso_or_equiv
   _atom_site_type_symbol
   Al1        1.0     0.122815     0.093011     0.318243    Uiso  ? Al
   Al2        1.0     0.214559     0.198771     0.064801    Uiso  ? Al
   Al3        1.0     0.789770     0.088435     0.810929    Uiso  ? Al
   Al4        1.0     0.904282     0.204049     0.577014    Uiso  ? Al
   Al5        1.0     0.442374     0.088440     0.386026    Uiso  ? Al
   Al6        1.0     0.113242     0.091644     0.821543    Uiso  ? Al
   Al7        1.0     0.217093     0.205601     0.576305    Uiso  ? Al
   Al8        1.0     0.891112     0.204161     0.067325    Uiso  ? Al
   Al9        1.0     0.440153     0.082315     0.873169    Uiso  ? Al
   Al10       1.0     0.554402     0.195054     0.628867    Uiso  ? Al
   Al11       1.0     0.115776     0.419225     0.334860    Uiso  ? Al
   Al12       1.0     0.785198     0.424708     0.816452    Uiso  ? Al
   Al13       1.0     0.443077     0.428147     0.391142    Uiso  ? Al
   Al14       1.0     0.553717     0.541879     0.141201    Uiso  ? Al
   Al15       1.0     0.106588     0.426388     0.814585    Uiso  ? Al
   Al16       1.0     0.562980     0.544000     0.620776    Uiso  ? Al
   Al17       1.0     0.219158     0.879124     0.087125    Uiso  ? Al
   Al18       1.0     0.771459     0.765946     0.868862    Uiso  ? Al
   Al19       1.0     0.891904     0.867139     0.580757    Uiso  ? Al
   Al20       1.0     0.447929     0.761093     0.380797    Uiso  ? Al
   Al21       1.0     0.551639     0.870478     0.135649    Uiso  ? Al
   Al22       1.0     0.105194     0.771468     0.818259    Uiso  ? Al
   Al23       1.0     0.771045     0.762689     0.391706    Uiso  ? Al
   Al24       1.0     0.889736     0.880436     0.064504    Uiso  ? Al
   Al25       1.0     0.446073     0.763935     0.885401    Uiso  ? Al
   Al26       1.0     0.555614     0.868089     0.633107    Uiso  ? Al
   Hf1        1.0     0.554815     0.199073     0.107633    Uiso  ? Hf
   Hf2        1.0     0.783961     0.093357     0.352994    Uiso  ? Hf
   Hf3        1.0     0.219712     0.545731     0.107173    Uiso  ? Hf
   Hf4        1.0     0.879993     0.541258     0.106003    Uiso  ? Hf
   Hf5        1.0     0.438312     0.436591     0.839552    Uiso  ? Hf
   Mg1        1.0     0.892152     0.538103     0.593274    Uiso  ? Mg
   Mg2        1.0     0.208788     0.547076     0.574310    Uiso  ? Mg
   Mg3        1.0     0.778300     0.427334     0.355467    Uiso  ? Mg
   Mg4        1.0     0.114723     0.768568     0.337420    Uiso  ? Mg
   Mg5        1.0     0.222339     0.877951     0.572970    Uiso  ? Mg
   N1         1.0     0.222446     0.204309     0.377077    Uiso  ? N
   N2         1.0     0.105243     0.100595     0.121252    Uiso  ? N
   N3         1.0     0.886933     0.203791     0.871279    Uiso  ? N
   N4         1.0     0.777678     0.096028     0.609689    Uiso  ? N
   N5         1.0     0.535258     0.213455     0.327326    Uiso  ? N
   N6         1.0     0.435486     0.079199     0.073496    Uiso  ? N
   N7         1.0     0.216844     0.208214     0.871589    Uiso  ? N
   N8         1.0     0.109976     0.104752     0.634266    Uiso  ? N
   N9         1.0     0.917649     0.193398     0.385066    Uiso  ? N
   N10        1.0     0.794129     0.088447     0.128591    Uiso  ? N
   N11        1.0     0.562468     0.186122     0.839840    Uiso  ? N
   N12        1.0     0.448168     0.088405     0.583740    Uiso  ? N
   N13        1.0     0.232057     0.524424     0.345033    Uiso  ? N
   N14        1.0     0.121651     0.403607     0.128994    Uiso  ? N
   N15        1.0     0.888893     0.537393     0.868841    Uiso  ? N
   N16        1.0     0.779260     0.415255     0.617912    Uiso  ? N
   N17        1.0     0.536519     0.542914     0.333742    Uiso  ? N
   N18        1.0     0.457649     0.434153     0.062653    Uiso  ? N
   N19        1.0     0.198798     0.551866     0.875997    Uiso  ? N
   N20        1.0     0.121827     0.412137     0.625706    Uiso  ? N
   N21        1.0     0.893572     0.551642     0.339227    Uiso  ? N
   N22        1.0     0.768862     0.415021     0.116925    Uiso  ? N
   N23        1.0     0.559945     0.554445     0.822084    Uiso  ? N
   N24        1.0     0.458693     0.417405     0.598423    Uiso  ? N
   N25        1.0     0.236532     0.881827     0.350066    Uiso  ? N
   N26        1.0     0.097109     0.782224     0.119486    Uiso  ? N
   N27        1.0     0.886900     0.879733     0.867732    Uiso  ? N
   N28        1.0     0.766681     0.774714     0.591702    Uiso  ? N
   N29        1.0     0.558484     0.873060     0.328073    Uiso  ? N
   N30        1.0     0.452755     0.754701     0.082087    Uiso  ? N
   N31        1.0     0.219984     0.875007     0.880302    Uiso  ? N
   N32        1.0     0.098560     0.772629     0.628480    Uiso  ? N
   N33        1.0     0.886315     0.864210     0.383352    Uiso  ? N
   N34        1.0     0.761107     0.786612     0.073444    Uiso  ? N
   N35        1.0     0.551456     0.870906     0.826991    Uiso  ? N
   N36        1.0     0.465488     0.751988     0.572506    Uiso  ? N
