
#======================================================================
# CRYSTAL DATA
#----------------------------------------------------------------------
data_VESTA_phase_1

_chemical_name_common                  'Al   Hf   Mg   N                      '
_cell_length_a                         9.922349
_cell_length_b                         9.894811
_cell_length_c                         9.761850
_cell_angle_alpha                      89.958214
_cell_angle_beta                       90.034386
_cell_angle_gamma                      60.157913
_cell_volume                           831.329611
_space_group_name_H-M_alt              'P 1'
_space_group_IT_number                 1

loop_
_space_group_symop_operation_xyz
   'x, y, z'

loop_
   _atom_site_label
   _atom_site_occupancy
   _atom_site_fract_x
   _atom_site_fract_y
   _atom_site_fract_z
   _atom_site_adp_type
   _atom_site_U_iso_or_equiv
   _atom_site_type_symbol
   Al1        1.0     0.122608     0.095640     0.316631    Uiso  ? Al
   Al2        1.0     0.214866     0.198217     0.059614    Uiso  ? Al
   Al3        1.0     0.790251     0.087668     0.811053    Uiso  ? Al
   Al4        1.0     0.903554     0.204238     0.576539    Uiso  ? Al
   Al5        1.0     0.441579     0.089172     0.384823    Uiso  ? Al
   Al6        1.0     0.113336     0.089353     0.821251    Uiso  ? Al
   Al7        1.0     0.220200     0.199607     0.580290    Uiso  ? Al
   Al8        1.0     0.891250     0.204207     0.067250    Uiso  ? Al
   Al9        1.0     0.442067     0.080773     0.870074    Uiso  ? Al
   Al10       1.0     0.555142     0.194902     0.628851    Uiso  ? Al
   Al11       1.0     0.110705     0.426179     0.385823    Uiso  ? Al
   Al12       1.0     0.783158     0.423937     0.818523    Uiso  ? Al
   Al13       1.0     0.442403     0.427650     0.392887    Uiso  ? Al
   Al14       1.0     0.555279     0.540406     0.141087    Uiso  ? Al
   Al15       1.0     0.107903     0.426288     0.818760    Uiso  ? Al
   Al16       1.0     0.562148     0.544379     0.619904    Uiso  ? Al
   Al17       1.0     0.219725     0.877230     0.092004    Uiso  ? Al
   Al18       1.0     0.771130     0.766460     0.868375    Uiso  ? Al
   Al19       1.0     0.890297     0.868924     0.579965    Uiso  ? Al
   Al20       1.0     0.447665     0.761242     0.378231    Uiso  ? Al
   Al21       1.0     0.552182     0.869493     0.134120    Uiso  ? Al
   Al22       1.0     0.105586     0.773339     0.817450    Uiso  ? Al
   Al23       1.0     0.771491     0.761894     0.391771    Uiso  ? Al
   Al24       1.0     0.890649     0.878716     0.064895    Uiso  ? Al
   Al25       1.0     0.445336     0.764218     0.885776    Uiso  ? Al
   Al26       1.0     0.554759     0.868236     0.632231    Uiso  ? Al
   Hf1        1.0     0.555147     0.197210     0.106503    Uiso  ? Hf
   Hf2        1.0     0.783824     0.094013     0.352420    Uiso  ? Hf
   Hf3        1.0     0.220080     0.541276     0.116909    Uiso  ? Hf
   Hf4        1.0     0.883376     0.539831     0.110489    Uiso  ? Hf
   Hf5        1.0     0.441573     0.435333     0.842940    Uiso  ? Hf
   Mg1        1.0     0.883936     0.545362     0.615890    Uiso  ? Mg
   Mg2        1.0     0.214650     0.549608     0.593350    Uiso  ? Mg
   Mg3        1.0     0.778462     0.429314     0.362760    Uiso  ? Mg
   Mg4        1.0     0.114052     0.767970     0.341822    Uiso  ? Mg
   Mg5        1.0     0.222327     0.879090     0.570910    Uiso  ? Mg
   N1         1.0     0.222562     0.204839     0.376956    Uiso  ? N
   N2         1.0     0.105512     0.100983     0.118363    Uiso  ? N
   N3         1.0     0.887159     0.203109     0.869821    Uiso  ? N
   N4         1.0     0.777036     0.096642     0.608505    Uiso  ? N
   N5         1.0     0.535467     0.213233     0.327987    Uiso  ? N
   N6         1.0     0.434887     0.078505     0.071782    Uiso  ? N
   N7         1.0     0.220251     0.204961     0.861569    Uiso  ? N
   N8         1.0     0.108561     0.103757     0.632987    Uiso  ? N
   N9         1.0     0.917630     0.193958     0.383220    Uiso  ? N
   N10        1.0     0.794197     0.087796     0.127018    Uiso  ? N
   N11        1.0     0.564044     0.184703     0.840468    Uiso  ? N
   N12        1.0     0.448204     0.088553     0.585052    Uiso  ? N
   N13        1.0     0.231347     0.522831     0.346584    Uiso  ? N
   N14        1.0     0.119632     0.407373     0.096517    Uiso  ? N
   N15        1.0     0.887247     0.539577     0.855394    Uiso  ? N
   N16        1.0     0.777566     0.415291     0.615877    Uiso  ? N
   N17        1.0     0.536780     0.542083     0.334944    Uiso  ? N
   N18        1.0     0.456961     0.432935     0.065229    Uiso  ? N
   N19        1.0     0.202825     0.551627     0.859739    Uiso  ? N
   N20        1.0     0.117976     0.414563     0.607374    Uiso  ? N
   N21        1.0     0.895641     0.551418     0.337285    Uiso  ? N
   N22        1.0     0.769298     0.415480     0.112740    Uiso  ? N
   N23        1.0     0.559875     0.555372     0.822217    Uiso  ? N
   N24        1.0     0.460137     0.416255     0.599144    Uiso  ? N
   N25        1.0     0.236360     0.882279     0.344582    Uiso  ? N
   N26        1.0     0.097630     0.778518     0.118743    Uiso  ? N
   N27        1.0     0.887598     0.879114     0.866411    Uiso  ? N
   N28        1.0     0.764916     0.777376     0.591331    Uiso  ? N
   N29        1.0     0.558714     0.873054     0.327968    Uiso  ? N
   N30        1.0     0.453129     0.753632     0.083230    Uiso  ? N
   N31        1.0     0.220397     0.874569     0.880561    Uiso  ? N
   N32        1.0     0.096312     0.777748     0.625171    Uiso  ? N
   N33        1.0     0.884809     0.864993     0.381421    Uiso  ? N
   N34        1.0     0.761936     0.784920     0.072294    Uiso  ? N
   N35        1.0     0.551838     0.869739     0.826883    Uiso  ? N
   N36        1.0     0.464226     0.752695     0.571630    Uiso  ? N
