
#======================================================================
# CRYSTAL DATA
#----------------------------------------------------------------------
data_VESTA_phase_1

_chemical_name_common                  'Al   Hf   Mg   N                      '
_cell_length_a                         9.902253
_cell_length_b                         9.874758
_cell_length_c                         9.852258
_cell_angle_alpha                      89.966988
_cell_angle_beta                       90.038261
_cell_angle_gamma                      60.147987
_cell_volume                           835.549599
_space_group_name_H-M_alt              'P 1'
_space_group_IT_number                 1

loop_
_space_group_symop_operation_xyz
   'x, y, z'

loop_
   _atom_site_label
   _atom_site_occupancy
   _atom_site_fract_x
   _atom_site_fract_y
   _atom_site_fract_z
   _atom_site_adp_type
   _atom_site_U_iso_or_equiv
   _atom_site_type_symbol
   Al1        1.0     0.122400     0.092363     0.315800    Uiso  ? Al
   Al2        1.0     0.219598     0.195433     0.090247    Uiso  ? Al
   Al3        1.0     0.789338     0.087680     0.808839    Uiso  ? Al
   Al4        1.0     0.904503     0.205091     0.576113    Uiso  ? Al
   Al5        1.0     0.438144     0.090154     0.382064    Uiso  ? Al
   Al6        1.0     0.113131     0.090303     0.822668    Uiso  ? Al
   Al7        1.0     0.221895     0.203181     0.606358    Uiso  ? Al
   Al8        1.0     0.889829     0.204289     0.065240    Uiso  ? Al
   Al9        1.0     0.441478     0.081755     0.874713    Uiso  ? Al
   Al10       1.0     0.553901     0.195644     0.627078    Uiso  ? Al
   Al11       1.0     0.114093     0.421320     0.386897    Uiso  ? Al
   Al12       1.0     0.782750     0.423642     0.817842    Uiso  ? Al
   Al13       1.0     0.440557     0.429642     0.393625    Uiso  ? Al
   Al14       1.0     0.553960     0.541750     0.142053    Uiso  ? Al
   Al15       1.0     0.106588     0.426237     0.870426    Uiso  ? Al
   Al16       1.0     0.562445     0.544266     0.621169    Uiso  ? Al
   Al17       1.0     0.218204     0.877115     0.082732    Uiso  ? Al
   Al18       1.0     0.769337     0.768128     0.869930    Uiso  ? Al
   Al19       1.0     0.890571     0.867963     0.577998    Uiso  ? Al
   Al20       1.0     0.447448     0.761351     0.380847    Uiso  ? Al
   Al21       1.0     0.551604     0.869377     0.135687    Uiso  ? Al
   Al22       1.0     0.103970     0.774366     0.815959    Uiso  ? Al
   Al23       1.0     0.773241     0.759256     0.391872    Uiso  ? Al
   Al24       1.0     0.889879     0.879652     0.064059    Uiso  ? Al
   Al25       1.0     0.446318     0.764127     0.884266    Uiso  ? Al
   Al26       1.0     0.555288     0.868131     0.631389    Uiso  ? Al
   Hf1        1.0     0.555565     0.199221     0.111162    Uiso  ? Hf
   Hf2        1.0     0.785395     0.093581     0.353120    Uiso  ? Hf
   Hf3        1.0     0.220348     0.542851     0.119792    Uiso  ? Hf
   Hf4        1.0     0.878561     0.542525     0.112914    Uiso  ? Hf
   Hf5        1.0     0.442329     0.434216     0.843894    Uiso  ? Hf
   Mg1        1.0     0.892846     0.542325     0.626623    Uiso  ? Mg
   Mg2        1.0     0.211739     0.545555     0.606656    Uiso  ? Mg
   Mg3        1.0     0.779149     0.431300     0.366422    Uiso  ? Mg
   Mg4        1.0     0.115521     0.766436     0.341948    Uiso  ? Mg
   Mg5        1.0     0.222044     0.878764     0.571312    Uiso  ? Mg
   N1         1.0     0.226652     0.205338     0.337741    Uiso  ? N
   N2         1.0     0.103151     0.097606     0.116558    Uiso  ? N
   N3         1.0     0.886361     0.203104     0.869671    Uiso  ? N
   N4         1.0     0.777034     0.096263     0.607796    Uiso  ? N
   N5         1.0     0.537118     0.213551     0.328679    Uiso  ? N
   N6         1.0     0.437580     0.078599     0.071576    Uiso  ? N
   N7         1.0     0.223027     0.203820     0.854282    Uiso  ? N
   N8         1.0     0.108754     0.103523     0.634324    Uiso  ? N
   N9         1.0     0.918238     0.195129     0.384719    Uiso  ? N
   N10        1.0     0.794388     0.087620     0.128431    Uiso  ? N
   N11        1.0     0.563557     0.184408     0.837171    Uiso  ? N
   N12        1.0     0.445368     0.089750     0.579535    Uiso  ? N
   N13        1.0     0.232800     0.520911     0.336334    Uiso  ? N
   N14        1.0     0.116094     0.411852     0.071473    Uiso  ? N
   N15        1.0     0.885173     0.541289     0.854559    Uiso  ? N
   N16        1.0     0.778766     0.416193     0.616928    Uiso  ? N
   N17        1.0     0.536931     0.542774     0.334201    Uiso  ? N
   N18        1.0     0.455940     0.434416     0.063895    Uiso  ? N
   N19        1.0     0.202922     0.552072     0.854839    Uiso  ? N
   N20        1.0     0.117875     0.412523     0.579147    Uiso  ? N
   N21        1.0     0.897932     0.551098     0.328551    Uiso  ? N
   N22        1.0     0.767378     0.415686     0.110722    Uiso  ? N
   N23        1.0     0.559741     0.555184     0.821382    Uiso  ? N
   N24        1.0     0.458902     0.417444     0.597954    Uiso  ? N
   N25        1.0     0.235651     0.881772     0.351598    Uiso  ? N
   N26        1.0     0.097652     0.779352     0.117598    Uiso  ? N
   N27        1.0     0.886837     0.879794     0.867570    Uiso  ? N
   N28        1.0     0.766003     0.774813     0.589185    Uiso  ? N
   N29        1.0     0.559586     0.871502     0.327402    Uiso  ? N
   N30        1.0     0.451784     0.754933     0.080872    Uiso  ? N
   N31        1.0     0.220348     0.874080     0.878710    Uiso  ? N
   N32        1.0     0.095736     0.776951     0.626060    Uiso  ? N
   N33        1.0     0.885898     0.863967     0.381660    Uiso  ? N
   N34        1.0     0.760152     0.785815     0.070885    Uiso  ? N
   N35        1.0     0.551147     0.871590     0.825063    Uiso  ? N
   N36        1.0     0.464915     0.752144     0.572384    Uiso  ? N
