
#======================================================================
# CRYSTAL DATA
#----------------------------------------------------------------------
data_VESTA_phase_1

_chemical_name_common                  'Al   Hf   Mg   N                      '
_cell_length_a                         9.878964
_cell_length_b                         9.848928
_cell_length_c                         9.960888
_cell_angle_alpha                      90.165482
_cell_angle_beta                       89.994377
_cell_angle_gamma                      60.001053
_cell_volume                           839.327004
_space_group_name_H-M_alt              'P 1'
_space_group_IT_number                 1

loop_
_space_group_symop_operation_xyz
   'x, y, z'

loop_
   _atom_site_label
   _atom_site_occupancy
   _atom_site_fract_x
   _atom_site_fract_y
   _atom_site_fract_z
   _atom_site_adp_type
   _atom_site_U_iso_or_equiv
   _atom_site_type_symbol
   Al1        1.0     0.117790     0.095442     0.322040    Uiso  ? Al
   Al2        1.0     0.222557     0.198492     0.128278    Uiso  ? Al
   Al3        1.0     0.789492     0.088164     0.807524    Uiso  ? Al
   Al4        1.0     0.902702     0.206359     0.574526    Uiso  ? Al
   Al5        1.0     0.437743     0.091264     0.383999    Uiso  ? Al
   Al6        1.0     0.111916     0.090508     0.820255    Uiso  ? Al
   Al7        1.0     0.221968     0.207379     0.631670    Uiso  ? Al
   Al8        1.0     0.892769     0.203294     0.063870    Uiso  ? Al
   Al9        1.0     0.438431     0.084070     0.876413    Uiso  ? Al
   Al10       1.0     0.553735     0.195699     0.627534    Uiso  ? Al
   Al11       1.0     0.114226     0.420347     0.385729    Uiso  ? Al
   Al12       1.0     0.782802     0.424158     0.816294    Uiso  ? Al
   Al13       1.0     0.441648     0.429197     0.394293    Uiso  ? Al
   Al14       1.0     0.553005     0.542997     0.140617    Uiso  ? Al
   Al15       1.0     0.109010     0.423858     0.874994    Uiso  ? Al
   Al16       1.0     0.562411     0.544274     0.622721    Uiso  ? Al
   Al17       1.0     0.224094     0.874542     0.130178    Uiso  ? Al
   Al18       1.0     0.767661     0.768794     0.870793    Uiso  ? Al
   Al19       1.0     0.886451     0.869249     0.575661    Uiso  ? Al
   Al20       1.0     0.447006     0.761704     0.381478    Uiso  ? Al
   Al21       1.0     0.550554     0.871316     0.134319    Uiso  ? Al
   Al22       1.0     0.103194     0.772033     0.810183    Uiso  ? Al
   Al23       1.0     0.772475     0.758496     0.389851    Uiso  ? Al
   Al24       1.0     0.892511     0.879769     0.060199    Uiso  ? Al
   Al25       1.0     0.439905     0.767906     0.885502    Uiso  ? Al
   Al26       1.0     0.554424     0.869239     0.631273    Uiso  ? Al
   Hf1        1.0     0.555116     0.199991     0.109876    Uiso  ? Hf
   Hf2        1.0     0.785220     0.092905     0.348507    Uiso  ? Hf
   Hf3        1.0     0.219590     0.544477     0.125294    Uiso  ? Hf
   Hf4        1.0     0.879372     0.542737     0.109673    Uiso  ? Hf
   Hf5        1.0     0.441927     0.435451     0.845895    Uiso  ? Hf
   Mg1        1.0     0.894507     0.540917     0.626318    Uiso  ? Mg
   Mg2        1.0     0.212917     0.537425     0.611952    Uiso  ? Mg
   Mg3        1.0     0.778395     0.432230     0.357457    Uiso  ? Mg
   Mg4        1.0     0.118947     0.761290     0.367296    Uiso  ? Mg
   Mg5        1.0     0.230821     0.871871     0.610783    Uiso  ? Mg
   N1         1.0     0.229039     0.205976     0.321061    Uiso  ? N
   N2         1.0     0.103856     0.098967     0.118592    Uiso  ? N
   N3         1.0     0.886664     0.203673     0.870561    Uiso  ? N
   N4         1.0     0.777058     0.095995     0.608581    Uiso  ? N
   N5         1.0     0.536744     0.213250     0.325648    Uiso  ? N
   N6         1.0     0.433327     0.081996     0.069212    Uiso  ? N
   N7         1.0     0.226373     0.207673     0.828649    Uiso  ? N
   N8         1.0     0.106200     0.105720     0.630165    Uiso  ? N
   N9         1.0     0.915054     0.197454     0.385593    Uiso  ? N
   N10        1.0     0.794966     0.087849     0.127108    Uiso  ? N
   N11        1.0     0.563385     0.185071     0.836537    Uiso  ? N
   N12        1.0     0.443620     0.091309     0.576701    Uiso  ? N
   N13        1.0     0.233923     0.519367     0.336423    Uiso  ? N
   N14        1.0     0.120236     0.408130     0.069026    Uiso  ? N
   N15        1.0     0.886408     0.540664     0.855452    Uiso  ? N
   N16        1.0     0.778540     0.416761     0.619306    Uiso  ? N
   N17        1.0     0.535146     0.543939     0.331055    Uiso  ? N
   N18        1.0     0.454316     0.436163     0.062795    Uiso  ? N
   N19        1.0     0.201926     0.550300     0.846485    Uiso  ? N
   N20        1.0     0.117745     0.408288     0.570822    Uiso  ? N
   N21        1.0     0.899443     0.550855     0.322940    Uiso  ? N
   N22        1.0     0.767835     0.415795     0.112549    Uiso  ? N
   N23        1.0     0.558979     0.556886     0.821007    Uiso  ? N
   N24        1.0     0.459971     0.417190     0.595835    Uiso  ? N
   N25        1.0     0.238291     0.878506     0.329331    Uiso  ? N
   N26        1.0     0.099088     0.779333     0.114264    Uiso  ? N
   N27        1.0     0.886998     0.879145     0.865034    Uiso  ? N
   N28        1.0     0.764490     0.773240     0.585045    Uiso  ? N
   N29        1.0     0.557919     0.872532     0.324929    Uiso  ? N
   N30        1.0     0.449098     0.757305     0.079547    Uiso  ? N
   N31        1.0     0.224338     0.870242     0.846850    Uiso  ? N
   N32        1.0     0.094940     0.771450     0.616485    Uiso  ? N
   N33        1.0     0.884197     0.864473     0.381045    Uiso  ? N
   N34        1.0     0.759547     0.787556     0.068795    Uiso  ? N
   N35        1.0     0.549599     0.872823     0.823817    Uiso  ? N
   N36        1.0     0.464810     0.752135     0.568618    Uiso  ? N
