
#======================================================================
# CRYSTAL DATA
#----------------------------------------------------------------------
data_VESTA_phase_1

_chemical_name_common                  'Al   Hf   Mg   N                      '
_cell_length_a                         9.848566
_cell_length_b                         9.835788
_cell_length_c                         9.916224
_cell_angle_alpha                      90.176979
_cell_angle_beta                       90.283905
_cell_angle_gamma                      60.094421
_cell_volume                           832.656878
_space_group_name_H-M_alt              'P 1'
_space_group_IT_number                 1

loop_
_space_group_symop_operation_xyz
   'x, y, z'

loop_
   _atom_site_label
   _atom_site_occupancy
   _atom_site_fract_x
   _atom_site_fract_y
   _atom_site_fract_z
   _atom_site_adp_type
   _atom_site_U_iso_or_equiv
   _atom_site_type_symbol
   Al1        1.0     0.123211     0.089382     0.312721    Uiso  ? Al
   Al2        1.0     0.221626     0.193665     0.060959    Uiso  ? Al
   Al3        1.0     0.786526     0.088030     0.802042    Uiso  ? Al
   Al4        1.0     0.902612     0.205288     0.569492    Uiso  ? Al
   Al5        1.0     0.435127     0.087624     0.320458    Uiso  ? Al
   Al6        1.0     0.112384     0.095061     0.814388    Uiso  ? Al
   Al7        1.0     0.218138     0.206515     0.566801    Uiso  ? Al
   Al8        1.0     0.893613     0.203018     0.059917    Uiso  ? Al
   Al9        1.0     0.440824     0.086786     0.807103    Uiso  ? Al
   Al10       1.0     0.553638     0.197368     0.567526    Uiso  ? Al
   Al11       1.0     0.115958     0.417187     0.320361    Uiso  ? Al
   Al12       1.0     0.788053     0.424352     0.805056    Uiso  ? Al
   Al13       1.0     0.439957     0.432999     0.384752    Uiso  ? Al
   Al14       1.0     0.550975     0.544745     0.137409    Uiso  ? Al
   Al15       1.0     0.105965     0.426235     0.808250    Uiso  ? Al
   Al16       1.0     0.565229     0.540268     0.612481    Uiso  ? Al
   Al17       1.0     0.225035     0.874692     0.063895    Uiso  ? Al
   Al18       1.0     0.774790     0.764916     0.813056    Uiso  ? Al
   Al19       1.0     0.888278     0.866009     0.571474    Uiso  ? Al
   Al20       1.0     0.442877     0.763840     0.369635    Uiso  ? Al
   Al21       1.0     0.547028     0.870295     0.061351    Uiso  ? Al
   Al22       1.0     0.101626     0.770189     0.811979    Uiso  ? Al
   Al23       1.0     0.773365     0.767769     0.316327    Uiso  ? Al
   Al24       1.0     0.890726     0.876445     0.059206    Uiso  ? Al
   Al25       1.0     0.443258     0.768310     0.820188    Uiso  ? Al
   Al26       1.0     0.562114     0.873414     0.567448    Uiso  ? Al
   Hf1        1.0     0.561374     0.191468     0.072694    Uiso  ? Hf
   Hf2        1.0     0.786755     0.091077     0.338191    Uiso  ? Hf
   Hf3        1.0     0.221149     0.544075     0.097436    Uiso  ? Hf
   Hf4        1.0     0.878988     0.539495     0.089095    Uiso  ? Hf
   Hf5        1.0     0.439573     0.431576     0.826126    Uiso  ? Hf
   Mg1        1.0     0.891531     0.544257     0.560403    Uiso  ? Mg
   Mg2        1.0     0.203716     0.548341     0.564840    Uiso  ? Mg
   Mg3        1.0     0.780855     0.424858     0.341169    Uiso  ? Mg
   Mg4        1.0     0.115370     0.768730     0.327622    Uiso  ? Mg
   Mg5        1.0     0.214894     0.881370     0.572182    Uiso  ? Mg
   N1         1.0     0.223450     0.203328     0.372322    Uiso  ? N
   N2         1.0     0.109360     0.094898     0.114907    Uiso  ? N
   N3         1.0     0.887278     0.204059     0.865523    Uiso  ? N
   N4         1.0     0.776166     0.096897     0.605681    Uiso  ? N
   N5         1.0     0.540094     0.208589     0.363397    Uiso  ? N
   N6         1.0     0.432150     0.083196     0.125549    Uiso  ? N
   N7         1.0     0.226452     0.203830     0.870953    Uiso  ? N
   N8         1.0     0.107782     0.109949     0.629810    Uiso  ? N
   N9         1.0     0.917383     0.192658     0.379679    Uiso  ? N
   N10        1.0     0.795829     0.087550     0.123040    Uiso  ? N
   N11        1.0     0.566889     0.183068     0.859525    Uiso  ? N
   N12        1.0     0.442803     0.093538     0.616682    Uiso  ? N
   N13        1.0     0.231212     0.523970     0.335006    Uiso  ? N
   N14        1.0     0.119736     0.402393     0.121800    Uiso  ? N
   N15        1.0     0.887127     0.540117     0.868720    Uiso  ? N
   N16        1.0     0.781692     0.418351     0.609910    Uiso  ? N
   N17        1.0     0.537715     0.544863     0.334812    Uiso  ? N
   N18        1.0     0.459902     0.430454     0.061298    Uiso  ? N
   N19        1.0     0.199710     0.550707     0.871871    Uiso  ? N
   N20        1.0     0.118584     0.413181     0.622221    Uiso  ? N
   N21        1.0     0.895893     0.549133     0.336539    Uiso  ? N
   N22        1.0     0.769124     0.413208     0.115880    Uiso  ? N
   N23        1.0     0.563519     0.546651     0.816114    Uiso  ? N
   N24        1.0     0.454240     0.421821     0.593064    Uiso  ? N
   N25        1.0     0.231741     0.883564     0.363074    Uiso  ? N
   N26        1.0     0.100322     0.782838     0.111669    Uiso  ? N
   N27        1.0     0.883593     0.878051     0.868456    Uiso  ? N
   N28        1.0     0.769419     0.776235     0.625817    Uiso  ? N
   N29        1.0     0.559721     0.872665     0.372957    Uiso  ? N
   N30        1.0     0.446581     0.756290     0.092372    Uiso  ? N
   N31        1.0     0.221196     0.874245     0.865130    Uiso  ? N
   N32        1.0     0.093934     0.771994     0.625259    Uiso  ? N
   N33        1.0     0.884629     0.861206     0.380507    Uiso  ? N
   N34        1.0     0.762361     0.789659     0.118946    Uiso  ? N
   N35        1.0     0.554362     0.875555     0.867329    Uiso  ? N
   N36        1.0     0.458693     0.758798     0.600887    Uiso  ? N
