
#======================================================================
# CRYSTAL DATA
#----------------------------------------------------------------------
data_VESTA_phase_1

_chemical_name_common                  'Al   Hf   Mg   N                      '
_cell_length_a                         9.791955
_cell_length_b                         9.769416
_cell_length_c                         10.049675
_cell_angle_alpha                      89.981400
_cell_angle_beta                       90.146645
_cell_angle_gamma                      59.973301
_cell_volume                           832.341560
_space_group_name_H-M_alt              'P 1'
_space_group_IT_number                 1

loop_
_space_group_symop_operation_xyz
   'x, y, z'

loop_
   _atom_site_label
   _atom_site_occupancy
   _atom_site_fract_x
   _atom_site_fract_y
   _atom_site_fract_z
   _atom_site_adp_type
   _atom_site_U_iso_or_equiv
   _atom_site_type_symbol
   Al1        1.0     0.121266     0.091721     0.307430    Uiso  ? Al
   Al2        1.0     0.221301     0.193429     0.052148    Uiso  ? Al
   Al3        1.0     0.785567     0.089338     0.793175    Uiso  ? Al
   Al4        1.0     0.898199     0.209129     0.564059    Uiso  ? Al
   Al5        1.0     0.434612     0.087442     0.315164    Uiso  ? Al
   Al6        1.0     0.113189     0.093263     0.805275    Uiso  ? Al
   Al7        1.0     0.217578     0.206869     0.560231    Uiso  ? Al
   Al8        1.0     0.895579     0.201238     0.050309    Uiso  ? Al
   Al9        1.0     0.440792     0.086625     0.799123    Uiso  ? Al
   Al10       1.0     0.549704     0.203135     0.555496    Uiso  ? Al
   Al11       1.0     0.114386     0.417990     0.311980    Uiso  ? Al
   Al12       1.0     0.780934     0.428411     0.800404    Uiso  ? Al
   Al13       1.0     0.444579     0.432519     0.317584    Uiso  ? Al
   Al14       1.0     0.560713     0.543127     0.055825    Uiso  ? Al
   Al15       1.0     0.106420     0.426326     0.799139    Uiso  ? Al
   Al16       1.0     0.559203     0.541713     0.554486    Uiso  ? Al
   Al17       1.0     0.222363     0.877325     0.058178    Uiso  ? Al
   Al18       1.0     0.773621     0.765197     0.803986    Uiso  ? Al
   Al19       1.0     0.889427     0.864601     0.565536    Uiso  ? Al
   Al20       1.0     0.442926     0.762713     0.308549    Uiso  ? Al
   Al21       1.0     0.547818     0.872581     0.055885    Uiso  ? Al
   Al22       1.0     0.104621     0.769323     0.803377    Uiso  ? Al
   Al23       1.0     0.772901     0.767616     0.310437    Uiso  ? Al
   Al24       1.0     0.889936     0.878054     0.049790    Uiso  ? Al
   Al25       1.0     0.445679     0.766150     0.804001    Uiso  ? Al
   Al26       1.0     0.557797     0.867925     0.558226    Uiso  ? Al
   Hf1        1.0     0.561273     0.190419     0.066903    Uiso  ? Hf
   Hf2        1.0     0.787581     0.090951     0.330963    Uiso  ? Hf
   Hf3        1.0     0.218561     0.545264     0.087377    Uiso  ? Hf
   Hf4        1.0     0.881367     0.541631     0.079696    Uiso  ? Hf
   Hf5        1.0     0.440950     0.432011     0.803762    Uiso  ? Hf
   Mg1        1.0     0.888698     0.541837     0.553753    Uiso  ? Mg
   Mg2        1.0     0.213584     0.543291     0.546371    Uiso  ? Mg
   Mg3        1.0     0.775167     0.427508     0.317490    Uiso  ? Mg
   Mg4        1.0     0.113987     0.769410     0.318410    Uiso  ? Mg
   Mg5        1.0     0.224239     0.875219     0.558670    Uiso  ? Mg
   N1         1.0     0.222463     0.204515     0.367425    Uiso  ? N
   N2         1.0     0.109049     0.095930     0.110424    Uiso  ? N
   N3         1.0     0.887639     0.203200     0.859358    Uiso  ? N
   N4         1.0     0.774722     0.097190     0.599431    Uiso  ? N
   N5         1.0     0.539739     0.209052     0.356097    Uiso  ? N
   N6         1.0     0.430992     0.083757     0.121503    Uiso  ? N
   N7         1.0     0.225800     0.203415     0.864255    Uiso  ? N
   N8         1.0     0.107457     0.107721     0.622450    Uiso  ? N
   N9         1.0     0.914018     0.197966     0.375307    Uiso  ? N
   N10        1.0     0.796221     0.087972     0.117462    Uiso  ? N
   N11        1.0     0.563835     0.188792     0.857592    Uiso  ? N
   N12        1.0     0.443355     0.092428     0.610208    Uiso  ? N
   N13        1.0     0.227671     0.526181     0.325472    Uiso  ? N
   N14        1.0     0.120231     0.401386     0.115482    Uiso  ? N
   N15        1.0     0.887107     0.541151     0.862736    Uiso  ? N
   N16        1.0     0.770834     0.422391     0.613444    Uiso  ? N
   N17        1.0     0.540624     0.547470     0.366159    Uiso  ? N
   N18        1.0     0.462420     0.427406     0.110621    Uiso  ? N
   N19        1.0     0.206208     0.546369     0.869205    Uiso  ? N
   N20        1.0     0.118991     0.415231     0.615566    Uiso  ? N
   N21        1.0     0.894338     0.548117     0.328257    Uiso  ? N
   N22        1.0     0.771442     0.413572     0.105266    Uiso  ? N
   N23        1.0     0.561889     0.546741     0.865793    Uiso  ? N
   N24        1.0     0.455652     0.420572     0.601517    Uiso  ? N
   N25        1.0     0.234122     0.882307     0.352891    Uiso  ? N
   N26        1.0     0.098891     0.784400     0.105055    Uiso  ? N
   N27        1.0     0.883920     0.877791     0.861054    Uiso  ? N
   N28        1.0     0.767058     0.776410     0.619013    Uiso  ? N
   N29        1.0     0.556988     0.869742     0.365276    Uiso  ? N
   N30        1.0     0.448403     0.757455     0.112302    Uiso  ? N
   N31        1.0     0.225380     0.871844     0.864458    Uiso  ? N
   N32        1.0     0.098097     0.768619     0.619176    Uiso  ? N
   N33        1.0     0.884607     0.860571     0.376544    Uiso  ? N
   N34        1.0     0.762371     0.792188     0.114103    Uiso  ? N
   N35        1.0     0.553410     0.874898     0.866487    Uiso  ? N
   N36        1.0     0.461949     0.752321     0.619061    Uiso  ? N
