
#======================================================================
# CRYSTAL DATA
#----------------------------------------------------------------------
data_VESTA_phase_1

_chemical_name_common                  'Al   Hf   Mg   N                      '
_cell_length_a                         9.874771
_cell_length_b                         9.852852
_cell_length_c                         9.910281
_cell_angle_alpha                      90.065643
_cell_angle_beta                       90.180016
_cell_angle_gamma                      60.086880
_cell_volume                           835.762626
_space_group_name_H-M_alt              'P 1'
_space_group_IT_number                 1

loop_
_space_group_symop_operation_xyz
   'x, y, z'

loop_
   _atom_site_label
   _atom_site_occupancy
   _atom_site_fract_x
   _atom_site_fract_y
   _atom_site_fract_z
   _atom_site_adp_type
   _atom_site_U_iso_or_equiv
   _atom_site_type_symbol
   Al1        1.0     0.123117     0.091647     0.319334    Uiso  ? Al
   Al2        1.0     0.213450     0.199718     0.065989    Uiso  ? Al
   Al3        1.0     0.789583     0.088904     0.811292    Uiso  ? Al
   Al4        1.0     0.904002     0.204063     0.576734    Uiso  ? Al
   Al5        1.0     0.441987     0.089430     0.386920    Uiso  ? Al
   Al6        1.0     0.113045     0.092826     0.820950    Uiso  ? Al
   Al7        1.0     0.216893     0.206350     0.575398    Uiso  ? Al
   Al8        1.0     0.890783     0.204773     0.067847    Uiso  ? Al
   Al9        1.0     0.440731     0.082192     0.876628    Uiso  ? Al
   Al10       1.0     0.554589     0.195591     0.629503    Uiso  ? Al
   Al11       1.0     0.116222     0.418132     0.328796    Uiso  ? Al
   Al12       1.0     0.786524     0.424151     0.814527    Uiso  ? Al
   Al13       1.0     0.442896     0.429159     0.390966    Uiso  ? Al
   Al14       1.0     0.551592     0.544090     0.140966    Uiso  ? Al
   Al15       1.0     0.106133     0.426000     0.814771    Uiso  ? Al
   Al16       1.0     0.564343     0.542826     0.622192    Uiso  ? Al
   Al17       1.0     0.217275     0.880829     0.081202    Uiso  ? Al
   Al18       1.0     0.777930     0.761867     0.826737    Uiso  ? Al
   Al19       1.0     0.893436     0.865860     0.582873    Uiso  ? Al
   Al20       1.0     0.446992     0.760645     0.383616    Uiso  ? Al
   Al21       1.0     0.550841     0.871547     0.138053    Uiso  ? Al
   Al22       1.0     0.104901     0.771234     0.819399    Uiso  ? Al
   Al23       1.0     0.773557     0.761297     0.373441    Uiso  ? Al
   Al24       1.0     0.886948     0.879474     0.062876    Uiso  ? Al
   Al25       1.0     0.447655     0.763992     0.886015    Uiso  ? Al
   Al26       1.0     0.552821     0.870196     0.632999    Uiso  ? Al
   Hf1        1.0     0.554797     0.200295     0.109710    Uiso  ? Hf
   Hf2        1.0     0.784737     0.091776     0.352772    Uiso  ? Hf
   Hf3        1.0     0.218746     0.547409     0.105639    Uiso  ? Hf
   Hf4        1.0     0.877443     0.545033     0.095772    Uiso  ? Hf
   Hf5        1.0     0.436776     0.437385     0.839517    Uiso  ? Hf
   Mg1        1.0     0.895959     0.532679     0.575668    Uiso  ? Mg
   Mg2        1.0     0.207523     0.546656     0.571107    Uiso  ? Mg
   Mg3        1.0     0.778588     0.425072     0.345368    Uiso  ? Mg
   Mg4        1.0     0.114830     0.768849     0.335102    Uiso  ? Mg
   Mg5        1.0     0.222232     0.877100     0.574858    Uiso  ? Mg
   N1         1.0     0.221768     0.204882     0.377395    Uiso  ? N
   N2         1.0     0.105425     0.100278     0.123537    Uiso  ? N
   N3         1.0     0.887170     0.203892     0.873255    Uiso  ? N
   N4         1.0     0.778718     0.095505     0.611304    Uiso  ? N
   N5         1.0     0.535837     0.213753     0.327181    Uiso  ? N
   N6         1.0     0.435259     0.080487     0.075069    Uiso  ? N
   N7         1.0     0.216104     0.208511     0.874616    Uiso  ? N
   N8         1.0     0.110259     0.105230     0.635199    Uiso  ? N
   N9         1.0     0.916884     0.193046     0.386248    Uiso  ? N
   N10        1.0     0.794909     0.088154     0.130483    Uiso  ? N
   N11        1.0     0.561519     0.186954     0.838761    Uiso  ? N
   N12        1.0     0.449204     0.088542     0.581716    Uiso  ? N
   N13        1.0     0.231589     0.524479     0.343762    Uiso  ? N
   N14        1.0     0.119430     0.405517     0.130023    Uiso  ? N
   N15        1.0     0.888542     0.537658     0.871762    Uiso  ? N
   N16        1.0     0.780895     0.414435     0.620504    Uiso  ? N
   N17        1.0     0.535431     0.544041     0.332005    Uiso  ? N
   N18        1.0     0.457287     0.435155     0.061247    Uiso  ? N
   N19        1.0     0.196823     0.552418     0.879349    Uiso  ? N
   N20        1.0     0.122964     0.411394     0.629151    Uiso  ? N
   N21        1.0     0.895543     0.547306     0.347928    Uiso  ? N
   N22        1.0     0.768027     0.416434     0.118879    Uiso  ? N
   N23        1.0     0.560061     0.554185     0.822165    Uiso  ? N
   N24        1.0     0.458624     0.417986     0.597404    Uiso  ? N
   N25        1.0     0.234898     0.882215     0.357341    Uiso  ? N
   N26        1.0     0.096051     0.784677     0.119485    Uiso  ? N
   N27        1.0     0.885417     0.879383     0.869125    Uiso  ? N
   N28        1.0     0.772581     0.771130     0.617340    Uiso  ? N
   N29        1.0     0.556201     0.873685     0.331238    Uiso  ? N
   N30        1.0     0.451274     0.756828     0.081563    Uiso  ? N
   N31        1.0     0.219669     0.875603     0.879884    Uiso  ? N
   N32        1.0     0.100064     0.770609     0.631964    Uiso  ? N
   N33        1.0     0.886433     0.861962     0.390287    Uiso  ? N
   N34        1.0     0.763286     0.787625     0.095728    Uiso  ? N
   N35        1.0     0.550060     0.872297     0.827012    Uiso  ? N
   N36        1.0     0.467271     0.750555     0.573098    Uiso  ? N
