
#======================================================================
# CRYSTAL DATA
#----------------------------------------------------------------------
data_VESTA_phase_1

_chemical_name_common                  'Al   Hf   Mg   N '
_cell_length_a                         9.772647
_cell_length_b                         9.772418
_cell_length_c                         10.051156
_cell_angle_alpha                      90.017242
_cell_angle_beta                       90.116699
_cell_angle_gamma                      59.982609
_cell_volume                           831.158223
_space_group_name_H-M_alt              'P 1'
_space_group_IT_number                 1

loop_
_space_group_symop_operation_xyz
   'x, y, z'

loop_
   _atom_site_label
   _atom_site_occupancy
   _atom_site_fract_x
   _atom_site_fract_y
   _atom_site_fract_z
   _atom_site_adp_type
   _atom_site_U_iso_or_equiv
   _atom_site_type_symbol
   Al1        1.0     0.119448     0.092532     0.403365    Uiso  ? Al
   Al2        1.0     0.222147     0.193773     0.154842    Uiso  ? Al
   Al3        1.0     0.788014     0.087117     0.893833    Uiso  ? Al
   Al4        1.0     0.894427     0.208468     0.656009    Uiso  ? Al
   Al5        1.0     0.439045     0.089935     0.405980    Uiso  ? Al
   Al6        1.0     0.114873     0.090777     0.899828    Uiso  ? Al
   Al7        1.0     0.217475     0.205806     0.647169    Uiso  ? Al
   Al8        1.0     0.898813     0.199428     0.146618    Uiso  ? Al
   Al9        1.0     0.438332     0.083710     0.894582    Uiso  ? Al
   Al10       1.0     0.557430     0.193298     0.653231    Uiso  ? Al
   Al11       1.0     0.114687     0.421874     0.408335    Uiso  ? Al
   Al12       1.0     0.779033     0.425788     0.893549    Uiso  ? Al
   Al13       1.0     0.442236     0.432593     0.417227    Uiso  ? Al
   Al14       1.0     0.554745     0.542495     0.156600    Uiso  ? Al
   Al15       1.0     0.109448     0.421151     0.893877    Uiso  ? Al
   Al16       1.0     0.567234     0.543260     0.645210    Uiso  ? Al
   Al17       1.0     0.224289     0.879745     0.151048    Uiso  ? Al
   Al18       1.0     0.770908     0.769141     0.896437    Uiso  ? Al
   Al19       1.0     0.889209     0.868747     0.656179    Uiso  ? Al
   Al20       1.0     0.444421     0.761762     0.400517    Uiso  ? Al
   Al21       1.0     0.549994     0.871140     0.154489    Uiso  ? Al
   Al22       1.0     0.104365     0.773811     0.894067    Uiso  ? Al
   Al23       1.0     0.777515     0.762596     0.404889    Uiso  ? Al
   Al24       1.0     0.887662     0.875913     0.147299    Uiso  ? Al
   Al25       1.0     0.443911     0.767124     0.901975    Uiso  ? Al
   Al26       1.0     0.556924     0.868860     0.646952    Uiso  ? Al
   Hf1        1.0     0.556007     0.199219     0.138549    Uiso  ? Hf
   Hf2        1.0     0.786104     0.091919     0.406262    Uiso  ? Hf
   Hf3        1.0     0.222402     0.543749     0.144328    Uiso  ? Hf
   Hf4        1.0     0.883304     0.541272     0.133413    Uiso  ? Hf
   Hf5        1.0     0.443225     0.433063     0.862179    Uiso  ? Hf
   Mg1        1.0     0.888200     0.540276     0.650166    Uiso  ? Mg
   Mg2        1.0     0.204648     0.548730     0.641852    Uiso  ? Mg
   Mg3        1.0     0.781257     0.429167     0.404992    Uiso  ? Mg
   Mg4        1.0     0.114802     0.764000     0.404657    Uiso  ? Mg
   Mg5        1.0     0.223980     0.872848     0.648254    Uiso  ? Mg
   N1         1.0     0.226054     0.203484     0.342510    Uiso  ? N
   N2         1.0     0.112153     0.095870     0.090143    Uiso  ? N
   N3         1.0     0.891974     0.202951     0.848727    Uiso  ? N
   N4         1.0     0.776741     0.095341     0.613393    Uiso  ? N
   N5         1.0     0.543832     0.211646     0.348905    Uiso  ? N
   N6         1.0     0.433479     0.082774     0.087519    Uiso  ? N
   N7         1.0     0.222001     0.203179     0.841019    Uiso  ? N
   N8         1.0     0.103966     0.107199     0.590794    Uiso  ? N
   N9         1.0     0.908224     0.195743     0.333042    Uiso  ? N
   N10        1.0     0.792107     0.089465     0.089420    Uiso  ? N
   N11        1.0     0.562656     0.183649     0.853366    Uiso  ? N
   N12        1.0     0.443455     0.092011     0.595973    Uiso  ? N
   N13        1.0     0.234403     0.520547     0.349750    Uiso  ? N
   N14        1.0     0.124919     0.404806     0.088204    Uiso  ? N
   N15        1.0     0.886726     0.541671     0.875547    Uiso  ? N
   N16        1.0     0.776163     0.417427     0.607039    Uiso  ? N
   N17        1.0     0.539380     0.542623     0.343318    Uiso  ? N
   N18        1.0     0.455716     0.433308     0.079913    Uiso  ? N
   N19        1.0     0.201436     0.550288     0.866685    Uiso  ? N
   N20        1.0     0.116852     0.412087     0.592016    Uiso  ? N
   N21        1.0     0.898760     0.548353     0.339950    Uiso  ? N
   N22        1.0     0.767031     0.416505     0.091191    Uiso  ? N
   N23        1.0     0.564032     0.554197     0.840260    Uiso  ? N
   N24        1.0     0.457647     0.419282     0.619107    Uiso  ? N
   N25        1.0     0.233239     0.881750     0.338423    Uiso  ? N
   N26        1.0     0.101441     0.781485     0.092555    Uiso  ? N
   N27        1.0     0.885533     0.872706     0.848477    Uiso  ? N
   N28        1.0     0.768808     0.779168     0.593252    Uiso  ? N
   N29        1.0     0.557040     0.872836     0.343012    Uiso  ? N
   N30        1.0     0.449390     0.757351     0.094648    Uiso  ? N
   N31        1.0     0.225929     0.872105     0.858886    Uiso  ? N
   N32        1.0     0.092041     0.776206     0.602913    Uiso  ? N
   N33        1.0     0.878922     0.869100     0.332312    Uiso  ? N
   N34        1.0     0.762575     0.785539     0.088171    Uiso  ? N
   N35        1.0     0.553824     0.871296     0.840397    Uiso  ? N
   N36        1.0     0.461403     0.753538     0.587334    Uiso  ? N
