
#======================================================================
# CRYSTAL DATA
#----------------------------------------------------------------------
data_VESTA_phase_1

_chemical_name_common                  'Al   Hf   Mg   N                      '
_cell_length_a                         9.803387
_cell_length_b                         9.791212
_cell_length_c                         10.032743
_cell_angle_alpha                      90.100410
_cell_angle_beta                       90.287598
_cell_angle_gamma                      59.903229
_cell_volume                           833.168664
_space_group_name_H-M_alt              'P 1'
_space_group_IT_number                 1

loop_
_space_group_symop_operation_xyz
   'x, y, z'

loop_
   _atom_site_label
   _atom_site_occupancy
   _atom_site_fract_x
   _atom_site_fract_y
   _atom_site_fract_z
   _atom_site_adp_type
   _atom_site_U_iso_or_equiv
   _atom_site_type_symbol
   Al1        1.0     0.120725     0.091675     0.313777    Uiso  ? Al
   Al2        1.0     0.221920     0.193319     0.059725    Uiso  ? Al
   Al3        1.0     0.787841     0.087882     0.799781    Uiso  ? Al
   Al4        1.0     0.898257     0.208925     0.570157    Uiso  ? Al
   Al5        1.0     0.434841     0.087789     0.321891    Uiso  ? Al
   Al6        1.0     0.113095     0.093445     0.812297    Uiso  ? Al
   Al7        1.0     0.216692     0.206193     0.566737    Uiso  ? Al
   Al8        1.0     0.895196     0.202073     0.057170    Uiso  ? Al
   Al9        1.0     0.440166     0.085125     0.805220    Uiso  ? Al
   Al10       1.0     0.553056     0.195907     0.569142    Uiso  ? Al
   Al11       1.0     0.115344     0.417263     0.319194    Uiso  ? Al
   Al12       1.0     0.782850     0.428644     0.806879    Uiso  ? Al
   Al13       1.0     0.439831     0.431571     0.379396    Uiso  ? Al
   Al14       1.0     0.562337     0.543488     0.055455    Uiso  ? Al
   Al15       1.0     0.105973     0.426423     0.807267    Uiso  ? Al
   Al16       1.0     0.562168     0.545734     0.565446    Uiso  ? Al
   Al17       1.0     0.222832     0.876989     0.065303    Uiso  ? Al
   Al18       1.0     0.773911     0.765581     0.811319    Uiso  ? Al
   Al19       1.0     0.888146     0.866326     0.571748    Uiso  ? Al
   Al20       1.0     0.442967     0.761343     0.314795    Uiso  ? Al
   Al21       1.0     0.548210     0.872157     0.063693    Uiso  ? Al
   Al22       1.0     0.104143     0.770041     0.811451    Uiso  ? Al
   Al23       1.0     0.773139     0.767656     0.316995    Uiso  ? Al
   Al24       1.0     0.892016     0.876881     0.057658    Uiso  ? Al
   Al25       1.0     0.445521     0.768415     0.810016    Uiso  ? Al
   Al26       1.0     0.557513     0.868381     0.563692    Uiso  ? Al
   Hf1        1.0     0.563044     0.187264     0.065254    Uiso  ? Hf
   Hf2        1.0     0.785240     0.092399     0.336357    Uiso  ? Hf
   Hf3        1.0     0.224632     0.542136     0.096481    Uiso  ? Hf
   Hf4        1.0     0.883026     0.541677     0.087022    Uiso  ? Hf
   Hf5        1.0     0.440914     0.433062     0.815426    Uiso  ? Hf
   Mg1        1.0     0.887499     0.541995     0.559638    Uiso  ? Mg
   Mg2        1.0     0.202078     0.548755     0.563094    Uiso  ? Mg
   Mg3        1.0     0.773375     0.427921     0.322728    Uiso  ? Mg
   Mg4        1.0     0.114368     0.769219     0.325565    Uiso  ? Mg
   Mg5        1.0     0.223630     0.876176     0.564850    Uiso  ? Mg
   N1         1.0     0.222190     0.204147     0.373982    Uiso  ? N
   N2         1.0     0.109099     0.096218     0.116946    Uiso  ? N
   N3         1.0     0.887615     0.203700     0.865999    Uiso  ? N
   N4         1.0     0.776246     0.096710     0.607061    Uiso  ? N
   N5         1.0     0.539621     0.207128     0.369637    Uiso  ? N
   N6         1.0     0.431610     0.083893     0.128296    Uiso  ? N
   N7         1.0     0.225886     0.203345     0.871382    Uiso  ? N
   N8         1.0     0.107007     0.107597     0.629043    Uiso  ? N
   N9         1.0     0.912789     0.198032     0.381144    Uiso  ? N
   N10        1.0     0.796225     0.088512     0.123124    Uiso  ? N
   N11        1.0     0.565472     0.184718     0.855139    Uiso  ? N
   N12        1.0     0.441743     0.090541     0.616938    Uiso  ? N
   N13        1.0     0.230166     0.524711     0.334370    Uiso  ? N
   N14        1.0     0.122417     0.401457     0.122559    Uiso  ? N
   N15        1.0     0.887486     0.541670     0.869996    Uiso  ? N
   N16        1.0     0.772496     0.421751     0.620179    Uiso  ? N
   N17        1.0     0.540659     0.547875     0.376098    Uiso  ? N
   N18        1.0     0.463315     0.424178     0.070646    Uiso  ? N
   N19        1.0     0.203488     0.548412     0.872614    Uiso  ? N
   N20        1.0     0.116189     0.413796     0.623276    Uiso  ? N
   N21        1.0     0.894706     0.547796     0.334872    Uiso  ? N
   N22        1.0     0.771146     0.415112     0.110949    Uiso  ? N
   N23        1.0     0.564290     0.550199     0.864881    Uiso  ? N
   N24        1.0     0.452236     0.421889     0.599681    Uiso  ? N
   N25        1.0     0.234176     0.882310     0.358863    Uiso  ? N
   N26        1.0     0.101482     0.782327     0.112002    Uiso  ? N
   N27        1.0     0.884306     0.877755     0.868776    Uiso  ? N
   N28        1.0     0.766921     0.777071     0.625457    Uiso  ? N
   N29        1.0     0.557097     0.869203     0.370845    Uiso  ? N
   N30        1.0     0.449563     0.755603     0.118382    Uiso  ? N
   N31        1.0     0.225603     0.872321     0.871231    Uiso  ? N
   N32        1.0     0.095661     0.772974     0.626722    Uiso  ? N
   N33        1.0     0.884084     0.861723     0.382494    Uiso  ? N
   N34        1.0     0.763385     0.791892     0.120864    Uiso  ? N
   N35        1.0     0.553835     0.875110     0.873981    Uiso  ? N
   N36        1.0     0.460622     0.755815     0.625100    Uiso  ? N
