
#======================================================================
# CRYSTAL DATA
#----------------------------------------------------------------------
data_VESTA_phase_1

_chemical_name_common                  'Al   Hf   Mg   N                      '
_cell_length_a                         9.791955
_cell_length_b                         9.769417
_cell_length_c                         10.049674
_cell_angle_alpha                      89.981422
_cell_angle_beta                       90.146614
_cell_angle_gamma                      59.973289
_cell_volume                           832.341469
_space_group_name_H-M_alt              'P 1'
_space_group_IT_number                 1

loop_
_space_group_symop_operation_xyz
   'x, y, z'

loop_
   _atom_site_label
   _atom_site_occupancy
   _atom_site_fract_x
   _atom_site_fract_y
   _atom_site_fract_z
   _atom_site_adp_type
   _atom_site_U_iso_or_equiv
   _atom_site_type_symbol
   Al1        1.0     0.121281     0.091715     0.309916    Uiso  ? Al
   Al2        1.0     0.221315     0.193424     0.054642    Uiso  ? Al
   Al3        1.0     0.785582     0.089332     0.795664    Uiso  ? Al
   Al4        1.0     0.898213     0.209124     0.566545    Uiso  ? Al
   Al5        1.0     0.434627     0.087437     0.317650    Uiso  ? Al
   Al6        1.0     0.113203     0.093258     0.807761    Uiso  ? Al
   Al7        1.0     0.217594     0.206863     0.562721    Uiso  ? Al
   Al8        1.0     0.895594     0.201233     0.052797    Uiso  ? Al
   Al9        1.0     0.440805     0.086620     0.801610    Uiso  ? Al
   Al10       1.0     0.549719     0.203129     0.557989    Uiso  ? Al
   Al11       1.0     0.114400     0.417985     0.314476    Uiso  ? Al
   Al12       1.0     0.780949     0.428405     0.802895    Uiso  ? Al
   Al13       1.0     0.444594     0.432514     0.320073    Uiso  ? Al
   Al14       1.0     0.560728     0.543121     0.058311    Uiso  ? Al
   Al15       1.0     0.106435     0.426319     0.801630    Uiso  ? Al
   Al16       1.0     0.559218     0.541707     0.556976    Uiso  ? Al
   Al17       1.0     0.222377     0.877319     0.060661    Uiso  ? Al
   Al18       1.0     0.773635     0.765191     0.806472    Uiso  ? Al
   Al19       1.0     0.889441     0.864595     0.568019    Uiso  ? Al
   Al20       1.0     0.442940     0.762707     0.311032    Uiso  ? Al
   Al21       1.0     0.547833     0.872575     0.058370    Uiso  ? Al
   Al22       1.0     0.104634     0.769317     0.805866    Uiso  ? Al
   Al23       1.0     0.772915     0.767610     0.312925    Uiso  ? Al
   Al24       1.0     0.889950     0.878048     0.052278    Uiso  ? Al
   Al25       1.0     0.445694     0.766144     0.806488    Uiso  ? Al
   Al26       1.0     0.557811     0.867919     0.560710    Uiso  ? Al
   Hf1        1.0     0.561287     0.190413     0.069391    Uiso  ? Hf
   Hf2        1.0     0.787593     0.090947     0.333451    Uiso  ? Hf
   Hf3        1.0     0.218575     0.545259     0.089870    Uiso  ? Hf
   Hf4        1.0     0.881382     0.541624     0.082185    Uiso  ? Hf
   Hf5        1.0     0.440964     0.432005     0.806254    Uiso  ? Hf
   Mg1        1.0     0.888713     0.541832     0.556244    Uiso  ? Mg
   Mg2        1.0     0.213600     0.543285     0.548863    Uiso  ? Mg
   Mg3        1.0     0.775181     0.427504     0.319980    Uiso  ? Mg
   Mg4        1.0     0.114003     0.769406     0.320899    Uiso  ? Mg
   Mg5        1.0     0.224255     0.875212     0.561159    Uiso  ? Mg
   N1         1.0     0.222478     0.204509     0.369914    Uiso  ? N
   N2         1.0     0.109063     0.095923     0.112913    Uiso  ? N
   N3         1.0     0.887654     0.203193     0.861846    Uiso  ? N
   N4         1.0     0.774737     0.097184     0.601919    Uiso  ? N
   N5         1.0     0.539753     0.209047     0.358588    Uiso  ? N
   N6         1.0     0.431008     0.083751     0.123991    Uiso  ? N
   N7         1.0     0.225815     0.203409     0.866746    Uiso  ? N
   N8         1.0     0.107471     0.107716     0.624937    Uiso  ? N
   N9         1.0     0.914032     0.197961     0.377794    Uiso  ? N
   N10        1.0     0.796235     0.087966     0.119950    Uiso  ? N
   N11        1.0     0.563850     0.188785     0.860081    Uiso  ? N
   N12        1.0     0.443370     0.092421     0.612696    Uiso  ? N
   N13        1.0     0.227686     0.526176     0.327963    Uiso  ? N
   N14        1.0     0.120245     0.401380     0.117976    Uiso  ? N
   N15        1.0     0.887121     0.541146     0.865225    Uiso  ? N
   N16        1.0     0.770849     0.422385     0.615934    Uiso  ? N
   N17        1.0     0.540638     0.547465     0.368649    Uiso  ? N
   N18        1.0     0.462435     0.427401     0.113110    Uiso  ? N
   N19        1.0     0.206221     0.546364     0.871696    Uiso  ? N
   N20        1.0     0.119007     0.415225     0.618057    Uiso  ? N
   N21        1.0     0.894352     0.548112     0.330750    Uiso  ? N
   N22        1.0     0.771456     0.413566     0.107754    Uiso  ? N
   N23        1.0     0.561904     0.546735     0.868281    Uiso  ? N
   N24        1.0     0.455666     0.420566     0.604010    Uiso  ? N
   N25        1.0     0.234137     0.882302     0.355381    Uiso  ? N
   N26        1.0     0.098905     0.784395     0.107543    Uiso  ? N
   N27        1.0     0.883934     0.877785     0.863543    Uiso  ? N
   N28        1.0     0.767073     0.776405     0.621500    Uiso  ? N
   N29        1.0     0.557002     0.869737     0.367762    Uiso  ? N
   N30        1.0     0.448417     0.757449     0.114787    Uiso  ? N
   N31        1.0     0.225394     0.871839     0.866943    Uiso  ? N
   N32        1.0     0.098110     0.768614     0.621664    Uiso  ? N
   N33        1.0     0.884622     0.860566     0.379028    Uiso  ? N
   N34        1.0     0.762386     0.792181     0.116590    Uiso  ? N
   N35        1.0     0.553424     0.874893     0.868973    Uiso  ? N
   N36        1.0     0.461964     0.752316     0.621549    Uiso  ? N
