
#======================================================================
# CRYSTAL DATA
#----------------------------------------------------------------------
data_VESTA_phase_1

_chemical_name_common                  'Al   Hf   Mg   N                      '
_cell_length_a                         9.838494
_cell_length_b                         9.809793
_cell_length_c                         10.004485
_cell_angle_alpha                      90.213272
_cell_angle_beta                       90.468163
_cell_angle_gamma                      60.091488
_cell_volume                           836.948969
_space_group_name_H-M_alt              'P 1'
_space_group_IT_number                 1

loop_
_space_group_symop_operation_xyz
   'x, y, z'

loop_
   _atom_site_label
   _atom_site_occupancy
   _atom_site_fract_x
   _atom_site_fract_y
   _atom_site_fract_z
   _atom_site_adp_type
   _atom_site_U_iso_or_equiv
   _atom_site_type_symbol
   Al1        1.0     0.121208     0.091774     0.321066    Uiso  ? Al
   Al2        1.0     0.220004     0.195428     0.067673    Uiso  ? Al
   Al3        1.0     0.787494     0.087798     0.808249    Uiso  ? Al
   Al4        1.0     0.901953     0.204586     0.577991    Uiso  ? Al
   Al5        1.0     0.433096     0.094587     0.331247    Uiso  ? Al
   Al6        1.0     0.114043     0.092346     0.821879    Uiso  ? Al
   Al7        1.0     0.217272     0.206551     0.575009    Uiso  ? Al
   Al8        1.0     0.892820     0.203869     0.065770    Uiso  ? Al
   Al9        1.0     0.440450     0.082236     0.812595    Uiso  ? Al
   Al10       1.0     0.555098     0.197179     0.577586    Uiso  ? Al
   Al11       1.0     0.114918     0.418046     0.327667    Uiso  ? Al
   Al12       1.0     0.787623     0.424459     0.813766    Uiso  ? Al
   Al13       1.0     0.441130     0.433347     0.393636    Uiso  ? Al
   Al14       1.0     0.552344     0.539269     0.143206    Uiso  ? Al
   Al15       1.0     0.105800     0.426468     0.816096    Uiso  ? Al
   Al16       1.0     0.564350     0.545792     0.626134    Uiso  ? Al
   Al17       1.0     0.216223     0.879592     0.080623    Uiso  ? Al
   Al18       1.0     0.771270     0.766989     0.819895    Uiso  ? Al
   Al19       1.0     0.889719     0.867017     0.580089    Uiso  ? Al
   Al20       1.0     0.445233     0.758926     0.384103    Uiso  ? Al
   Al21       1.0     0.548346     0.873671     0.101448    Uiso  ? Al
   Al22       1.0     0.102479     0.771084     0.820969    Uiso  ? Al
   Al23       1.0     0.778840     0.765437     0.326263    Uiso  ? Al
   Al24       1.0     0.891023     0.876069     0.065226    Uiso  ? Al
   Al25       1.0     0.447389     0.763423     0.889140    Uiso  ? Al
   Al26       1.0     0.562179     0.870730     0.573248    Uiso  ? Al
   Hf1        1.0     0.562796     0.187914     0.069572    Uiso  ? Hf
   Hf2        1.0     0.784875     0.092140     0.343070    Uiso  ? Hf
   Hf3        1.0     0.223338     0.541620     0.104858    Uiso  ? Hf
   Hf4        1.0     0.879151     0.540804     0.092995    Uiso  ? Hf
   Hf5        1.0     0.436932     0.434103     0.829807    Uiso  ? Hf
   Mg1        1.0     0.891362     0.542101     0.568887    Uiso  ? Mg
   Mg2        1.0     0.203199     0.548939     0.571764    Uiso  ? Mg
   Mg3        1.0     0.779672     0.425578     0.345387    Uiso  ? Mg
   Mg4        1.0     0.115070     0.767601     0.333864    Uiso  ? Mg
   Mg5        1.0     0.219923     0.878171     0.576624    Uiso  ? Mg
   N1         1.0     0.221179     0.205274     0.382256    Uiso  ? N
   N2         1.0     0.106589     0.099115     0.124963    Uiso  ? N
   N3         1.0     0.887707     0.203717     0.873720    Uiso  ? N
   N4         1.0     0.777641     0.096273     0.615496    Uiso  ? N
   N5         1.0     0.540869     0.209001     0.378459    Uiso  ? N
   N6         1.0     0.428054     0.091411     0.137694    Uiso  ? N
   N7         1.0     0.226347     0.203429     0.879147    Uiso  ? N
   N8         1.0     0.109151     0.106936     0.637970    Uiso  ? N
   N9         1.0     0.915326     0.193470     0.389116    Uiso  ? N
   N10        1.0     0.794764     0.088168     0.129267    Uiso  ? N
   N11        1.0     0.565438     0.184278     0.859870    Uiso  ? N
   N12        1.0     0.442944     0.090988     0.622444    Uiso  ? N
   N13        1.0     0.232108     0.522714     0.342883    Uiso  ? N
   N14        1.0     0.118272     0.403859     0.130033    Uiso  ? N
   N15        1.0     0.886923     0.540738     0.876343    Uiso  ? N
   N16        1.0     0.781117     0.417279     0.622088    Uiso  ? N
   N17        1.0     0.536485     0.542736     0.331868    Uiso  ? N
   N18        1.0     0.461979     0.426738     0.063908    Uiso  ? N
   N19        1.0     0.198946     0.551129     0.881449    Uiso  ? N
   N20        1.0     0.119342     0.413037     0.632151    Uiso  ? N
   N21        1.0     0.896569     0.547629     0.347546    Uiso  ? N
   N22        1.0     0.769953     0.414089     0.120821    Uiso  ? N
   N23        1.0     0.559894     0.553581     0.824513    Uiso  ? N
   N24        1.0     0.454492     0.424199     0.601990    Uiso  ? N
   N25        1.0     0.232741     0.882639     0.361047    Uiso  ? N
   N26        1.0     0.098786     0.780656     0.121412    Uiso  ? N
   N27        1.0     0.883384     0.878032     0.876267    Uiso  ? N
   N28        1.0     0.769513     0.776401     0.632428    Uiso  ? N
   N29        1.0     0.559565     0.873255     0.363406    Uiso  ? N
   N30        1.0     0.447986     0.753038     0.086420    Uiso  ? N
   N31        1.0     0.218969     0.875263     0.881929    Uiso  ? N
   N32        1.0     0.096062     0.772562     0.635415    Uiso  ? N
   N33        1.0     0.886155     0.862512     0.390923    Uiso  ? N
   N34        1.0     0.767197     0.788597     0.130627    Uiso  ? N
   N35        1.0     0.556018     0.876123     0.879753    Uiso  ? N
   N36        1.0     0.464269     0.751352     0.575626    Uiso  ? N
