
#======================================================================
# CRYSTAL DATA
#----------------------------------------------------------------------
data_VESTA_phase_1

_chemical_name_common                  'Al   Hf   Mg   N                      '
_cell_length_a                         9.829520
_cell_length_b                         9.801579
_cell_length_c                         9.981435
_cell_angle_alpha                      90.154144
_cell_angle_beta                       90.132797
_cell_angle_gamma                      59.888805
_cell_volume                           831.883373
_space_group_name_H-M_alt              'P 1'
_space_group_IT_number                 1

loop_
_space_group_symop_operation_xyz
   'x, y, z'

loop_
   _atom_site_label
   _atom_site_occupancy
   _atom_site_fract_x
   _atom_site_fract_y
   _atom_site_fract_z
   _atom_site_adp_type
   _atom_site_U_iso_or_equiv
   _atom_site_type_symbol
   Al1        1.0     0.119172     0.095599     0.391087    Uiso  ? Al
   Al2        1.0     0.221505     0.194849     0.141086    Uiso  ? Al
   Al3        1.0     0.788499     0.088296     0.880616    Uiso  ? Al
   Al4        1.0     0.894613     0.208512     0.643470    Uiso  ? Al
   Al5        1.0     0.438445     0.090487     0.392539    Uiso  ? Al
   Al6        1.0     0.115638     0.087492     0.887586    Uiso  ? Al
   Al7        1.0     0.216981     0.205091     0.636295    Uiso  ? Al
   Al8        1.0     0.900646     0.200140     0.133705    Uiso  ? Al
   Al9        1.0     0.436821     0.083688     0.882400    Uiso  ? Al
   Al10       1.0     0.557033     0.192942     0.641796    Uiso  ? Al
   Al11       1.0     0.112861     0.421142     0.396379    Uiso  ? Al
   Al12       1.0     0.778510     0.425954     0.881606    Uiso  ? Al
   Al13       1.0     0.443878     0.431504     0.404483    Uiso  ? Al
   Al14       1.0     0.554866     0.542762     0.143462    Uiso  ? Al
   Al15       1.0     0.109492     0.421931     0.880870    Uiso  ? Al
   Al16       1.0     0.568439     0.541395     0.633638    Uiso  ? Al
   Al17       1.0     0.223927     0.878552     0.144517    Uiso  ? Al
   Al18       1.0     0.769913     0.769060     0.882190    Uiso  ? Al
   Al19       1.0     0.880081     0.872660     0.635616    Uiso  ? Al
   Al20       1.0     0.447323     0.760700     0.388421    Uiso  ? Al
   Al21       1.0     0.549783     0.871717     0.141949    Uiso  ? Al
   Al22       1.0     0.105919     0.769652     0.819200    Uiso  ? Al
   Al23       1.0     0.775795     0.763306     0.393867    Uiso  ? Al
   Al24       1.0     0.891535     0.875398     0.123132    Uiso  ? Al
   Al25       1.0     0.441526     0.767279     0.890613    Uiso  ? Al
   Al26       1.0     0.556031     0.868126     0.636246    Uiso  ? Al
   Hf1        1.0     0.555199     0.199388     0.121652    Uiso  ? Hf
   Hf2        1.0     0.780748     0.099633     0.389440    Uiso  ? Hf
   Hf3        1.0     0.222116     0.545074     0.138772    Uiso  ? Hf
   Hf4        1.0     0.883311     0.542845     0.120073    Uiso  ? Hf
   Hf5        1.0     0.441244     0.434823     0.851633    Uiso  ? Hf
   Mg1        1.0     0.887881     0.537512     0.640227    Uiso  ? Mg
   Mg2        1.0     0.212342     0.536778     0.619042    Uiso  ? Mg
   Mg3        1.0     0.781695     0.430058     0.391665    Uiso  ? Mg
   Mg4        1.0     0.113162     0.767832     0.394047    Uiso  ? Mg
   Mg5        1.0     0.230856     0.876545     0.629178    Uiso  ? Mg
   N1         1.0     0.225996     0.204313     0.330039    Uiso  ? N
   N2         1.0     0.113879     0.093922     0.078822    Uiso  ? N
   N3         1.0     0.892426     0.202722     0.836686    Uiso  ? N
   N4         1.0     0.775655     0.095856     0.599069    Uiso  ? N
   N5         1.0     0.539585     0.213264     0.333135    Uiso  ? N
   N6         1.0     0.432520     0.082925     0.075703    Uiso  ? N
   N7         1.0     0.221291     0.202315     0.830233    Uiso  ? N
   N8         1.0     0.102870     0.108518     0.579183    Uiso  ? N
   N9         1.0     0.910488     0.197169     0.320807    Uiso  ? N
   N10        1.0     0.792229     0.091964     0.078328    Uiso  ? N
   N11        1.0     0.561707     0.184544     0.843233    Uiso  ? N
   N12        1.0     0.443434     0.091546     0.584557    Uiso  ? N
   N13        1.0     0.232700     0.522647     0.349335    Uiso  ? N
   N14        1.0     0.124082     0.406922     0.076660    Uiso  ? N
   N15        1.0     0.886332     0.541266     0.863745    Uiso  ? N
   N16        1.0     0.775989     0.416329     0.594888    Uiso  ? N
   N17        1.0     0.539935     0.541766     0.331335    Uiso  ? N
   N18        1.0     0.454321     0.435003     0.069278    Uiso  ? N
   N19        1.0     0.201878     0.547772     0.847615    Uiso  ? N
   N20        1.0     0.113782     0.409949     0.580739    Uiso  ? N
   N21        1.0     0.898245     0.549533     0.328351    Uiso  ? N
   N22        1.0     0.767551     0.417553     0.079549    Uiso  ? N
   N23        1.0     0.563597     0.553829     0.829180    Uiso  ? N
   N24        1.0     0.460813     0.416769     0.605931    Uiso  ? N
   N25        1.0     0.235497     0.883183     0.334881    Uiso  ? N
   N26        1.0     0.106038     0.778528     0.107008    Uiso  ? N
   N27        1.0     0.883339     0.873979     0.839289    Uiso  ? N
   N28        1.0     0.767554     0.774917     0.584410    Uiso  ? N
   N29        1.0     0.557353     0.872659     0.331596    Uiso  ? N
   N30        1.0     0.448572     0.758460     0.084452    Uiso  ? N
   N31        1.0     0.226674     0.870726     0.842039    Uiso  ? N
   N32        1.0     0.094989     0.773169     0.615516    Uiso  ? N
   N33        1.0     0.877199     0.872533     0.333563    Uiso  ? N
   N34        1.0     0.761891     0.787306     0.076171    Uiso  ? N
   N35        1.0     0.552112     0.871164     0.829648    Uiso  ? N
   N36        1.0     0.464775     0.750761     0.575662    Uiso  ? N
