
#======================================================================
# CRYSTAL DATA
#----------------------------------------------------------------------
data_VESTA_phase_1

_chemical_name_common                  'Al   Hf   Mg   N                      '
_cell_length_a                         9.830775
_cell_length_b                         9.812901
_cell_length_c                         10.014297
_cell_angle_alpha                      90.117020
_cell_angle_beta                       90.319702
_cell_angle_gamma                      60.051071
_cell_volume                           837.052377
_space_group_name_H-M_alt              'P 1'
_space_group_IT_number                 1

loop_
_space_group_symop_operation_xyz
   'x, y, z'

loop_
   _atom_site_label
   _atom_site_occupancy
   _atom_site_fract_x
   _atom_site_fract_y
   _atom_site_fract_z
   _atom_site_adp_type
   _atom_site_U_iso_or_equiv
   _atom_site_type_symbol
   Al1        1.0     0.122069     0.091550     0.319160    Uiso  ? Al
   Al2        1.0     0.221236     0.194393     0.065842    Uiso  ? Al
   Al3        1.0     0.786716     0.087750     0.806973    Uiso  ? Al
   Al4        1.0     0.901921     0.204920     0.576023    Uiso  ? Al
   Al5        1.0     0.435460     0.090065     0.326413    Uiso  ? Al
   Al6        1.0     0.113303     0.092834     0.819513    Uiso  ? Al
   Al7        1.0     0.218437     0.205859     0.572913    Uiso  ? Al
   Al8        1.0     0.893148     0.203927     0.064030    Uiso  ? Al
   Al9        1.0     0.440745     0.083496     0.811356    Uiso  ? Al
   Al10       1.0     0.554416     0.196878     0.573768    Uiso  ? Al
   Al11       1.0     0.116016     0.417411     0.325661    Uiso  ? Al
   Al12       1.0     0.787781     0.424264     0.811701    Uiso  ? Al
   Al13       1.0     0.441180     0.433923     0.390660    Uiso  ? Al
   Al14       1.0     0.551618     0.542597     0.141154    Uiso  ? Al
   Al15       1.0     0.105389     0.426016     0.814012    Uiso  ? Al
   Al16       1.0     0.564065     0.545226     0.623859    Uiso  ? Al
   Al17       1.0     0.217260     0.879493     0.077868    Uiso  ? Al
   Al18       1.0     0.773177     0.765277     0.818225    Uiso  ? Al
   Al19       1.0     0.888573     0.866555     0.578031    Uiso  ? Al
   Al20       1.0     0.445608     0.760217     0.384860    Uiso  ? Al
   Al21       1.0     0.550800     0.874677     0.072855    Uiso  ? Al
   Al22       1.0     0.101429     0.770753     0.818366    Uiso  ? Al
   Al23       1.0     0.775240     0.767762     0.322399    Uiso  ? Al
   Al24       1.0     0.890593     0.876688     0.063719    Uiso  ? Al
   Al25       1.0     0.444166     0.761334     0.881863    Uiso  ? Al
   Al26       1.0     0.562773     0.871497     0.568852    Uiso  ? Al
   Hf1        1.0     0.562131     0.191430     0.072486    Uiso  ? Hf
   Hf2        1.0     0.786267     0.091439     0.341828    Uiso  ? Hf
   Hf3        1.0     0.222413     0.542949     0.102608    Uiso  ? Hf
   Hf4        1.0     0.879998     0.539945     0.093474    Uiso  ? Hf
   Hf5        1.0     0.437076     0.432167     0.827996    Uiso  ? Hf
   Mg1        1.0     0.890748     0.543290     0.566372    Uiso  ? Mg
   Mg2        1.0     0.203238     0.548582     0.569625    Uiso  ? Mg
   Mg3        1.0     0.779496     0.425783     0.343752    Uiso  ? Mg
   Mg4        1.0     0.115248     0.767684     0.332331    Uiso  ? Mg
   Mg5        1.0     0.218844     0.878433     0.575470    Uiso  ? Mg
   N1         1.0     0.223343     0.204039     0.379692    Uiso  ? N
   N2         1.0     0.107109     0.098781     0.123030    Uiso  ? N
   N3         1.0     0.887240     0.203740     0.871905    Uiso  ? N
   N4         1.0     0.776806     0.096428     0.613559    Uiso  ? N
   N5         1.0     0.540868     0.209078     0.373386    Uiso  ? N
   N6         1.0     0.431388     0.086628     0.132830    Uiso  ? N
   N7         1.0     0.226345     0.202786     0.877329    Uiso  ? N
   N8         1.0     0.109005     0.107307     0.635911    Uiso  ? N
   N9         1.0     0.915918     0.193730     0.387458    Uiso  ? N
   N10        1.0     0.795489     0.088249     0.128283    Uiso  ? N
   N11        1.0     0.565833     0.183251     0.862494    Uiso  ? N
   N12        1.0     0.443394     0.091406     0.622713    Uiso  ? N
   N13        1.0     0.231981     0.523147     0.340875    Uiso  ? N
   N14        1.0     0.120189     0.402483     0.128382    Uiso  ? N
   N15        1.0     0.886648     0.540307     0.875628    Uiso  ? N
   N16        1.0     0.781272     0.417654     0.619812    Uiso  ? N
   N17        1.0     0.536101     0.544921     0.330345    Uiso  ? N
   N18        1.0     0.460741     0.430164     0.062561    Uiso  ? N
   N19        1.0     0.198640     0.550694     0.879193    Uiso  ? N
   N20        1.0     0.118910     0.412783     0.629893    Uiso  ? N
   N21        1.0     0.896124     0.548676     0.343127    Uiso  ? N
   N22        1.0     0.769791     0.413974     0.119451    Uiso  ? N
   N23        1.0     0.559898     0.551394     0.821630    Uiso  ? N
   N24        1.0     0.454687     0.423154     0.599395    Uiso  ? N
   N25        1.0     0.233219     0.882606     0.359899    Uiso  ? N
   N26        1.0     0.098610     0.781732     0.119716    Uiso  ? N
   N27        1.0     0.882963     0.877860     0.874914    Uiso  ? N
   N28        1.0     0.768870     0.776390     0.632479    Uiso  ? N
   N29        1.0     0.561105     0.874731     0.373317    Uiso  ? N
   N30        1.0     0.448401     0.754019     0.080059    Uiso  ? N
   N31        1.0     0.217110     0.875535     0.878403    Uiso  ? N
   N32        1.0     0.095025     0.772248     0.633094    Uiso  ? N
   N33        1.0     0.885499     0.861720     0.388729    Uiso  ? N
   N34        1.0     0.764768     0.789607     0.126808    Uiso  ? N
   N35        1.0     0.555564     0.875624     0.878696    Uiso  ? N
   N36        1.0     0.462965     0.752295     0.577598    Uiso  ? N
