
#======================================================================
# CRYSTAL DATA
#----------------------------------------------------------------------
data_VESTA_phase_1

_chemical_name_common                  'Al   Hf   Mg   N                      '
_cell_length_a                         9.836080
_cell_length_b                         9.807505
_cell_length_c                         9.985332
_cell_angle_alpha                      90.188057
_cell_angle_beta                       90.148766
_cell_angle_gamma                      59.871555
_cell_volume                           833.119995
_space_group_name_H-M_alt              'P 1'
_space_group_IT_number                 1

loop_
_space_group_symop_operation_xyz
   'x, y, z'

loop_
   _atom_site_label
   _atom_site_occupancy
   _atom_site_fract_x
   _atom_site_fract_y
   _atom_site_fract_z
   _atom_site_adp_type
   _atom_site_U_iso_or_equiv
   _atom_site_type_symbol
   Al1        1.0     0.119230     0.095753     0.391086    Uiso  ? Al
   Al2        1.0     0.221478     0.194836     0.141253    Uiso  ? Al
   Al3        1.0     0.786773     0.091587     0.878032    Uiso  ? Al
   Al4        1.0     0.894600     0.208807     0.643468    Uiso  ? Al
   Al5        1.0     0.438647     0.090392     0.392557    Uiso  ? Al
   Al6        1.0     0.115733     0.087499     0.887606    Uiso  ? Al
   Al7        1.0     0.216987     0.205074     0.636321    Uiso  ? Al
   Al8        1.0     0.900915     0.200427     0.134180    Uiso  ? Al
   Al9        1.0     0.436506     0.083916     0.882648    Uiso  ? Al
   Al10       1.0     0.556750     0.193087     0.641972    Uiso  ? Al
   Al11       1.0     0.112773     0.421067     0.396502    Uiso  ? Al
   Al12       1.0     0.778364     0.426213     0.881997    Uiso  ? Al
   Al13       1.0     0.444168     0.431112     0.404613    Uiso  ? Al
   Al14       1.0     0.554820     0.542719     0.143519    Uiso  ? Al
   Al15       1.0     0.109543     0.422033     0.881063    Uiso  ? Al
   Al16       1.0     0.568405     0.541312     0.633723    Uiso  ? Al
   Al17       1.0     0.224081     0.878903     0.145175    Uiso  ? Al
   Al18       1.0     0.768841     0.767788     0.880051    Uiso  ? Al
   Al19       1.0     0.881051     0.872298     0.620530    Uiso  ? Al
   Al20       1.0     0.447552     0.760562     0.388570    Uiso  ? Al
   Al21       1.0     0.549704     0.871746     0.142280    Uiso  ? Al
   Al22       1.0     0.105348     0.769895     0.816507    Uiso  ? Al
   Al23       1.0     0.775203     0.762361     0.395517    Uiso  ? Al
   Al24       1.0     0.894124     0.874641     0.090289    Uiso  ? Al
   Al25       1.0     0.440979     0.767403     0.890925    Uiso  ? Al
   Al26       1.0     0.555118     0.868227     0.636880    Uiso  ? Al
   Hf1        1.0     0.555176     0.199252     0.122004    Uiso  ? Hf
   Hf2        1.0     0.780357     0.100737     0.389312    Uiso  ? Hf
   Hf3        1.0     0.222269     0.544546     0.139895    Uiso  ? Hf
   Hf4        1.0     0.883209     0.543062     0.120727    Uiso  ? Hf
   Hf5        1.0     0.440741     0.435303     0.851967    Uiso  ? Hf
   Mg1        1.0     0.888204     0.536389     0.640815    Uiso  ? Mg
   Mg2        1.0     0.212640     0.536223     0.618835    Uiso  ? Mg
   Mg3        1.0     0.781901     0.429759     0.391621    Uiso  ? Mg
   Mg4        1.0     0.114279     0.767745     0.391886    Uiso  ? Mg
   Mg5        1.0     0.230982     0.876807     0.629234    Uiso  ? Mg
   N1         1.0     0.226165     0.204280     0.330097    Uiso  ? N
   N2         1.0     0.113996     0.093818     0.078693    Uiso  ? N
   N3         1.0     0.892645     0.203464     0.836514    Uiso  ? N
   N4         1.0     0.775271     0.096804     0.601105    Uiso  ? N
   N5         1.0     0.538961     0.213093     0.332949    Uiso  ? N
   N6         1.0     0.432504     0.082891     0.075773    Uiso  ? N
   N7         1.0     0.221229     0.202446     0.830274    Uiso  ? N
   N8         1.0     0.102849     0.108532     0.579285    Uiso  ? N
   N9         1.0     0.911566     0.197382     0.320659    Uiso  ? N
   N10        1.0     0.791331     0.094322     0.078080    Uiso  ? N
   N11        1.0     0.561180     0.184893     0.843009    Uiso  ? N
   N12        1.0     0.443514     0.091401     0.584624    Uiso  ? N
   N13        1.0     0.233107     0.522157     0.350004    Uiso  ? N
   N14        1.0     0.123978     0.407145     0.076855    Uiso  ? N
   N15        1.0     0.886535     0.540800     0.863640    Uiso  ? N
   N16        1.0     0.775773     0.416271     0.594705    Uiso  ? N
   N17        1.0     0.539895     0.541601     0.331346    Uiso  ? N
   N18        1.0     0.454124     0.434939     0.069485    Uiso  ? N
   N19        1.0     0.201573     0.548045     0.847579    Uiso  ? N
   N20        1.0     0.113766     0.409828     0.580755    Uiso  ? N
   N21        1.0     0.898069     0.549355     0.328640    Uiso  ? N
   N22        1.0     0.767515     0.417889     0.079603    Uiso  ? N
   N23        1.0     0.563458     0.553910     0.829300    Uiso  ? N
   N24        1.0     0.460775     0.416769     0.605983    Uiso  ? N
   N25        1.0     0.236239     0.883367     0.335173    Uiso  ? N
   N26        1.0     0.106107     0.778363     0.111521    Uiso  ? N
   N27        1.0     0.885954     0.873351     0.853259    Uiso  ? N
   N28        1.0     0.766624     0.772800     0.587930    Uiso  ? N
   N29        1.0     0.557559     0.872306     0.331865    Uiso  ? N
   N30        1.0     0.448423     0.758512     0.084624    Uiso  ? N
   N31        1.0     0.226298     0.870678     0.842202    Uiso  ? N
   N32        1.0     0.095632     0.772658     0.617690    Uiso  ? N
   N33        1.0     0.878340     0.872007     0.354693    Uiso  ? N
   N34        1.0     0.761054     0.786729     0.075947    Uiso  ? N
   N35        1.0     0.551122     0.871580     0.829902    Uiso  ? N
   N36        1.0     0.464495     0.750636     0.575756    Uiso  ? N
