
#======================================================================
# CRYSTAL DATA
#----------------------------------------------------------------------
data_VESTA_phase_1

_chemical_name_common                  'Al   Hf   Mg   N                      '
_cell_length_a                         9.919586
_cell_length_b                         9.892218
_cell_length_c                         9.767873
_cell_angle_alpha                      89.996704
_cell_angle_beta                       90.068108
_cell_angle_gamma                      60.148823
_cell_volume                           831.317168
_space_group_name_H-M_alt              'P 1'
_space_group_IT_number                 1

loop_
_space_group_symop_operation_xyz
   'x, y, z'

loop_
   _atom_site_label
   _atom_site_occupancy
   _atom_site_fract_x
   _atom_site_fract_y
   _atom_site_fract_z
   _atom_site_adp_type
   _atom_site_U_iso_or_equiv
   _atom_site_type_symbol
   Al1        1.0     0.122519     0.094553     0.317021    Uiso  ? Al
   Al2        1.0     0.214595     0.198991     0.062238    Uiso  ? Al
   Al3        1.0     0.790134     0.087932     0.811195    Uiso  ? Al
   Al4        1.0     0.903933     0.204153     0.576939    Uiso  ? Al
   Al5        1.0     0.442033     0.088791     0.385209    Uiso  ? Al
   Al6        1.0     0.113396     0.090287     0.821823    Uiso  ? Al
   Al7        1.0     0.218461     0.202686     0.578193    Uiso  ? Al
   Al8        1.0     0.891272     0.204066     0.067366    Uiso  ? Al
   Al9        1.0     0.440983     0.081476     0.871095    Uiso  ? Al
   Al10       1.0     0.554843     0.194876     0.628873    Uiso  ? Al
   Al11       1.0     0.112794     0.423144     0.358665    Uiso  ? Al
   Al12       1.0     0.783978     0.424238     0.817945    Uiso  ? Al
   Al13       1.0     0.443092     0.427594     0.392069    Uiso  ? Al
   Al14       1.0     0.555050     0.540650     0.141013    Uiso  ? Al
   Al15       1.0     0.108005     0.426074     0.812912    Uiso  ? Al
   Al16       1.0     0.562331     0.544384     0.620060    Uiso  ? Al
   Al17       1.0     0.219699     0.877817     0.091155    Uiso  ? Al
   Al18       1.0     0.771438     0.766153     0.867863    Uiso  ? Al
   Al19       1.0     0.890903     0.868336     0.580652    Uiso  ? Al
   Al20       1.0     0.447769     0.761182     0.378766    Uiso  ? Al
   Al21       1.0     0.552149     0.869757     0.134417    Uiso  ? Al
   Al22       1.0     0.105772     0.772230     0.818019    Uiso  ? Al
   Al23       1.0     0.770916     0.762634     0.391945    Uiso  ? Al
   Al24       1.0     0.890265     0.879243     0.064833    Uiso  ? Al
   Al25       1.0     0.445498     0.764109     0.885712    Uiso  ? Al
   Al26       1.0     0.554663     0.868455     0.632587    Uiso  ? Al
   Hf1        1.0     0.555115     0.197615     0.106408    Uiso  ? Hf
   Hf2        1.0     0.783742     0.093857     0.352782    Uiso  ? Hf
   Hf3        1.0     0.220055     0.543225     0.111944    Uiso  ? Hf
   Hf4        1.0     0.882086     0.540277     0.108335    Uiso  ? Hf
   Hf5        1.0     0.440377     0.435791     0.841368    Uiso  ? Hf
   Mg1        1.0     0.886780     0.542926     0.607135    Uiso  ? Mg
   Mg2        1.0     0.212228     0.548613     0.583312    Uiso  ? Mg
   Mg3        1.0     0.778218     0.428669     0.360897    Uiso  ? Mg
   Mg4        1.0     0.114021     0.768441     0.340251    Uiso  ? Mg
   Mg5        1.0     0.222402     0.878742     0.571867    Uiso  ? Mg
   N1         1.0     0.222743     0.204023     0.376950    Uiso  ? N
   N2         1.0     0.105389     0.100809     0.119077    Uiso  ? N
   N3         1.0     0.887082     0.203327     0.870125    Uiso  ? N
   N4         1.0     0.777185     0.096542     0.608814    Uiso  ? N
   N5         1.0     0.535368     0.213271     0.327911    Uiso  ? N
   N6         1.0     0.435010     0.078654     0.072602    Uiso  ? N
   N7         1.0     0.218478     0.207191     0.866164    Uiso  ? N
   N8         1.0     0.109252     0.104192     0.633443    Uiso  ? N
   N9         1.0     0.917673     0.193683     0.383678    Uiso  ? N
   N10        1.0     0.794111     0.088011     0.127374    Uiso  ? N
   N11        1.0     0.563547     0.185166     0.840619    Uiso  ? N
   N12        1.0     0.447886     0.088709     0.584889    Uiso  ? N
   N13        1.0     0.232054     0.524192     0.346756    Uiso  ? N
   N14        1.0     0.121026     0.404703     0.118165    Uiso  ? N
   N15        1.0     0.888730     0.538320     0.860588    Uiso  ? N
   N16        1.0     0.777948     0.415356     0.616303    Uiso  ? N
   N17        1.0     0.536948     0.542222     0.334749    Uiso  ? N
   N18        1.0     0.457565     0.433098     0.064448    Uiso  ? N
   N19        1.0     0.201206     0.551226     0.868175    Uiso  ? N
   N20        1.0     0.119619     0.413542     0.615948    Uiso  ? N
   N21        1.0     0.893284     0.552385     0.338460    Uiso  ? N
   N22        1.0     0.769305     0.415267     0.113922    Uiso  ? N
   N23        1.0     0.559986     0.554995     0.822349    Uiso  ? N
   N24        1.0     0.459521     0.416696     0.599199    Uiso  ? N
   N25        1.0     0.236537     0.881997     0.345677    Uiso  ? N
   N26        1.0     0.097244     0.779972     0.119133    Uiso  ? N
   N27        1.0     0.887486     0.879234     0.866579    Uiso  ? N
   N28        1.0     0.765276     0.776905     0.592221    Uiso  ? N
   N29        1.0     0.558534     0.873205     0.328159    Uiso  ? N
   N30        1.0     0.453178     0.753777     0.083176    Uiso  ? N
   N31        1.0     0.220383     0.874588     0.880523    Uiso  ? N
   N32        1.0     0.097389     0.775577     0.626281    Uiso  ? N
   N33        1.0     0.885116     0.864821     0.382085    Uiso  ? N
   N34        1.0     0.761763     0.785451     0.072656    Uiso  ? N
   N35        1.0     0.551511     0.870207     0.827189    Uiso  ? N
   N36        1.0     0.464509     0.752578     0.571916    Uiso  ? N
