
#======================================================================
# CRYSTAL DATA
#----------------------------------------------------------------------
data_VESTA_phase_1

_chemical_name_common                  'Al   Hf   Mg   N                      '
_cell_length_a                         9.830848
_cell_length_b                         9.812977
_cell_length_c                         10.014042
_cell_angle_alpha                      90.116989
_cell_angle_beta                       90.319481
_cell_angle_gamma                      60.051201
_cell_volume                           837.044804
_space_group_name_H-M_alt              'P 1'
_space_group_IT_number                 1

loop_
_space_group_symop_operation_xyz
   'x, y, z'

loop_
   _atom_site_label
   _atom_site_occupancy
   _atom_site_fract_x
   _atom_site_fract_y
   _atom_site_fract_z
   _atom_site_adp_type
   _atom_site_U_iso_or_equiv
   _atom_site_type_symbol
   Al1        1.0     0.122043     0.091559     0.314752    Uiso  ? Al
   Al2        1.0     0.221210     0.194402     0.061429    Uiso  ? Al
   Al3        1.0     0.786685     0.087761     0.802558    Uiso  ? Al
   Al4        1.0     0.901895     0.204933     0.571616    Uiso  ? Al
   Al5        1.0     0.435434     0.090067     0.322002    Uiso  ? Al
   Al6        1.0     0.113277     0.092845     0.815102    Uiso  ? Al
   Al7        1.0     0.218411     0.205869     0.568497    Uiso  ? Al
   Al8        1.0     0.893120     0.203934     0.059617    Uiso  ? Al
   Al9        1.0     0.440720     0.083510     0.806951    Uiso  ? Al
   Al10       1.0     0.554385     0.196890     0.569350    Uiso  ? Al
   Al11       1.0     0.115991     0.417419     0.321248    Uiso  ? Al
   Al12       1.0     0.787754     0.424275     0.807297    Uiso  ? Al
   Al13       1.0     0.441152     0.433936     0.386248    Uiso  ? Al
   Al14       1.0     0.551590     0.542612     0.136740    Uiso  ? Al
   Al15       1.0     0.105362     0.426026     0.809594    Uiso  ? Al
   Al16       1.0     0.564039     0.545233     0.619450    Uiso  ? Al
   Al17       1.0     0.217236     0.879502     0.073459    Uiso  ? Al
   Al18       1.0     0.773153     0.765284     0.813821    Uiso  ? Al
   Al19       1.0     0.888547     0.866561     0.573626    Uiso  ? Al
   Al20       1.0     0.445581     0.760228     0.380461    Uiso  ? Al
   Al21       1.0     0.550773     0.874684     0.068434    Uiso  ? Al
   Al22       1.0     0.101405     0.770762     0.813960    Uiso  ? Al
   Al23       1.0     0.775210     0.767774     0.317988    Uiso  ? Al
   Al24       1.0     0.890564     0.876701     0.059306    Uiso  ? Al
   Al25       1.0     0.444137     0.761344     0.877438    Uiso  ? Al
   Al26       1.0     0.562746     0.871507     0.564455    Uiso  ? Al
   Hf1        1.0     0.562102     0.191445     0.068097    Uiso  ? Hf
   Hf2        1.0     0.786246     0.091445     0.337428    Uiso  ? Hf
   Hf3        1.0     0.222381     0.542963     0.098198    Uiso  ? Hf
   Hf4        1.0     0.879972     0.539952     0.089071    Uiso  ? Hf
   Hf5        1.0     0.437055     0.432171     0.823594    Uiso  ? Hf
   Mg1        1.0     0.890720     0.543302     0.561960    Uiso  ? Mg
   Mg2        1.0     0.203213     0.548593     0.565217    Uiso  ? Mg
   Mg3        1.0     0.779466     0.425792     0.339347    Uiso  ? Mg
   Mg4        1.0     0.115222     0.767695     0.327925    Uiso  ? Mg
   Mg5        1.0     0.218815     0.878445     0.571068    Uiso  ? Mg
   N1         1.0     0.223318     0.204047     0.375274    Uiso  ? N
   N2         1.0     0.107082     0.098790     0.118616    Uiso  ? N
   N3         1.0     0.887213     0.203748     0.867488    Uiso  ? N
   N4         1.0     0.776776     0.096439     0.609139    Uiso  ? N
   N5         1.0     0.540840     0.209090     0.368959    Uiso  ? N
   N6         1.0     0.431361     0.086631     0.128414    Uiso  ? N
   N7         1.0     0.226318     0.202798     0.872913    Uiso  ? N
   N8         1.0     0.108978     0.107320     0.631497    Uiso  ? N
   N9         1.0     0.915893     0.193741     0.383046    Uiso  ? N
   N10        1.0     0.795464     0.088257     0.123876    Uiso  ? N
   N11        1.0     0.565809     0.183258     0.858095    Uiso  ? N
   N12        1.0     0.443367     0.091420     0.618302    Uiso  ? N
   N13        1.0     0.231953     0.523158     0.336463    Uiso  ? N
   N14        1.0     0.120165     0.402491     0.123967    Uiso  ? N
   N15        1.0     0.886625     0.540315     0.871217    Uiso  ? N
   N16        1.0     0.781245     0.417667     0.615400    Uiso  ? N
   N17        1.0     0.536073     0.544936     0.325940    Uiso  ? N
   N18        1.0     0.460708     0.430179     0.058156    Uiso  ? N
   N19        1.0     0.198616     0.550701     0.874776    Uiso  ? N
   N20        1.0     0.118882     0.412794     0.625470    Uiso  ? N
   N21        1.0     0.896096     0.548685     0.338708    Uiso  ? N
   N22        1.0     0.769761     0.413983     0.115036    Uiso  ? N
   N23        1.0     0.559874     0.551397     0.817224    Uiso  ? N
   N24        1.0     0.454662     0.423161     0.594983    Uiso  ? N
   N25        1.0     0.233195     0.882615     0.355491    Uiso  ? N
   N26        1.0     0.098582     0.781745     0.115301    Uiso  ? N
   N27        1.0     0.882937     0.877871     0.870498    Uiso  ? N
   N28        1.0     0.768845     0.776397     0.628070    Uiso  ? N
   N29        1.0     0.561078     0.874739     0.368913    Uiso  ? N
   N30        1.0     0.448374     0.754029     0.075643    Uiso  ? N
   N31        1.0     0.217084     0.875546     0.873986    Uiso  ? N
   N32        1.0     0.094998     0.772258     0.628682    Uiso  ? N
   N33        1.0     0.885474     0.861726     0.384319    Uiso  ? N
   N34        1.0     0.764739     0.789617     0.122392    Uiso  ? N
   N35        1.0     0.555537     0.875633     0.874275    Uiso  ? N
   N36        1.0     0.462935     0.752308     0.573206    Uiso  ? N
