
#======================================================================
# CRYSTAL DATA
#----------------------------------------------------------------------
data_VESTA_phase_1

_chemical_name_common                  'Al   Hf   Mg   N                      '
_cell_length_a                         9.791961
_cell_length_b                         9.769422
_cell_length_c                         10.049663
_cell_angle_alpha                      89.981422
_cell_angle_beta                       90.146599
_cell_angle_gamma                      59.973289
_cell_volume                           832.341414
_space_group_name_H-M_alt              'P 1'
_space_group_IT_number                 1

loop_
_space_group_symop_operation_xyz
   'x, y, z'

loop_
   _atom_site_label
   _atom_site_occupancy
   _atom_site_fract_x
   _atom_site_fract_y
   _atom_site_fract_z
   _atom_site_adp_type
   _atom_site_U_iso_or_equiv
   _atom_site_type_symbol
   Al1        1.0     0.121252     0.091727     0.304936    Uiso  ? Al
   Al2        1.0     0.221285     0.193436     0.049659    Uiso  ? Al
   Al3        1.0     0.785553     0.089344     0.790689    Uiso  ? Al
   Al4        1.0     0.898184     0.209136     0.561563    Uiso  ? Al
   Al5        1.0     0.434597     0.087447     0.312668    Uiso  ? Al
   Al6        1.0     0.113173     0.093268     0.802784    Uiso  ? Al
   Al7        1.0     0.217565     0.206874     0.557746    Uiso  ? Al
   Al8        1.0     0.895565     0.201244     0.047822    Uiso  ? Al
   Al9        1.0     0.440777     0.086631     0.796635    Uiso  ? Al
   Al10       1.0     0.549689     0.203140     0.553003    Uiso  ? Al
   Al11       1.0     0.114371     0.417995     0.309495    Uiso  ? Al
   Al12       1.0     0.780920     0.428415     0.797917    Uiso  ? Al
   Al13       1.0     0.444565     0.432525     0.315086    Uiso  ? Al
   Al14       1.0     0.560697     0.543135     0.053327    Uiso  ? Al
   Al15       1.0     0.106405     0.426331     0.796653    Uiso  ? Al
   Al16       1.0     0.559190     0.541717     0.551990    Uiso  ? Al
   Al17       1.0     0.222349     0.877330     0.055686    Uiso  ? Al
   Al18       1.0     0.773607     0.765201     0.801490    Uiso  ? Al
   Al19       1.0     0.889412     0.864608     0.563042    Uiso  ? Al
   Al20       1.0     0.442912     0.762719     0.306055    Uiso  ? Al
   Al21       1.0     0.547804     0.872585     0.053388    Uiso  ? Al
   Al22       1.0     0.104605     0.769329     0.800881    Uiso  ? Al
   Al23       1.0     0.772885     0.767621     0.307951    Uiso  ? Al
   Al24       1.0     0.889921     0.878058     0.047303    Uiso  ? Al
   Al25       1.0     0.445663     0.766155     0.801503    Uiso  ? Al
   Al26       1.0     0.557781     0.867933     0.555734    Uiso  ? Al
   Hf1        1.0     0.561258     0.190424     0.064414    Uiso  ? Hf
   Hf2        1.0     0.787566     0.090956     0.328472    Uiso  ? Hf
   Hf3        1.0     0.218545     0.545271     0.084886    Uiso  ? Hf
   Hf4        1.0     0.881352     0.541638     0.077206    Uiso  ? Hf
   Hf5        1.0     0.440936     0.432015     0.801271    Uiso  ? Hf
   Mg1        1.0     0.888685     0.541841     0.551264    Uiso  ? Mg
   Mg2        1.0     0.213571     0.543294     0.543880    Uiso  ? Mg
   Mg3        1.0     0.775152     0.427514     0.314998    Uiso  ? Mg
   Mg4        1.0     0.113974     0.769415     0.315920    Uiso  ? Mg
   Mg5        1.0     0.224224     0.875225     0.556176    Uiso  ? Mg
   N1         1.0     0.222450     0.204520     0.364936    Uiso  ? N
   N2         1.0     0.109035     0.095935     0.107933    Uiso  ? N
   N3         1.0     0.887624     0.203205     0.856870    Uiso  ? N
   N4         1.0     0.774707     0.097196     0.596941    Uiso  ? N
   N5         1.0     0.539724     0.209057     0.353602    Uiso  ? N
   N6         1.0     0.430977     0.083762     0.119008    Uiso  ? N
   N7         1.0     0.225785     0.203421     0.861765    Uiso  ? N
   N8         1.0     0.107441     0.107727     0.619958    Uiso  ? N
   N9         1.0     0.914004     0.197972     0.372813    Uiso  ? N
   N10        1.0     0.796207     0.087977     0.114972    Uiso  ? N
   N11        1.0     0.563821     0.188797     0.855103    Uiso  ? N
   N12        1.0     0.443341     0.092434     0.607719    Uiso  ? N
   N13        1.0     0.227657     0.526186     0.322981    Uiso  ? N
   N14        1.0     0.120215     0.401392     0.112994    Uiso  ? N
   N15        1.0     0.887091     0.541158     0.860246    Uiso  ? N
   N16        1.0     0.770819     0.422396     0.610954    Uiso  ? N
   N17        1.0     0.540609     0.547475     0.363664    Uiso  ? N
   N18        1.0     0.462404     0.427414     0.108126    Uiso  ? N
   N19        1.0     0.206193     0.546376     0.866713    Uiso  ? N
   N20        1.0     0.118977     0.415236     0.613080    Uiso  ? N
   N21        1.0     0.894324     0.548122     0.325769    Uiso  ? N
   N22        1.0     0.771425     0.413579     0.102773    Uiso  ? N
   N23        1.0     0.561874     0.546747     0.863297    Uiso  ? N
   N24        1.0     0.455638     0.420577     0.599026    Uiso  ? N
   N25        1.0     0.234107     0.882313     0.350398    Uiso  ? N
   N26        1.0     0.098876     0.784406     0.102565    Uiso  ? N
   N27        1.0     0.883906     0.877795     0.858564    Uiso  ? N
   N28        1.0     0.767044     0.776415     0.616518    Uiso  ? N
   N29        1.0     0.556972     0.869749     0.362785    Uiso  ? N
   N30        1.0     0.448388     0.757460     0.109808    Uiso  ? N
   N31        1.0     0.225365     0.871849     0.861964    Uiso  ? N
   N32        1.0     0.098082     0.768625     0.616681    Uiso  ? N
   N33        1.0     0.884593     0.860577     0.374051    Uiso  ? N
   N34        1.0     0.762355     0.792193     0.111614    Uiso  ? N
   N35        1.0     0.553396     0.874902     0.863991    Uiso  ? N
   N36        1.0     0.461934     0.752326     0.616564    Uiso  ? N
