
#======================================================================
# CRYSTAL DATA
#----------------------------------------------------------------------
data_VESTA_phase_1

_chemical_name_common                  'Al   Hf   Mg   N                      '
_cell_length_a                         9.840342
_cell_length_b                         9.826225
_cell_length_c                         10.019917
_cell_angle_alpha                      89.908760
_cell_angle_beta                       90.119682
_cell_angle_gamma                      60.088173
_cell_volume                           839.796180
_space_group_name_H-M_alt              'P 1'
_space_group_IT_number                 1

loop_
_space_group_symop_operation_xyz
   'x, y, z'

loop_
   _atom_site_label
   _atom_site_occupancy
   _atom_site_fract_x
   _atom_site_fract_y
   _atom_site_fract_z
   _atom_site_adp_type
   _atom_site_U_iso_or_equiv
   _atom_site_type_symbol
   Al1        1.0     0.123840     0.090873     0.319759    Uiso  ? Al
   Al2        1.0     0.214319     0.198362     0.063840    Uiso  ? Al
   Al3        1.0     0.789548     0.087089     0.810269    Uiso  ? Al
   Al4        1.0     0.904377     0.205365     0.576669    Uiso  ? Al
   Al5        1.0     0.442186     0.087643     0.389669    Uiso  ? Al
   Al6        1.0     0.112710     0.092938     0.819891    Uiso  ? Al
   Al7        1.0     0.215479     0.207844     0.575220    Uiso  ? Al
   Al8        1.0     0.890708     0.202849     0.067409    Uiso  ? Al
   Al9        1.0     0.441801     0.082809     0.876231    Uiso  ? Al
   Al10       1.0     0.554073     0.196190     0.629998    Uiso  ? Al
   Al11       1.0     0.116884     0.417053     0.327141    Uiso  ? Al
   Al12       1.0     0.787142     0.424452     0.812895    Uiso  ? Al
   Al13       1.0     0.442329     0.430674     0.392271    Uiso  ? Al
   Al14       1.0     0.551221     0.544219     0.141708    Uiso  ? Al
   Al15       1.0     0.104661     0.427097     0.813370    Uiso  ? Al
   Al16       1.0     0.564702     0.542782     0.623519    Uiso  ? Al
   Al17       1.0     0.216447     0.880977     0.077543    Uiso  ? Al
   Al18       1.0     0.780022     0.761575     0.819322    Uiso  ? Al
   Al19       1.0     0.891931     0.862076     0.579664    Uiso  ? Al
   Al20       1.0     0.448083     0.761000     0.386018    Uiso  ? Al
   Al21       1.0     0.544613     0.873955     0.138519    Uiso  ? Al
   Al22       1.0     0.102472     0.771427     0.820371    Uiso  ? Al
   Al23       1.0     0.779542     0.763593     0.324518    Uiso  ? Al
   Al24       1.0     0.887178     0.880208     0.066635    Uiso  ? Al
   Al25       1.0     0.447707     0.763624     0.885702    Uiso  ? Al
   Al26       1.0     0.555424     0.869222     0.634352    Uiso  ? Al
   Hf1        1.0     0.553649     0.201799     0.116817    Uiso  ? Hf
   Hf2        1.0     0.784688     0.092180     0.357590    Uiso  ? Hf
   Hf3        1.0     0.219175     0.547078     0.105251    Uiso  ? Hf
   Hf4        1.0     0.880584     0.539292     0.092321    Uiso  ? Hf
   Hf5        1.0     0.436755     0.436717     0.840677    Uiso  ? Hf
   Mg1        1.0     0.890933     0.541790     0.565934    Uiso  ? Mg
   Mg2        1.0     0.206519     0.547480     0.571617    Uiso  ? Mg
   Mg3        1.0     0.779279     0.425096     0.342598    Uiso  ? Mg
   Mg4        1.0     0.115893     0.768745     0.333730    Uiso  ? Mg
   Mg5        1.0     0.221565     0.876860     0.575400    Uiso  ? Mg
   N1         1.0     0.221432     0.205011     0.379007    Uiso  ? N
   N2         1.0     0.106476     0.099098     0.124564    Uiso  ? N
   N3         1.0     0.886608     0.203323     0.874075    Uiso  ? N
   N4         1.0     0.779714     0.094383     0.610178    Uiso  ? N
   N5         1.0     0.535050     0.214188     0.329107    Uiso  ? N
   N6         1.0     0.437552     0.080481     0.072150    Uiso  ? N
   N7         1.0     0.215322     0.209003     0.874827    Uiso  ? N
   N8         1.0     0.110446     0.105153     0.636403    Uiso  ? N
   N9         1.0     0.917315     0.193807     0.387782    Uiso  ? N
   N10        1.0     0.794336     0.088169     0.134690    Uiso  ? N
   N11        1.0     0.561010     0.187212     0.833422    Uiso  ? N
   N12        1.0     0.449398     0.088014     0.581539    Uiso  ? N
   N13        1.0     0.231481     0.524399     0.342655    Uiso  ? N
   N14        1.0     0.121646     0.402755     0.130163    Uiso  ? N
   N15        1.0     0.886959     0.539509     0.875876    Uiso  ? N
   N16        1.0     0.782337     0.415917     0.621624    Uiso  ? N
   N17        1.0     0.535332     0.544758     0.330568    Uiso  ? N
   N18        1.0     0.458123     0.434703     0.060255    Uiso  ? N
   N19        1.0     0.195841     0.552338     0.881104    Uiso  ? N
   N20        1.0     0.119219     0.413618     0.629659    Uiso  ? N
   N21        1.0     0.896704     0.546454     0.345215    Uiso  ? N
   N22        1.0     0.768683     0.414419     0.119552    Uiso  ? N
   N23        1.0     0.559965     0.553900     0.821462    Uiso  ? N
   N24        1.0     0.458237     0.419138     0.596108    Uiso  ? N
   N25        1.0     0.234625     0.882174     0.361682    Uiso  ? N
   N26        1.0     0.097089     0.784585     0.120861    Uiso  ? N
   N27        1.0     0.882856     0.879200     0.876869    Uiso  ? N
   N28        1.0     0.775217     0.771338     0.631781    Uiso  ? N
   N29        1.0     0.552979     0.875264     0.328807    Uiso  ? N
   N30        1.0     0.450953     0.756193     0.079478    Uiso  ? N
   N31        1.0     0.218400     0.875655     0.880169    Uiso  ? N
   N32        1.0     0.097634     0.771467     0.634989    Uiso  ? N
   N33        1.0     0.885953     0.859979     0.390154    Uiso  ? N
   N34        1.0     0.769244     0.784757     0.124537    Uiso  ? N
   N35        1.0     0.550057     0.872155     0.829422    Uiso  ? N
   N36        1.0     0.468723     0.750409     0.573498    Uiso  ? N
