
#======================================================================
# CRYSTAL DATA
#----------------------------------------------------------------------
data_VESTA_phase_1

_chemical_name_common                  'Al   Hf   Mg   N                      '
_cell_length_a                         9.901882
_cell_length_b                         9.870810
_cell_length_c                         9.870842
_cell_angle_alpha                      90.103691
_cell_angle_beta                       89.855484
_cell_angle_gamma                      59.982868
_cell_volume                           835.364942
_space_group_name_H-M_alt              'P 1'
_space_group_IT_number                 1

loop_
_space_group_symop_operation_xyz
   'x, y, z'

loop_
   _atom_site_label
   _atom_site_occupancy
   _atom_site_fract_x
   _atom_site_fract_y
   _atom_site_fract_z
   _atom_site_adp_type
   _atom_site_U_iso_or_equiv
   _atom_site_type_symbol
   Al1        1.0     0.120984     0.094620     0.344447    Uiso  ? Al
   Al2        1.0     0.220193     0.196797     0.131170    Uiso  ? Al
   Al3        1.0     0.789312     0.087488     0.808972    Uiso  ? Al
   Al4        1.0     0.900217     0.206116     0.577290    Uiso  ? Al
   Al5        1.0     0.440146     0.091302     0.382897    Uiso  ? Al
   Al6        1.0     0.113743     0.088877     0.818481    Uiso  ? Al
   Al7        1.0     0.223393     0.207481     0.629362    Uiso  ? Al
   Al8        1.0     0.895239     0.202259     0.061545    Uiso  ? Al
   Al9        1.0     0.436470     0.083753     0.876819    Uiso  ? Al
   Al10       1.0     0.554564     0.195216     0.627561    Uiso  ? Al
   Al11       1.0     0.113639     0.421343     0.386071    Uiso  ? Al
   Al12       1.0     0.782051     0.425241     0.819237    Uiso  ? Al
   Al13       1.0     0.442672     0.428319     0.392606    Uiso  ? Al
   Al14       1.0     0.553633     0.542614     0.138979    Uiso  ? Al
   Al15       1.0     0.109251     0.422757     0.873923    Uiso  ? Al
   Al16       1.0     0.562957     0.544666     0.622915    Uiso  ? Al
   Al17       1.0     0.221569     0.878114     0.135787    Uiso  ? Al
   Al18       1.0     0.767833     0.768882     0.869489    Uiso  ? Al
   Al19       1.0     0.885389     0.870366     0.575377    Uiso  ? Al
   Al20       1.0     0.448376     0.760960     0.381117    Uiso  ? Al
   Al21       1.0     0.550024     0.871424     0.133334    Uiso  ? Al
   Al22       1.0     0.103083     0.771461     0.808436    Uiso  ? Al
   Al23       1.0     0.772141     0.759254     0.389246    Uiso  ? Al
   Al24       1.0     0.893317     0.878704     0.060930    Uiso  ? Al
   Al25       1.0     0.438520     0.768294     0.885433    Uiso  ? Al
   Al26       1.0     0.554599     0.869544     0.631287    Uiso  ? Al
   Hf1        1.0     0.554974     0.199933     0.104181    Uiso  ? Hf
   Hf2        1.0     0.785173     0.093839     0.344463    Uiso  ? Hf
   Hf3        1.0     0.218486     0.545355     0.123619    Uiso  ? Hf
   Hf4        1.0     0.879153     0.541868     0.109020    Uiso  ? Hf
   Hf5        1.0     0.440973     0.436504     0.844041    Uiso  ? Hf
   Mg1        1.0     0.894531     0.541912     0.627362    Uiso  ? Mg
   Mg2        1.0     0.213356     0.537545     0.609138    Uiso  ? Mg
   Mg3        1.0     0.777397     0.434860     0.368168    Uiso  ? Mg
   Mg4        1.0     0.117744     0.761084     0.369698    Uiso  ? Mg
   Mg5        1.0     0.233101     0.868725     0.610376    Uiso  ? Mg
   N1         1.0     0.229028     0.205244     0.325398    Uiso  ? N
   N2         1.0     0.105241     0.097398     0.112488    Uiso  ? N
   N3         1.0     0.888357     0.202410     0.865169    Uiso  ? N
   N4         1.0     0.776565     0.096047     0.609574    Uiso  ? N
   N5         1.0     0.537407     0.213345     0.324081    Uiso  ? N
   N6         1.0     0.431539     0.082601     0.071066    Uiso  ? N
   N7         1.0     0.225816     0.206639     0.826603    Uiso  ? N
   N8         1.0     0.109227     0.104289     0.620637    Uiso  ? N
   N9         1.0     0.911901     0.199504     0.385699    Uiso  ? N
   N10        1.0     0.794687     0.088625     0.122815    Uiso  ? N
   N11        1.0     0.562870     0.185329     0.840603    Uiso  ? N
   N12        1.0     0.445198     0.091377     0.577162    Uiso  ? N
   N13        1.0     0.234215     0.519163     0.337372    Uiso  ? N
   N14        1.0     0.120314     0.406832     0.070303    Uiso  ? N
   N15        1.0     0.886939     0.540846     0.854938    Uiso  ? N
   N16        1.0     0.778428     0.418129     0.617538    Uiso  ? N
   N17        1.0     0.536606     0.543250     0.331231    Uiso  ? N
   N18        1.0     0.453120     0.437105     0.062999    Uiso  ? N
   N19        1.0     0.201290     0.550637     0.847839    Uiso  ? N
   N20        1.0     0.117367     0.409430     0.572770    Uiso  ? N
   N21        1.0     0.898569     0.550583     0.324471    Uiso  ? N
   N22        1.0     0.766855     0.416522     0.103321    Uiso  ? N
   N23        1.0     0.558878     0.556976     0.822000    Uiso  ? N
   N24        1.0     0.460573     0.416787     0.597135    Uiso  ? N
   N25        1.0     0.237781     0.878829     0.334904    Uiso  ? N
   N26        1.0     0.099302     0.780454     0.116114    Uiso  ? N
   N27        1.0     0.887687     0.878114     0.863948    Uiso  ? N
   N28        1.0     0.764664     0.774025     0.586643    Uiso  ? N
   N29        1.0     0.557875     0.872552     0.325370    Uiso  ? N
   N30        1.0     0.446601     0.758609     0.081126    Uiso  ? N
   N31        1.0     0.225573     0.868475     0.839541    Uiso  ? N
   N32        1.0     0.094546     0.770858     0.612966    Uiso  ? N
   N33        1.0     0.882309     0.865984     0.378988    Uiso  ? N
   N34        1.0     0.759881     0.787109     0.069212    Uiso  ? N
   N35        1.0     0.549081     0.872874     0.825132    Uiso  ? N
   N36        1.0     0.466862     0.751430     0.569177    Uiso  ? N
