
#======================================================================
# CRYSTAL DATA
#----------------------------------------------------------------------
data_VESTA_phase_1

_chemical_name_common                  'Al   Hf   Mg   N                      '
_cell_length_a                         9.850660
_cell_length_b                         9.836414
_cell_length_c                         9.917175
_cell_angle_alpha                      90.169914
_cell_angle_beta                       90.280861
_cell_angle_gamma                      60.088463
_cell_volume                           832.917386
_space_group_name_H-M_alt              'P 1'
_space_group_IT_number                 1

loop_
_space_group_symop_operation_xyz
   'x, y, z'

loop_
   _atom_site_label
   _atom_site_occupancy
   _atom_site_fract_x
   _atom_site_fract_y
   _atom_site_fract_z
   _atom_site_adp_type
   _atom_site_U_iso_or_equiv
   _atom_site_type_symbol
   Al1        1.0     0.123362     0.089251     0.312784    Uiso  ? Al
   Al2        1.0     0.221595     0.193692     0.060913    Uiso  ? Al
   Al3        1.0     0.786481     0.088050     0.801985    Uiso  ? Al
   Al4        1.0     0.902563     0.205336     0.569388    Uiso  ? Al
   Al5        1.0     0.435192     0.087451     0.320486    Uiso  ? Al
   Al6        1.0     0.112192     0.095244     0.814227    Uiso  ? Al
   Al7        1.0     0.218152     0.206522     0.566707    Uiso  ? Al
   Al8        1.0     0.893459     0.203191     0.059884    Uiso  ? Al
   Al9        1.0     0.440777     0.086809     0.806878    Uiso  ? Al
   Al10       1.0     0.553630     0.197449     0.567321    Uiso  ? Al
   Al11       1.0     0.115976     0.417159     0.320371    Uiso  ? Al
   Al12       1.0     0.788283     0.424216     0.805016    Uiso  ? Al
   Al13       1.0     0.440097     0.433267     0.384434    Uiso  ? Al
   Al14       1.0     0.550614     0.545331     0.137068    Uiso  ? Al
   Al15       1.0     0.105922     0.426243     0.808205    Uiso  ? Al
   Al16       1.0     0.565186     0.540710     0.613477    Uiso  ? Al
   Al17       1.0     0.223896     0.875279     0.064251    Uiso  ? Al
   Al18       1.0     0.774956     0.764910     0.812941    Uiso  ? Al
   Al19       1.0     0.888314     0.865996     0.571354    Uiso  ? Al
   Al20       1.0     0.443407     0.762889     0.378045    Uiso  ? Al
   Al21       1.0     0.547633     0.870866     0.061587    Uiso  ? Al
   Al22       1.0     0.101363     0.770203     0.811853    Uiso  ? Al
   Al23       1.0     0.773303     0.767837     0.316410    Uiso  ? Al
   Al24       1.0     0.890676     0.876489     0.059183    Uiso  ? Al
   Al25       1.0     0.443480     0.766864     0.832390    Uiso  ? Al
   Al26       1.0     0.562505     0.873390     0.567649    Uiso  ? Al
   Hf1        1.0     0.561333     0.191624     0.072720    Uiso  ? Hf
   Hf2        1.0     0.786787     0.091059     0.338160    Uiso  ? Hf
   Hf3        1.0     0.221210     0.544004     0.097508    Uiso  ? Hf
   Hf4        1.0     0.879101     0.539430     0.089178    Uiso  ? Hf
   Hf5        1.0     0.439396     0.431378     0.825883    Uiso  ? Hf
   Mg1        1.0     0.891488     0.544182     0.560329    Uiso  ? Mg
   Mg2        1.0     0.203800     0.548274     0.564696    Uiso  ? Mg
   Mg3        1.0     0.780469     0.425086     0.340991    Uiso  ? Mg
   Mg4        1.0     0.115561     0.768724     0.327664    Uiso  ? Mg
   Mg5        1.0     0.214806     0.881360     0.572930    Uiso  ? Mg
   N1         1.0     0.223475     0.203331     0.372290    Uiso  ? N
   N2         1.0     0.109184     0.095145     0.114921    Uiso  ? N
   N3         1.0     0.887178     0.204128     0.865504    Uiso  ? N
   N4         1.0     0.776160     0.096873     0.605637    Uiso  ? N
   N5         1.0     0.540108     0.208738     0.363261    Uiso  ? N
   N6         1.0     0.432080     0.083260     0.125525    Uiso  ? N
   N7         1.0     0.226453     0.203755     0.870911    Uiso  ? N
   N8         1.0     0.107733     0.110041     0.629690    Uiso  ? N
   N9         1.0     0.917340     0.192727     0.379589    Uiso  ? N
   N10        1.0     0.795791     0.087599     0.122964    Uiso  ? N
   N11        1.0     0.566825     0.183108     0.859513    Uiso  ? N
   N12        1.0     0.442820     0.093567     0.616579    Uiso  ? N
   N13        1.0     0.231240     0.523905     0.334952    Uiso  ? N
   N14        1.0     0.119824     0.402353     0.121764    Uiso  ? N
   N15        1.0     0.887099     0.540142     0.868728    Uiso  ? N
   N16        1.0     0.781704     0.418257     0.610017    Uiso  ? N
   N17        1.0     0.537083     0.545673     0.333278    Uiso  ? N
   N18        1.0     0.459865     0.430526     0.060965    Uiso  ? N
   N19        1.0     0.199711     0.550673     0.871823    Uiso  ? N
   N20        1.0     0.118610     0.413178     0.622212    Uiso  ? N
   N21        1.0     0.895901     0.549078     0.336459    Uiso  ? N
   N22        1.0     0.768974     0.413426     0.115621    Uiso  ? N
   N23        1.0     0.563380     0.546794     0.815478    Uiso  ? N
   N24        1.0     0.454379     0.421874     0.592993    Uiso  ? N
   N25        1.0     0.232343     0.883245     0.362178    Uiso  ? N
   N26        1.0     0.100172     0.782752     0.111742    Uiso  ? N
   N27        1.0     0.883550     0.878068     0.868468    Uiso  ? N
   N28        1.0     0.769667     0.776111     0.625818    Uiso  ? N
   N29        1.0     0.559912     0.872877     0.372467    Uiso  ? N
   N30        1.0     0.447059     0.755026     0.083291    Uiso  ? N
   N31        1.0     0.219711     0.874963     0.865057    Uiso  ? N
   N32        1.0     0.093882     0.771903     0.625199    Uiso  ? N
   N33        1.0     0.884766     0.861162     0.380442    Uiso  ? N
   N34        1.0     0.762504     0.789598     0.118969    Uiso  ? N
   N35        1.0     0.554945     0.876035     0.867108    Uiso  ? N
   N36        1.0     0.459387     0.757500     0.594462    Uiso  ? N
