
#======================================================================
# CRYSTAL DATA
#----------------------------------------------------------------------
data_VESTA_phase_1

_chemical_name_common                  'Al   Hf   Mg   N '
_cell_length_a                         9.868707
_cell_length_b                         9.834338
_cell_length_c                         9.967969
_cell_angle_alpha                      90.144188
_cell_angle_beta                       89.822731
_cell_angle_gamma                      59.995583
_cell_volume                           837.753971
_space_group_name_H-M_alt              'P 1'
_space_group_IT_number                 1

loop_
_space_group_symop_operation_xyz
   'x, y, z'

loop_
   _atom_site_label
   _atom_site_occupancy
   _atom_site_fract_x
   _atom_site_fract_y
   _atom_site_fract_z
   _atom_site_adp_type
   _atom_site_U_iso_or_equiv
   _atom_site_type_symbol
   Al1        1.0     0.128855     0.091648     0.391599    Uiso  ? Al
   Al2        1.0     0.217467     0.194945     0.133843    Uiso  ? Al
   Al3        1.0     0.789305     0.087786     0.806967    Uiso  ? Al
   Al4        1.0     0.899429     0.206061     0.573622    Uiso  ? Al
   Al5        1.0     0.438879     0.092041     0.382988    Uiso  ? Al
   Al6        1.0     0.118928     0.085382     0.876341    Uiso  ? Al
   Al7        1.0     0.222203     0.205222     0.631813    Uiso  ? Al
   Al8        1.0     0.887349     0.206417     0.062549    Uiso  ? Al
   Al9        1.0     0.436606     0.083871     0.875967    Uiso  ? Al
   Al10       1.0     0.554565     0.195758     0.626913    Uiso  ? Al
   Al11       1.0     0.113474     0.420844     0.386508    Uiso  ? Al
   Al12       1.0     0.783473     0.423614     0.814862    Uiso  ? Al
   Al13       1.0     0.442039     0.429189     0.393472    Uiso  ? Al
   Al14       1.0     0.550314     0.545264     0.139876    Uiso  ? Al
   Al15       1.0     0.109139     0.421753     0.874769    Uiso  ? Al
   Al16       1.0     0.563367     0.544115     0.621988    Uiso  ? Al
   Al17       1.0     0.219555     0.881844     0.137046    Uiso  ? Al
   Al18       1.0     0.767500     0.768411     0.870128    Uiso  ? Al
   Al19       1.0     0.886644     0.870030     0.574493    Uiso  ? Al
   Al20       1.0     0.445789     0.763483     0.381409    Uiso  ? Al
   Al21       1.0     0.549306     0.871949     0.133765    Uiso  ? Al
   Al22       1.0     0.102372     0.770587     0.808393    Uiso  ? Al
   Al23       1.0     0.773256     0.758867     0.389284    Uiso  ? Al
   Al24       1.0     0.893045     0.879136     0.058351    Uiso  ? Al
   Al25       1.0     0.440868     0.766585     0.885663    Uiso  ? Al
   Al26       1.0     0.555065     0.869488     0.630460    Uiso  ? Al
   Hf1        1.0     0.551922     0.200793     0.106952    Uiso  ? Hf
   Hf2        1.0     0.785864     0.092080     0.342078    Uiso  ? Hf
   Hf3        1.0     0.217482     0.546347     0.127127    Uiso  ? Hf
   Hf4        1.0     0.879325     0.542945     0.109008    Uiso  ? Hf
   Hf5        1.0     0.441310     0.436039     0.845717    Uiso  ? Hf
   Mg1        1.0     0.895565     0.541205     0.626142    Uiso  ? Mg
   Mg2        1.0     0.214181     0.536661     0.611472    Uiso  ? Mg
   Mg3        1.0     0.777024     0.433403     0.356153    Uiso  ? Mg
   Mg4        1.0     0.122003     0.762543     0.375976    Uiso  ? Mg
   Mg5        1.0     0.234436     0.871913     0.625937    Uiso  ? Mg
   N1         1.0     0.226055     0.203520     0.322838    Uiso  ? N
   N2         1.0     0.110138     0.094813     0.072561    Uiso  ? N
   N3         1.0     0.885217     0.204069     0.866022    Uiso  ? N
   N4         1.0     0.777853     0.095679     0.609846    Uiso  ? N
   N5         1.0     0.535931     0.214144     0.323079    Uiso  ? N
   N6         1.0     0.429669     0.082925     0.069300    Uiso  ? N
   N7         1.0     0.222766     0.203491     0.824725    Uiso  ? N
   N8         1.0     0.117814     0.101078     0.583160    Uiso  ? N
   N9         1.0     0.909870     0.199726     0.379326    Uiso  ? N
   N10        1.0     0.793007     0.088434     0.122594    Uiso  ? N
   N11        1.0     0.561611     0.185422     0.837621    Uiso  ? N
   N12        1.0     0.445382     0.091543     0.575981    Uiso  ? N
   N13        1.0     0.233324     0.520481     0.337702    Uiso  ? N
   N14        1.0     0.121162     0.406015     0.069592    Uiso  ? N
   N15        1.0     0.886648     0.540109     0.855331    Uiso  ? N
   N16        1.0     0.780117     0.416572     0.618567    Uiso  ? N
   N17        1.0     0.533235     0.546106     0.330059    Uiso  ? N
   N18        1.0     0.451883     0.437884     0.062331    Uiso  ? N
   N19        1.0     0.201419     0.548771     0.844312    Uiso  ? N
   N20        1.0     0.118919     0.407805     0.571733    Uiso  ? N
   N21        1.0     0.899491     0.550983     0.322145    Uiso  ? N
   N22        1.0     0.765684     0.417743     0.110800    Uiso  ? N
   N23        1.0     0.559637     0.556465     0.820250    Uiso  ? N
   N24        1.0     0.461392     0.416914     0.595010    Uiso  ? N
   N25        1.0     0.236178     0.885028     0.327633    Uiso  ? N
   N26        1.0     0.099537     0.781439     0.112011    Uiso  ? N
   N27        1.0     0.887098     0.878388     0.863689    Uiso  ? N
   N28        1.0     0.765287     0.773250     0.584589    Uiso  ? N
   N29        1.0     0.558450     0.872974     0.324325    Uiso  ? N
   N30        1.0     0.446005     0.759532     0.079304    Uiso  ? N
   N31        1.0     0.226555     0.868170     0.838116    Uiso  ? N
   N32        1.0     0.096106     0.771618     0.614412    Uiso  ? N
   N33        1.0     0.886049     0.863994     0.380484    Uiso  ? N
   N34        1.0     0.759040     0.787885     0.067887    Uiso  ? N
   N35        1.0     0.549536     0.872555     0.823283    Uiso  ? N
   N36        1.0     0.465386     0.752112     0.568009    Uiso  ? N
