
#======================================================================
# CRYSTAL DATA
#----------------------------------------------------------------------
data_VESTA_phase_1

_chemical_name_common                  'Al   Hf   Mg   N                      '
_cell_length_a                         9.802942
_cell_length_b                         9.784712
_cell_length_c                         10.030703
_cell_angle_alpha                      90.059731
_cell_angle_beta                       90.235649
_cell_angle_gamma                      59.930763
_cell_volume                           832.643465
_space_group_name_H-M_alt              'P 1'
_space_group_IT_number                 1

loop_
_space_group_symop_operation_xyz
   'x, y, z'

loop_
   _atom_site_label
   _atom_site_occupancy
   _atom_site_fract_x
   _atom_site_fract_y
   _atom_site_fract_z
   _atom_site_adp_type
   _atom_site_U_iso_or_equiv
   _atom_site_type_symbol
   Al1        1.0     0.121113     0.091540     0.312910    Uiso  ? Al
   Al2        1.0     0.221662     0.193325     0.058467    Uiso  ? Al
   Al3        1.0     0.786702     0.088652     0.798991    Uiso  ? Al
   Al4        1.0     0.898354     0.209008     0.569611    Uiso  ? Al
   Al5        1.0     0.434507     0.087297     0.320796    Uiso  ? Al
   Al6        1.0     0.113271     0.093307     0.811324    Uiso  ? Al
   Al7        1.0     0.217148     0.206479     0.565975    Uiso  ? Al
   Al8        1.0     0.895449     0.201700     0.056244    Uiso  ? Al
   Al9        1.0     0.440611     0.085890     0.804703    Uiso  ? Al
   Al10       1.0     0.551201     0.199791     0.565093    Uiso  ? Al
   Al11       1.0     0.114417     0.417487     0.318160    Uiso  ? Al
   Al12       1.0     0.781876     0.428536     0.806053    Uiso  ? Al
   Al13       1.0     0.441593     0.431605     0.351739    Uiso  ? Al
   Al14       1.0     0.561568     0.543183     0.058327    Uiso  ? Al
   Al15       1.0     0.106220     0.426335     0.805584    Uiso  ? Al
   Al16       1.0     0.560483     0.543449     0.562482    Uiso  ? Al
   Al17       1.0     0.222838     0.877020     0.064202    Uiso  ? Al
   Al18       1.0     0.773851     0.765471     0.810110    Uiso  ? Al
   Al19       1.0     0.888705     0.865554     0.571072    Uiso  ? Al
   Al20       1.0     0.442971     0.762265     0.313777    Uiso  ? Al
   Al21       1.0     0.548185     0.872403     0.062186    Uiso  ? Al
   Al22       1.0     0.104415     0.769765     0.809835    Uiso  ? Al
   Al23       1.0     0.773042     0.767669     0.316106    Uiso  ? Al
   Al24       1.0     0.891185     0.877545     0.056302    Uiso  ? Al
   Al25       1.0     0.445814     0.767113     0.809434    Uiso  ? Al
   Al26       1.0     0.557700     0.868122     0.563418    Uiso  ? Al
   Hf1        1.0     0.562128     0.188986     0.068818    Uiso  ? Hf
   Hf2        1.0     0.786568     0.091658     0.336225    Uiso  ? Hf
   Hf3        1.0     0.221336     0.543690     0.093847    Uiso  ? Hf
   Hf4        1.0     0.882292     0.541675     0.085723    Uiso  ? Hf
   Hf5        1.0     0.441041     0.432478     0.811687    Uiso  ? Hf
   Mg1        1.0     0.887921     0.542058     0.559220    Uiso  ? Mg
   Mg2        1.0     0.207625     0.546131     0.557491    Uiso  ? Mg
   Mg3        1.0     0.774658     0.427485     0.322480    Uiso  ? Mg
   Mg4        1.0     0.114006     0.769668     0.324410    Uiso  ? Mg
   Mg5        1.0     0.224030     0.875693     0.564287    Uiso  ? Mg
   N1         1.0     0.222325     0.204221     0.373070    Uiso  ? N
   N2         1.0     0.109192     0.095978     0.115954    Uiso  ? N
   N3         1.0     0.887722     0.203446     0.864956    Uiso  ? N
   N4         1.0     0.775378     0.097054     0.605474    Uiso  ? N
   N5         1.0     0.539609     0.207787     0.365264    Uiso  ? N
   N6         1.0     0.431230     0.083713     0.127289    Uiso  ? N
   N7         1.0     0.225936     0.203398     0.870168    Uiso  ? N
   N8         1.0     0.107314     0.107634     0.628106    Uiso  ? N
   N9         1.0     0.913619     0.197813     0.380528    Uiso  ? N
   N10        1.0     0.796449     0.088281     0.122789    Uiso  ? N
   N11        1.0     0.564780     0.186827     0.858718    Uiso  ? N
   N12        1.0     0.442581     0.091498     0.615916    Uiso  ? N
   N13        1.0     0.227641     0.526025     0.333040    Uiso  ? N
   N14        1.0     0.121256     0.401246     0.121632    Uiso  ? N
   N15        1.0     0.887353     0.541432     0.868568    Uiso  ? N
   N16        1.0     0.771602     0.422088     0.618958    Uiso  ? N
   N17        1.0     0.540865     0.547651     0.373133    Uiso  ? N
   N18        1.0     0.462822     0.425714     0.093733    Uiso  ? N
   N19        1.0     0.204907     0.547426     0.873075    Uiso  ? N
   N20        1.0     0.117421     0.414505     0.621647    Uiso  ? N
   N21        1.0     0.894317     0.548086     0.334165    Uiso  ? N
   N22        1.0     0.771636     0.414402     0.110471    Uiso  ? N
   N23        1.0     0.563197     0.548306     0.867726    Uiso  ? N
   N24        1.0     0.453865     0.421356     0.603472    Uiso  ? N
   N25        1.0     0.234358     0.882198     0.358205    Uiso  ? N
   N26        1.0     0.100436     0.783417     0.110950    Uiso  ? N
   N27        1.0     0.884229     0.877797     0.867270    Uiso  ? N
   N28        1.0     0.766991     0.776854     0.624520    Uiso  ? N
   N29        1.0     0.557112     0.869401     0.370388    Uiso  ? N
   N30        1.0     0.449283     0.756654     0.117626    Uiso  ? N
   N31        1.0     0.225695     0.871997     0.870105    Uiso  ? N
   N32        1.0     0.096749     0.771037     0.625179    Uiso  ? N
   N33        1.0     0.884293     0.861264     0.381746    Uiso  ? N
   N34        1.0     0.763056     0.792070     0.119810    Uiso  ? N
   N35        1.0     0.553751     0.874960     0.872472    Uiso  ? N
   N36        1.0     0.461456     0.753898     0.624270    Uiso  ? N
