
#======================================================================
# CRYSTAL DATA
#----------------------------------------------------------------------
data_VESTA_phase_1

_chemical_name_common                  'Al   Hf   Mg   N                      '
_cell_length_a                         9.900382
_cell_length_b                         9.873102
_cell_length_c                         9.864166
_cell_angle_alpha                      89.944458
_cell_angle_beta                       90.033089
_cell_angle_gamma                      60.168690
_cell_volume                           836.434221
_space_group_name_H-M_alt              'P 1'
_space_group_IT_number                 1

loop_
_space_group_symop_operation_xyz
   'x, y, z'

loop_
   _atom_site_label
   _atom_site_occupancy
   _atom_site_fract_x
   _atom_site_fract_y
   _atom_site_fract_z
   _atom_site_adp_type
   _atom_site_U_iso_or_equiv
   _atom_site_type_symbol
   Al1        1.0     0.123034     0.092844     0.315839    Uiso  ? Al
   Al2        1.0     0.217734     0.194241     0.069822    Uiso  ? Al
   Al3        1.0     0.789590     0.087602     0.808895    Uiso  ? Al
   Al4        1.0     0.904475     0.204969     0.576205    Uiso  ? Al
   Al5        1.0     0.441354     0.088466     0.382667    Uiso  ? Al
   Al6        1.0     0.113722     0.090615     0.820567    Uiso  ? Al
   Al7        1.0     0.220197     0.201589     0.581379    Uiso  ? Al
   Al8        1.0     0.890128     0.204245     0.065556    Uiso  ? Al
   Al9        1.0     0.442278     0.081317     0.873380    Uiso  ? Al
   Al10       1.0     0.553907     0.195601     0.627456    Uiso  ? Al
   Al11       1.0     0.112257     0.424917     0.388545    Uiso  ? Al
   Al12       1.0     0.782795     0.423463     0.817880    Uiso  ? Al
   Al13       1.0     0.440507     0.429635     0.393821    Uiso  ? Al
   Al14       1.0     0.553987     0.541663     0.142143    Uiso  ? Al
   Al15       1.0     0.106131     0.426775     0.867936    Uiso  ? Al
   Al16       1.0     0.562411     0.544282     0.621313    Uiso  ? Al
   Al17       1.0     0.218282     0.877323     0.083401    Uiso  ? Al
   Al18       1.0     0.769365     0.768061     0.870366    Uiso  ? Al
   Al19       1.0     0.890596     0.867994     0.578081    Uiso  ? Al
   Al20       1.0     0.447413     0.761225     0.380953    Uiso  ? Al
   Al21       1.0     0.551518     0.869397     0.135738    Uiso  ? Al
   Al22       1.0     0.103903     0.774684     0.816179    Uiso  ? Al
   Al23       1.0     0.773269     0.759233     0.392212    Uiso  ? Al
   Al24       1.0     0.889884     0.879675     0.064044    Uiso  ? Al
   Al25       1.0     0.446189     0.764138     0.884527    Uiso  ? Al
   Al26       1.0     0.555390     0.868221     0.631654    Uiso  ? Al
   Hf1        1.0     0.555447     0.199073     0.111065    Uiso  ? Hf
   Hf2        1.0     0.785478     0.093593     0.352940    Uiso  ? Hf
   Hf3        1.0     0.220319     0.542707     0.119633    Uiso  ? Hf
   Hf4        1.0     0.878795     0.542363     0.113070    Uiso  ? Hf
   Hf5        1.0     0.442464     0.434230     0.844196    Uiso  ? Hf
   Mg1        1.0     0.892275     0.542681     0.627206    Uiso  ? Mg
   Mg2        1.0     0.211988     0.545894     0.607612    Uiso  ? Mg
   Mg3        1.0     0.779096     0.431218     0.366465    Uiso  ? Mg
   Mg4        1.0     0.115519     0.766530     0.341633    Uiso  ? Mg
   Mg5        1.0     0.221951     0.878855     0.571234    Uiso  ? Mg
   N1         1.0     0.225373     0.203599     0.359900    Uiso  ? N
   N2         1.0     0.104120     0.098717     0.118563    Uiso  ? N
   N3         1.0     0.886855     0.202849     0.869909    Uiso  ? N
   N4         1.0     0.777200     0.096290     0.608124    Uiso  ? N
   N5         1.0     0.536952     0.213605     0.328364    Uiso  ? N
   N6         1.0     0.437298     0.078703     0.072754    Uiso  ? N
   N7         1.0     0.221532     0.202450     0.864802    Uiso  ? N
   N8         1.0     0.109483     0.104430     0.633890    Uiso  ? N
   N9         1.0     0.918219     0.195030     0.384800    Uiso  ? N
   N10        1.0     0.794566     0.087570     0.128550    Uiso  ? N
   N11        1.0     0.563522     0.184503     0.837449    Uiso  ? N
   N12        1.0     0.447345     0.088683     0.580582    Uiso  ? N
   N13        1.0     0.232809     0.520862     0.336254    Uiso  ? N
   N14        1.0     0.116107     0.411852     0.073197    Uiso  ? N
   N15        1.0     0.884843     0.541386     0.854969    Uiso  ? N
   N16        1.0     0.778680     0.416082     0.617189    Uiso  ? N
   N17        1.0     0.536898     0.542705     0.334109    Uiso  ? N
   N18        1.0     0.455964     0.434303     0.063910    Uiso  ? N
   N19        1.0     0.203093     0.552102     0.855153    Uiso  ? N
   N20        1.0     0.116978     0.414384     0.582234    Uiso  ? N
   N21        1.0     0.897609     0.551340     0.328755    Uiso  ? N
   N22        1.0     0.767435     0.415591     0.110888    Uiso  ? N
   N23        1.0     0.559703     0.555277     0.821393    Uiso  ? N
   N24        1.0     0.458991     0.417447     0.597969    Uiso  ? N
   N25        1.0     0.235700     0.881712     0.351272    Uiso  ? N
   N26        1.0     0.097624     0.779458     0.117612    Uiso  ? N
   N27        1.0     0.886807     0.879789     0.867761    Uiso  ? N
   N28        1.0     0.766046     0.774748     0.589136    Uiso  ? N
   N29        1.0     0.559943     0.871052     0.327249    Uiso  ? N
   N30        1.0     0.451778     0.754843     0.080882    Uiso  ? N
   N31        1.0     0.220062     0.874712     0.878994    Uiso  ? N
   N32        1.0     0.095694     0.777320     0.626496    Uiso  ? N
   N33        1.0     0.885998     0.863984     0.381912    Uiso  ? N
   N34        1.0     0.760163     0.785817     0.070970    Uiso  ? N
   N35        1.0     0.551373     0.871188     0.825259    Uiso  ? N
   N36        1.0     0.464945     0.752158     0.572309    Uiso  ? N
