
#======================================================================
# CRYSTAL DATA
#----------------------------------------------------------------------
data_VESTA_phase_1

_chemical_name_common                  'Al   Hf   Mg   N                      '
_cell_length_a                         9.869438
_cell_length_b                         9.847911
_cell_length_c                         9.929513
_cell_angle_alpha                      90.025192
_cell_angle_beta                       90.168037
_cell_angle_gamma                      60.089691
_cell_volume                           836.536222
_space_group_name_H-M_alt              'P 1'
_space_group_IT_number                 1

loop_
_space_group_symop_operation_xyz
   'x, y, z'

loop_
   _atom_site_label
   _atom_site_occupancy
   _atom_site_fract_x
   _atom_site_fract_y
   _atom_site_fract_z
   _atom_site_adp_type
   _atom_site_U_iso_or_equiv
   _atom_site_type_symbol
   Al1        1.0     0.123261     0.091468     0.319525    Uiso  ? Al
   Al2        1.0     0.213671     0.199407     0.065562    Uiso  ? Al
   Al3        1.0     0.789708     0.088071     0.811418    Uiso  ? Al
   Al4        1.0     0.904022     0.204370     0.576891    Uiso  ? Al
   Al5        1.0     0.442002     0.089155     0.387658    Uiso  ? Al
   Al6        1.0     0.113028     0.092783     0.820735    Uiso  ? Al
   Al7        1.0     0.216432     0.206814     0.575459    Uiso  ? Al
   Al8        1.0     0.890882     0.204270     0.067685    Uiso  ? Al
   Al9        1.0     0.440885     0.082219     0.876396    Uiso  ? Al
   Al10       1.0     0.554739     0.195523     0.629736    Uiso  ? Al
   Al11       1.0     0.116513     0.417638     0.328584    Uiso  ? Al
   Al12       1.0     0.786621     0.424415     0.813986    Uiso  ? Al
   Al13       1.0     0.442795     0.429321     0.391203    Uiso  ? Al
   Al14       1.0     0.551529     0.544071     0.141282    Uiso  ? Al
   Al15       1.0     0.105687     0.426423     0.814319    Uiso  ? Al
   Al16       1.0     0.564492     0.542865     0.622428    Uiso  ? Al
   Al17       1.0     0.217073     0.880804     0.080684    Uiso  ? Al
   Al18       1.0     0.779224     0.761546     0.820178    Uiso  ? Al
   Al19       1.0     0.892324     0.864174     0.581516    Uiso  ? Al
   Al20       1.0     0.447122     0.760785     0.384495    Uiso  ? Al
   Al21       1.0     0.547833     0.872807     0.138461    Uiso  ? Al
   Al22       1.0     0.104090     0.771331     0.819733    Uiso  ? Al
   Al23       1.0     0.776464     0.762405     0.345531    Uiso  ? Al
   Al24       1.0     0.887251     0.879294     0.064636    Uiso  ? Al
   Al25       1.0     0.447679     0.763928     0.885864    Uiso  ? Al
   Al26       1.0     0.554141     0.869669     0.632872    Uiso  ? Al
   Hf1        1.0     0.554763     0.200668     0.110536    Uiso  ? Hf
   Hf2        1.0     0.784611     0.092100     0.353731    Uiso  ? Hf
   Hf3        1.0     0.218904     0.547267     0.105650    Uiso  ? Hf
   Hf4        1.0     0.878672     0.542660     0.094316    Uiso  ? Hf
   Hf5        1.0     0.436756     0.437335     0.839579    Uiso  ? Hf
   Mg1        1.0     0.893751     0.536864     0.571674    Uiso  ? Mg
   Mg2        1.0     0.207183     0.546873     0.571356    Uiso  ? Mg
   Mg3        1.0     0.778694     0.425055     0.345209    Uiso  ? Mg
   Mg4        1.0     0.115116     0.768773     0.335209    Uiso  ? Mg
   Mg5        1.0     0.221952     0.877099     0.575139    Uiso  ? Mg
   N1         1.0     0.221780     0.204797     0.377726    Uiso  ? N
   N2         1.0     0.105650     0.100075     0.123758    Uiso  ? N
   N3         1.0     0.887115     0.203773     0.873334    Uiso  ? N
   N4         1.0     0.779022     0.095059     0.611260    Uiso  ? N
   N5         1.0     0.535708     0.213827     0.327251    Uiso  ? N
   N6         1.0     0.435771     0.080535     0.074449    Uiso  ? N
   N7         1.0     0.215835     0.208744     0.874648    Uiso  ? N
   N8         1.0     0.110280     0.105221     0.635425    Uiso  ? N
   N9         1.0     0.916960     0.193129     0.386575    Uiso  ? N
   N10        1.0     0.794898     0.088185     0.131294    Uiso  ? N
   N11        1.0     0.561525     0.187045     0.838426    Uiso  ? N
   N12        1.0     0.449227     0.088564     0.581943    Uiso  ? N
   N13        1.0     0.231545     0.524381     0.343655    Uiso  ? N
   N14        1.0     0.119904     0.404834     0.130016    Uiso  ? N
   N15        1.0     0.887761     0.538878     0.873518    Uiso  ? N
   N16        1.0     0.781320     0.415052     0.620520    Uiso  ? N
   N17        1.0     0.535433     0.544156     0.331914    Uiso  ? N
   N18        1.0     0.457366     0.435290     0.061146    Uiso  ? N
   N19        1.0     0.196634     0.552373     0.879663    Uiso  ? N
   N20        1.0     0.121508     0.412192     0.629069    Uiso  ? N
   N21        1.0     0.896363     0.546137     0.347630    Uiso  ? N
   N22        1.0     0.768194     0.415852     0.119062    Uiso  ? N
   N23        1.0     0.560168     0.554024     0.822128    Uiso  ? N
   N24        1.0     0.458557     0.418127     0.597355    Uiso  ? N
   N25        1.0     0.234790     0.882132     0.358093    Uiso  ? N
   N26        1.0     0.096488     0.784461     0.120080    Uiso  ? N
   N27        1.0     0.884373     0.878862     0.872436    Uiso  ? N
   N28        1.0     0.773888     0.771288     0.625609    Uiso  ? N
   N29        1.0     0.553984     0.874595     0.331116    Uiso  ? N
   N30        1.0     0.451251     0.756541     0.081163    Uiso  ? N
   N31        1.0     0.219313     0.875558     0.880065    Uiso  ? N
   N32        1.0     0.098969     0.771123     0.632555    Uiso  ? N
   N33        1.0     0.885959     0.861512     0.390181    Uiso  ? N
   N34        1.0     0.766366     0.786522     0.114196    Uiso  ? N
   N35        1.0     0.550241     0.872103     0.828484    Uiso  ? N
   N36        1.0     0.467334     0.750661     0.573567    Uiso  ? N
