
#======================================================================
# CRYSTAL DATA
#----------------------------------------------------------------------
data_VESTA_phase_1

_chemical_name_common                  'Al   Hf   Mg   N                      '
_cell_length_a                         9.869294
_cell_length_b                         9.834567
_cell_length_c                         9.966057
_cell_angle_alpha                      90.139793
_cell_angle_beta                       89.822319
_cell_angle_gamma                      59.995918
_cell_volume                           837.665767
_space_group_name_H-M_alt              'P 1'
_space_group_IT_number                 1

loop_
_space_group_symop_operation_xyz
   'x, y, z'

loop_
   _atom_site_label
   _atom_site_occupancy
   _atom_site_fract_x
   _atom_site_fract_y
   _atom_site_fract_z
   _atom_site_adp_type
   _atom_site_U_iso_or_equiv
   _atom_site_type_symbol
   Al1        1.0     0.128879     0.091663     0.396899    Uiso  ? Al
   Al2        1.0     0.217496     0.194899     0.139103    Uiso  ? Al
   Al3        1.0     0.789363     0.087699     0.812233    Uiso  ? Al
   Al4        1.0     0.899529     0.205968     0.579046    Uiso  ? Al
   Al5        1.0     0.438936     0.092048     0.388264    Uiso  ? Al
   Al6        1.0     0.119025     0.085288     0.881514    Uiso  ? Al
   Al7        1.0     0.222269     0.205196     0.637104    Uiso  ? Al
   Al8        1.0     0.887397     0.206406     0.067682    Uiso  ? Al
   Al9        1.0     0.436656     0.083818     0.881236    Uiso  ? Al
   Al10       1.0     0.554611     0.195744     0.632167    Uiso  ? Al
   Al11       1.0     0.113509     0.420801     0.391816    Uiso  ? Al
   Al12       1.0     0.783491     0.423632     0.820239    Uiso  ? Al
   Al13       1.0     0.442109     0.429185     0.398723    Uiso  ? Al
   Al14       1.0     0.550464     0.545181     0.145131    Uiso  ? Al
   Al15       1.0     0.109155     0.421721     0.880045    Uiso  ? Al
   Al16       1.0     0.563315     0.544169     0.627346    Uiso  ? Al
   Al17       1.0     0.219566     0.881829     0.142327    Uiso  ? Al
   Al18       1.0     0.767542     0.768363     0.875451    Uiso  ? Al
   Al19       1.0     0.886657     0.870041     0.579698    Uiso  ? Al
   Al20       1.0     0.445808     0.763489     0.386647    Uiso  ? Al
   Al21       1.0     0.549314     0.871931     0.139038    Uiso  ? Al
   Al22       1.0     0.102385     0.770528     0.813659    Uiso  ? Al
   Al23       1.0     0.773249     0.758957     0.394507    Uiso  ? Al
   Al24       1.0     0.893065     0.879092     0.063706    Uiso  ? Al
   Al25       1.0     0.440890     0.766537     0.890960    Uiso  ? Al
   Al26       1.0     0.555091     0.869486     0.635724    Uiso  ? Al
   Hf1        1.0     0.551964     0.200773     0.112195    Uiso  ? Hf
   Hf2        1.0     0.785925     0.092217     0.347318    Uiso  ? Hf
   Hf3        1.0     0.217478     0.546317     0.132386    Uiso  ? Hf
   Hf4        1.0     0.879324     0.542850     0.114425    Uiso  ? Hf
   Hf5        1.0     0.441313     0.436010     0.850985    Uiso  ? Hf
   Mg1        1.0     0.895629     0.541323     0.631597    Uiso  ? Mg
   Mg2        1.0     0.214225     0.536632     0.616654    Uiso  ? Mg
   Mg3        1.0     0.776934     0.433761     0.362806    Uiso  ? Mg
   Mg4        1.0     0.121976     0.762544     0.381158    Uiso  ? Mg
   Mg5        1.0     0.234468     0.871834     0.631155    Uiso  ? Mg
   N1         1.0     0.226117     0.203494     0.328140    Uiso  ? N
   N2         1.0     0.110170     0.094777     0.077787    Uiso  ? N
   N3         1.0     0.885368     0.203952     0.871058    Uiso  ? N
   N4         1.0     0.777884     0.095663     0.615084    Uiso  ? N
   N5         1.0     0.536011     0.214142     0.328377    Uiso  ? N
   N6         1.0     0.429706     0.082910     0.074591    Uiso  ? N
   N7         1.0     0.222835     0.203446     0.830025    Uiso  ? N
   N8         1.0     0.117885     0.101027     0.588517    Uiso  ? N
   N9         1.0     0.909919     0.199843     0.384633    Uiso  ? N
   N10        1.0     0.793037     0.088461     0.127790    Uiso  ? N
   N11        1.0     0.561673     0.185382     0.842925    Uiso  ? N
   N12        1.0     0.445416     0.091546     0.581288    Uiso  ? N
   N13        1.0     0.233366     0.520454     0.343032    Uiso  ? N
   N14        1.0     0.121138     0.405988     0.074904    Uiso  ? N
   N15        1.0     0.886713     0.540112     0.860467    Uiso  ? N
   N16        1.0     0.780100     0.416673     0.623612    Uiso  ? N
   N17        1.0     0.533385     0.546057     0.335345    Uiso  ? N
   N18        1.0     0.451864     0.437886     0.067643    Uiso  ? N
   N19        1.0     0.201447     0.548732     0.849619    Uiso  ? N
   N20        1.0     0.118927     0.407784     0.577068    Uiso  ? N
   N21        1.0     0.899461     0.550976     0.327555    Uiso  ? N
   N22        1.0     0.765613     0.417809     0.115395    Uiso  ? N
   N23        1.0     0.559674     0.556408     0.825528    Uiso  ? N
   N24        1.0     0.461418     0.416910     0.600313    Uiso  ? N
   N25        1.0     0.236182     0.885028     0.332959    Uiso  ? N
   N26        1.0     0.099553     0.781406     0.117386    Uiso  ? N
   N27        1.0     0.887140     0.878326     0.868995    Uiso  ? N
   N28        1.0     0.765286     0.773315     0.589822    Uiso  ? N
   N29        1.0     0.558449     0.872998     0.329615    Uiso  ? N
   N30        1.0     0.445996     0.759524     0.084626    Uiso  ? N
   N31        1.0     0.226608     0.868058     0.843382    Uiso  ? N
   N32        1.0     0.096100     0.771588     0.619640    Uiso  ? N
   N33        1.0     0.886030     0.864078     0.385650    Uiso  ? N
   N34        1.0     0.759079     0.787807     0.073228    Uiso  ? N
   N35        1.0     0.549579     0.872494     0.828585    Uiso  ? N
   N36        1.0     0.465415     0.752112     0.573286    Uiso  ? N
