
#======================================================================
# CRYSTAL DATA
#----------------------------------------------------------------------
data_VESTA_phase_1

_chemical_name_common                  'Al   Hf   Mg   N                      '
_cell_length_a                         9.844496
_cell_length_b                         9.827085
_cell_length_c                         10.023877
_cell_angle_alpha                      90.000282
_cell_angle_beta                       90.215401
_cell_angle_gamma                      60.076809
_cell_volume                           840.458105
_space_group_name_H-M_alt              'P 1'
_space_group_IT_number                 1

loop_
_space_group_symop_operation_xyz
   'x, y, z'

loop_
   _atom_site_label
   _atom_site_occupancy
   _atom_site_fract_x
   _atom_site_fract_y
   _atom_site_fract_z
   _atom_site_adp_type
   _atom_site_U_iso_or_equiv
   _atom_site_type_symbol
   Al1        1.0     0.123551     0.090930     0.320585    Uiso  ? Al
   Al2        1.0     0.212891     0.198730     0.065215    Uiso  ? Al
   Al3        1.0     0.785214     0.088311     0.812366    Uiso  ? Al
   Al4        1.0     0.902633     0.204788     0.577354    Uiso  ? Al
   Al5        1.0     0.441378     0.086483     0.388849    Uiso  ? Al
   Al6        1.0     0.112308     0.092680     0.819676    Uiso  ? Al
   Al7        1.0     0.214465     0.208580     0.575825    Uiso  ? Al
   Al8        1.0     0.892466     0.203629     0.065252    Uiso  ? Al
   Al9        1.0     0.440870     0.081886     0.877871    Uiso  ? Al
   Al10       1.0     0.558855     0.198367     0.587634    Uiso  ? Al
   Al11       1.0     0.116214     0.417047     0.326324    Uiso  ? Al
   Al12       1.0     0.787055     0.423952     0.812866    Uiso  ? Al
   Al13       1.0     0.441584     0.433547     0.388706    Uiso  ? Al
   Al14       1.0     0.550585     0.544666     0.142453    Uiso  ? Al
   Al15       1.0     0.103929     0.427033     0.813565    Uiso  ? Al
   Al16       1.0     0.564390     0.544499     0.624661    Uiso  ? Al
   Al17       1.0     0.216876     0.880502     0.077283    Uiso  ? Al
   Al18       1.0     0.780616     0.761262     0.818959    Uiso  ? Al
   Al19       1.0     0.890526     0.864698     0.579635    Uiso  ? Al
   Al20       1.0     0.447881     0.761738     0.387564    Uiso  ? Al
   Al21       1.0     0.543458     0.874500     0.140580    Uiso  ? Al
   Al22       1.0     0.103093     0.770817     0.819270    Uiso  ? Al
   Al23       1.0     0.779785     0.764246     0.325022    Uiso  ? Al
   Al24       1.0     0.889726     0.877041     0.064610    Uiso  ? Al
   Al25       1.0     0.447902     0.762461     0.886330    Uiso  ? Al
   Al26       1.0     0.555041     0.870757     0.635655    Uiso  ? Al
   Hf1        1.0     0.558413     0.198792     0.094203    Uiso  ? Hf
   Hf2        1.0     0.790277     0.089445     0.343372    Uiso  ? Hf
   Hf3        1.0     0.218698     0.546086     0.103244    Uiso  ? Hf
   Hf4        1.0     0.878466     0.540420     0.092884    Uiso  ? Hf
   Hf5        1.0     0.437888     0.431987     0.835741    Uiso  ? Hf
   Mg1        1.0     0.889814     0.542908     0.565754    Uiso  ? Mg
   Mg2        1.0     0.204743     0.547953     0.570700    Uiso  ? Mg
   Mg3        1.0     0.779133     0.425189     0.343893    Uiso  ? Mg
   Mg4        1.0     0.116951     0.767399     0.333919    Uiso  ? Mg
   Mg5        1.0     0.220717     0.877528     0.575888    Uiso  ? Mg
   N1         1.0     0.221037     0.205289     0.379274    Uiso  ? N
   N2         1.0     0.106150     0.098521     0.125227    Uiso  ? N
   N3         1.0     0.887007     0.203363     0.873400    Uiso  ? N
   N4         1.0     0.778742     0.095316     0.615980    Uiso  ? N
   N5         1.0     0.542347     0.211225     0.350276    Uiso  ? N
   N6         1.0     0.433544     0.081416     0.078459    Uiso  ? N
   N7         1.0     0.215307     0.208784     0.875756    Uiso  ? N
   N8         1.0     0.109541     0.105837     0.636480    Uiso  ? N
   N9         1.0     0.916932     0.193909     0.389109    Uiso  ? N
   N10        1.0     0.797351     0.086670     0.129695    Uiso  ? N
   N11        1.0     0.566129     0.184960     0.868593    Uiso  ? N
   N12        1.0     0.448095     0.089381     0.583888    Uiso  ? N
   N13        1.0     0.231480     0.523539     0.341887    Uiso  ? N
   N14        1.0     0.118865     0.403625     0.129959    Uiso  ? N
   N15        1.0     0.886349     0.539656     0.876341    Uiso  ? N
   N16        1.0     0.781463     0.416592     0.621532    Uiso  ? N
   N17        1.0     0.535520     0.546599     0.331352    Uiso  ? N
   N18        1.0     0.456222     0.437010     0.063375    Uiso  ? N
   N19        1.0     0.197404     0.550697     0.879983    Uiso  ? N
   N20        1.0     0.117817     0.414392     0.629967    Uiso  ? N
   N21        1.0     0.896255     0.546981     0.345220    Uiso  ? N
   N22        1.0     0.768339     0.413801     0.120322    Uiso  ? N
   N23        1.0     0.559313     0.552079     0.822478    Uiso  ? N
   N24        1.0     0.456679     0.421325     0.598484    Uiso  ? N
   N25        1.0     0.234393     0.882300     0.362572    Uiso  ? N
   N26        1.0     0.098275     0.783620     0.121137    Uiso  ? N
   N27        1.0     0.884418     0.877306     0.875978    Uiso  ? N
   N28        1.0     0.774613     0.772496     0.631723    Uiso  ? N
   N29        1.0     0.553445     0.874234     0.330453    Uiso  ? N
   N30        1.0     0.451271     0.756197     0.079850    Uiso  ? N
   N31        1.0     0.218544     0.875381     0.880123    Uiso  ? N
   N32        1.0     0.097191     0.771741     0.634139    Uiso  ? N
   N33        1.0     0.886230     0.860610     0.390649    Uiso  ? N
   N34        1.0     0.768439     0.786552     0.125530    Uiso  ? N
   N35        1.0     0.550424     0.871673     0.830773    Uiso  ? N
   N36        1.0     0.467835     0.751926     0.575132    Uiso  ? N
