
#======================================================================
# CRYSTAL DATA
#----------------------------------------------------------------------
data_VESTA_phase_1

_chemical_name_common                  'Al   Hf   Mg   N                      '
_cell_length_a                         9.889426
_cell_length_b                         9.857685
_cell_length_c                         9.911963
_cell_angle_alpha                      90.116989
_cell_angle_beta                       90.035149
_cell_angle_gamma                      60.022369
_cell_volume                           837.014949
_space_group_name_H-M_alt              'P 1'
_space_group_IT_number                 1

loop_
_space_group_symop_operation_xyz
   'x, y, z'

loop_
   _atom_site_label
   _atom_site_occupancy
   _atom_site_fract_x
   _atom_site_fract_y
   _atom_site_fract_z
   _atom_site_adp_type
   _atom_site_U_iso_or_equiv
   _atom_site_type_symbol
   Al1        1.0     0.117996     0.094076     0.320331    Uiso  ? Al
   Al2        1.0     0.222581     0.198524     0.128296    Uiso  ? Al
   Al3        1.0     0.789556     0.088035     0.808194    Uiso  ? Al
   Al4        1.0     0.903228     0.205901     0.575915    Uiso  ? Al
   Al5        1.0     0.437589     0.091262     0.383833    Uiso  ? Al
   Al6        1.0     0.113036     0.088776     0.822018    Uiso  ? Al
   Al7        1.0     0.222236     0.206854     0.632058    Uiso  ? Al
   Al8        1.0     0.892251     0.203837     0.063938    Uiso  ? Al
   Al9        1.0     0.438300     0.083840     0.876485    Uiso  ? Al
   Al10       1.0     0.553673     0.195332     0.627495    Uiso  ? Al
   Al11       1.0     0.114560     0.419876     0.385592    Uiso  ? Al
   Al12       1.0     0.782526     0.424557     0.816941    Uiso  ? Al
   Al13       1.0     0.441231     0.429006     0.393550    Uiso  ? Al
   Al14       1.0     0.554227     0.541863     0.141068    Uiso  ? Al
   Al15       1.0     0.108778     0.423834     0.874415    Uiso  ? Al
   Al16       1.0     0.562024     0.544862     0.621885    Uiso  ? Al
   Al17       1.0     0.222656     0.875877     0.115221    Uiso  ? Al
   Al18       1.0     0.768110     0.769000     0.869924    Uiso  ? Al
   Al19       1.0     0.888074     0.868659     0.576692    Uiso  ? Al
   Al20       1.0     0.448097     0.760917     0.379397    Uiso  ? Al
   Al21       1.0     0.551313     0.871064     0.134618    Uiso  ? Al
   Al22       1.0     0.104377     0.773614     0.812904    Uiso  ? Al
   Al23       1.0     0.772566     0.758776     0.390601    Uiso  ? Al
   Al24       1.0     0.891747     0.879683     0.061563    Uiso  ? Al
   Al25       1.0     0.441457     0.767173     0.886321    Uiso  ? Al
   Al26       1.0     0.554034     0.869294     0.631191    Uiso  ? Al
   Hf1        1.0     0.555877     0.199358     0.108845    Uiso  ? Hf
   Hf2        1.0     0.784635     0.093616     0.350155    Uiso  ? Hf
   Hf3        1.0     0.220336     0.543024     0.121329    Uiso  ? Hf
   Hf4        1.0     0.879130     0.542743     0.110097    Uiso  ? Hf
   Hf5        1.0     0.442182     0.435241     0.844419    Uiso  ? Hf
   Mg1        1.0     0.894632     0.541061     0.626372    Uiso  ? Mg
   Mg2        1.0     0.211911     0.540109     0.609563    Uiso  ? Mg
   Mg3        1.0     0.778957     0.432168     0.361660    Uiso  ? Mg
   Mg4        1.0     0.115893     0.762122     0.352167    Uiso  ? Mg
   Mg5        1.0     0.226165     0.874808     0.588463    Uiso  ? Mg
   N1         1.0     0.228737     0.205471     0.321806    Uiso  ? N
   N2         1.0     0.103178     0.100010     0.118322    Uiso  ? N
   N3         1.0     0.886570     0.203815     0.869765    Uiso  ? N
   N4         1.0     0.776779     0.096170     0.608393    Uiso  ? N
   N5         1.0     0.536661     0.213153     0.326003    Uiso  ? N
   N6         1.0     0.433237     0.081772     0.069967    Uiso  ? N
   N7         1.0     0.226375     0.207492     0.829386    Uiso  ? N
   N8         1.0     0.107408     0.103605     0.631689    Uiso  ? N
   N9         1.0     0.915864     0.196759     0.385955    Uiso  ? N
   N10        1.0     0.795216     0.087940     0.127453    Uiso  ? N
   N11        1.0     0.563626     0.184688     0.837614    Uiso  ? N
   N12        1.0     0.443498     0.091250     0.577330    Uiso  ? N
   N13        1.0     0.234006     0.518509     0.335014    Uiso  ? N
   N14        1.0     0.119393     0.407675     0.069414    Uiso  ? N
   N15        1.0     0.886416     0.540911     0.855115    Uiso  ? N
   N16        1.0     0.778390     0.417094     0.618149    Uiso  ? N
   N17        1.0     0.536478     0.542585     0.332170    Uiso  ? N
   N18        1.0     0.455718     0.435364     0.062676    Uiso  ? N
   N19        1.0     0.202188     0.551232     0.851040    Uiso  ? N
   N20        1.0     0.118238     0.408469     0.572181    Uiso  ? N
   N21        1.0     0.899071     0.550918     0.324478    Uiso  ? N
   N22        1.0     0.768057     0.415842     0.111124    Uiso  ? N
   N23        1.0     0.558830     0.557134     0.820858    Uiso  ? N
   N24        1.0     0.459314     0.417292     0.596816    Uiso  ? N
   N25        1.0     0.237790     0.878514     0.333013    Uiso  ? N
   N26        1.0     0.097693     0.778721     0.118671    Uiso  ? N
   N27        1.0     0.887306     0.879365     0.865963    Uiso  ? N
   N28        1.0     0.764857     0.773769     0.586865    Uiso  ? N
   N29        1.0     0.558462     0.872614     0.325737    Uiso  ? N
   N30        1.0     0.451965     0.755625     0.081214    Uiso  ? N
   N31        1.0     0.221365     0.872389     0.866740    Uiso  ? N
   N32        1.0     0.095377     0.773251     0.620841    Uiso  ? N
   N33        1.0     0.884009     0.864760     0.381576    Uiso  ? N
   N34        1.0     0.759697     0.787457     0.069265    Uiso  ? N
   N35        1.0     0.549430     0.872836     0.824339    Uiso  ? N
   N36        1.0     0.464213     0.752667     0.568647    Uiso  ? N
