
#======================================================================
# CRYSTAL DATA
#----------------------------------------------------------------------
data_VESTA_phase_1

_chemical_name_common                  'Al   Hf   Mg   N                      '
_cell_length_a                         9.852551
_cell_length_b                         9.821542
_cell_length_c                         9.974894
_cell_angle_alpha                      90.155190
_cell_angle_beta                       90.074905
_cell_angle_gamma                      59.831749
_cell_volume                           834.501041
_space_group_name_H-M_alt              'P 1'
_space_group_IT_number                 1

loop_
_space_group_symop_operation_xyz
   'x, y, z'

loop_
   _atom_site_label
   _atom_site_occupancy
   _atom_site_fract_x
   _atom_site_fract_y
   _atom_site_fract_z
   _atom_site_adp_type
   _atom_site_U_iso_or_equiv
   _atom_site_type_symbol
   Al1        1.0     0.120735     0.096155     0.391966    Uiso  ? Al
   Al2        1.0     0.221654     0.194528     0.141191    Uiso  ? Al
   Al3        1.0     0.784769     0.089918     0.846890    Uiso  ? Al
   Al4        1.0     0.896742     0.210824     0.642060    Uiso  ? Al
   Al5        1.0     0.438448     0.090538     0.392335    Uiso  ? Al
   Al6        1.0     0.115174     0.086886     0.888266    Uiso  ? Al
   Al7        1.0     0.217689     0.204873     0.636899    Uiso  ? Al
   Al8        1.0     0.900475     0.200327     0.136424    Uiso  ? Al
   Al9        1.0     0.435887     0.083579     0.883636    Uiso  ? Al
   Al10       1.0     0.552791     0.194885     0.639087    Uiso  ? Al
   Al11       1.0     0.113461     0.421031     0.395979    Uiso  ? Al
   Al12       1.0     0.778038     0.425654     0.883507    Uiso  ? Al
   Al13       1.0     0.443152     0.431880     0.403498    Uiso  ? Al
   Al14       1.0     0.554860     0.542769     0.143419    Uiso  ? Al
   Al15       1.0     0.109476     0.421409     0.881572    Uiso  ? Al
   Al16       1.0     0.568408     0.541494     0.633525    Uiso  ? Al
   Al17       1.0     0.223674     0.879582     0.145206    Uiso  ? Al
   Al18       1.0     0.768465     0.766736     0.878406    Uiso  ? Al
   Al19       1.0     0.885645     0.867621     0.587784    Uiso  ? Al
   Al20       1.0     0.448029     0.760664     0.388786    Uiso  ? Al
   Al21       1.0     0.550722     0.871363     0.141536    Uiso  ? Al
   Al22       1.0     0.103371     0.770500     0.813382    Uiso  ? Al
   Al23       1.0     0.772735     0.759825     0.397726    Uiso  ? Al
   Al24       1.0     0.895580     0.877413     0.066759    Uiso  ? Al
   Al25       1.0     0.440441     0.767114     0.891380    Uiso  ? Al
   Al26       1.0     0.554635     0.867905     0.638149    Uiso  ? Al
   Hf1        1.0     0.555961     0.199154     0.122648    Uiso  ? Hf
   Hf2        1.0     0.779313     0.104644     0.387581    Uiso  ? Hf
   Hf3        1.0     0.221589     0.544757     0.136381    Uiso  ? Hf
   Hf4        1.0     0.882958     0.544152     0.120675    Uiso  ? Hf
   Hf5        1.0     0.440534     0.435491     0.852202    Uiso  ? Hf
   Mg1        1.0     0.889047     0.535354     0.642003    Uiso  ? Mg
   Mg2        1.0     0.212481     0.536993     0.617442    Uiso  ? Mg
   Mg3        1.0     0.781846     0.431282     0.391275    Uiso  ? Mg
   Mg4        1.0     0.117184     0.766832     0.379416    Uiso  ? Mg
   Mg5        1.0     0.230840     0.875968     0.628691    Uiso  ? Mg
   N1         1.0     0.226548     0.204457     0.330203    Uiso  ? N
   N2         1.0     0.113282     0.094166     0.079345    Uiso  ? N
   N3         1.0     0.892540     0.203490     0.836028    Uiso  ? N
   N4         1.0     0.775202     0.097114     0.608773    Uiso  ? N
   N5         1.0     0.538003     0.213400     0.335651    Uiso  ? N
   N6         1.0     0.432753     0.082416     0.076342    Uiso  ? N
   N7         1.0     0.220991     0.202052     0.830869    Uiso  ? N
   N8         1.0     0.104545     0.108046     0.580229    Uiso  ? N
   N9         1.0     0.913499     0.198875     0.324051    Uiso  ? N
   N10        1.0     0.790845     0.093202     0.097886    Uiso  ? N
   N11        1.0     0.559356     0.185031     0.840951    Uiso  ? N
   N12        1.0     0.442952     0.090606     0.584391    Uiso  ? N
   N13        1.0     0.233488     0.521226     0.347548    Uiso  ? N
   N14        1.0     0.123428     0.406636     0.077122    Uiso  ? N
   N15        1.0     0.886721     0.539751     0.863838    Uiso  ? N
   N16        1.0     0.775604     0.417061     0.594021    Uiso  ? N
   N17        1.0     0.540049     0.541720     0.331668    Uiso  ? N
   N18        1.0     0.454792     0.435398     0.069187    Uiso  ? N
   N19        1.0     0.201025     0.548954     0.851440    Uiso  ? N
   N20        1.0     0.114656     0.409621     0.580948    Uiso  ? N
   N21        1.0     0.898326     0.550246     0.329177    Uiso  ? N
   N22        1.0     0.767901     0.418096     0.080734    Uiso  ? N
   N23        1.0     0.563600     0.553414     0.829351    Uiso  ? N
   N24        1.0     0.459830     0.417806     0.605295    Uiso  ? N
   N25        1.0     0.237789     0.884591     0.335457    Uiso  ? N
   N26        1.0     0.101527     0.780696     0.122792    Uiso  ? N
   N27        1.0     0.889333     0.873025     0.869389    Uiso  ? N
   N28        1.0     0.765782     0.770128     0.592424    Uiso  ? N
   N29        1.0     0.558398     0.872172     0.331941    Uiso  ? N
   N30        1.0     0.448152     0.758567     0.085069    Uiso  ? N
   N31        1.0     0.225567     0.869908     0.843467    Uiso  ? N
   N32        1.0     0.096023     0.772063     0.620465    Uiso  ? N
   N33        1.0     0.879615     0.871630     0.386580    Uiso  ? N
   N34        1.0     0.761566     0.786464     0.076471    Uiso  ? N
   N35        1.0     0.550285     0.871664     0.830862    Uiso  ? N
   N36        1.0     0.464300     0.750712     0.576125    Uiso  ? N
