
#======================================================================
# CRYSTAL DATA
#----------------------------------------------------------------------
data_VESTA_phase_1

_chemical_name_common                  'Al   Hf   Mg   N                      '
_cell_length_a                         9.776188
_cell_length_b                         9.774456
_cell_length_c                         10.043707
_cell_angle_alpha                      90.029053
_cell_angle_beta                       90.114014
_cell_angle_gamma                      59.981277
_cell_volume                           831.005513
_space_group_name_H-M_alt              'P 1'
_space_group_IT_number                 1

loop_
_space_group_symop_operation_xyz
   'x, y, z'

loop_
   _atom_site_label
   _atom_site_occupancy
   _atom_site_fract_x
   _atom_site_fract_y
   _atom_site_fract_z
   _atom_site_adp_type
   _atom_site_U_iso_or_equiv
   _atom_site_type_symbol
   Al1        1.0     0.119339     0.092609     0.392595    Uiso  ? Al
   Al2        1.0     0.222003     0.193864     0.144009    Uiso  ? Al
   Al3        1.0     0.788051     0.087086     0.883368    Uiso  ? Al
   Al4        1.0     0.894438     0.208309     0.645157    Uiso  ? Al
   Al5        1.0     0.438853     0.090081     0.395124    Uiso  ? Al
   Al6        1.0     0.114858     0.090662     0.889063    Uiso  ? Al
   Al7        1.0     0.217405     0.205727     0.636434    Uiso  ? Al
   Al8        1.0     0.898764     0.199606     0.135869    Uiso  ? Al
   Al9        1.0     0.438181     0.083653     0.883758    Uiso  ? Al
   Al10       1.0     0.557515     0.193165     0.642498    Uiso  ? Al
   Al11       1.0     0.114480     0.421952     0.397579    Uiso  ? Al
   Al12       1.0     0.778991     0.425754     0.882630    Uiso  ? Al
   Al13       1.0     0.442095     0.432663     0.406390    Uiso  ? Al
   Al14       1.0     0.554707     0.542525     0.145805    Uiso  ? Al
   Al15       1.0     0.109451     0.421128     0.883043    Uiso  ? Al
   Al16       1.0     0.567291     0.543172     0.634433    Uiso  ? Al
   Al17       1.0     0.224088     0.879687     0.140274    Uiso  ? Al
   Al18       1.0     0.770780     0.769262     0.885712    Uiso  ? Al
   Al19       1.0     0.888961     0.868871     0.645352    Uiso  ? Al
   Al20       1.0     0.444386     0.761770     0.389703    Uiso  ? Al
   Al21       1.0     0.549886     0.871211     0.143720    Uiso  ? Al
   Al22       1.0     0.104364     0.773663     0.882022    Uiso  ? Al
   Al23       1.0     0.777416     0.762719     0.394091    Uiso  ? Al
   Al24       1.0     0.887845     0.875860     0.136613    Uiso  ? Al
   Al25       1.0     0.443892     0.767106     0.891268    Uiso  ? Al
   Al26       1.0     0.556963     0.868800     0.636164    Uiso  ? Al
   Hf1        1.0     0.555690     0.199356     0.127251    Uiso  ? Hf
   Hf2        1.0     0.785529     0.092463     0.394960    Uiso  ? Hf
   Hf3        1.0     0.222178     0.544074     0.133787    Uiso  ? Hf
   Hf4        1.0     0.883233     0.541375     0.122453    Uiso  ? Hf
   Hf5        1.0     0.443162     0.433140     0.851387    Uiso  ? Hf
   Mg1        1.0     0.888136     0.540296     0.639517    Uiso  ? Mg
   Mg2        1.0     0.204931     0.548138     0.630935    Uiso  ? Mg
   Mg3        1.0     0.781221     0.429335     0.394257    Uiso  ? Mg
   Mg4        1.0     0.114595     0.764276     0.394842    Uiso  ? Mg
   Mg5        1.0     0.224330     0.872877     0.637493    Uiso  ? Mg
   N1         1.0     0.225899     0.203559     0.331793    Uiso  ? N
   N2         1.0     0.112063     0.095882     0.079480    Uiso  ? N
   N3         1.0     0.891948     0.202799     0.838026    Uiso  ? N
   N4         1.0     0.776680     0.095301     0.602233    Uiso  ? N
   N5         1.0     0.543281     0.211903     0.337749    Uiso  ? N
   N6         1.0     0.433254     0.082735     0.076750    Uiso  ? N
   N7         1.0     0.221912     0.203118     0.830343    Uiso  ? N
   N8         1.0     0.103974     0.107109     0.580124    Uiso  ? N
   N9         1.0     0.908195     0.195951     0.322409    Uiso  ? N
   N10        1.0     0.792034     0.089559     0.079098    Uiso  ? N
   N11        1.0     0.562640     0.183661     0.842960    Uiso  ? N
   N12        1.0     0.443438     0.092008     0.585303    Uiso  ? N
   N13        1.0     0.234049     0.520976     0.339495    Uiso  ? N
   N14        1.0     0.124925     0.404943     0.077533    Uiso  ? N
   N15        1.0     0.886686     0.541700     0.864947    Uiso  ? N
   N16        1.0     0.776225     0.417345     0.596490    Uiso  ? N
   N17        1.0     0.539374     0.542581     0.332652    Uiso  ? N
   N18        1.0     0.455412     0.433615     0.069241    Uiso  ? N
   N19        1.0     0.201495     0.550025     0.855623    Uiso  ? N
   N20        1.0     0.116651     0.411958     0.581367    Uiso  ? N
   N21        1.0     0.898658     0.548500     0.329184    Uiso  ? N
   N22        1.0     0.766971     0.416584     0.080429    Uiso  ? N
   N23        1.0     0.563983     0.554190     0.829571    Uiso  ? N
   N24        1.0     0.457825     0.419060     0.608347    Uiso  ? N
   N25        1.0     0.233093     0.881692     0.327900    Uiso  ? N
   N26        1.0     0.101375     0.781487     0.081437    Uiso  ? N
   N27        1.0     0.885175     0.872901     0.837739    Uiso  ? N
   N28        1.0     0.768806     0.779083     0.582566    Uiso  ? N
   N29        1.0     0.556938     0.872939     0.332338    Uiso  ? N
   N30        1.0     0.449316     0.757394     0.084041    Uiso  ? N
   N31        1.0     0.226082     0.872092     0.848097    Uiso  ? N
   N32        1.0     0.092342     0.775925     0.593558    Uiso  ? N
   N33        1.0     0.879081     0.869170     0.321918    Uiso  ? N
   N34        1.0     0.762493     0.785713     0.077583    Uiso  ? N
   N35        1.0     0.553794     0.871256     0.829703    Uiso  ? N
   N36        1.0     0.461568     0.753412     0.576601    Uiso  ? N
