
#======================================================================
# CRYSTAL DATA
#----------------------------------------------------------------------
data_VESTA_phase_1

_chemical_name_common                  'Al   Hf   Mg   N                      '
_cell_length_a                         9.843614
_cell_length_b                         9.819588
_cell_length_c                         10.042064
_cell_angle_alpha                      90.054901
_cell_angle_beta                       90.270515
_cell_angle_gamma                      60.082359
_cell_volume                           841.309588
_space_group_name_H-M_alt              'P 1'
_space_group_IT_number                 1

loop_
_space_group_symop_operation_xyz
   'x, y, z'

loop_
   _atom_site_label
   _atom_site_occupancy
   _atom_site_fract_x
   _atom_site_fract_y
   _atom_site_fract_z
   _atom_site_adp_type
   _atom_site_U_iso_or_equiv
   _atom_site_type_symbol
   Al1        1.0     0.123597     0.090816     0.320620    Uiso  ? Al
   Al2        1.0     0.214944     0.197880     0.063823    Uiso  ? Al
   Al3        1.0     0.786843     0.087837     0.809689    Uiso  ? Al
   Al4        1.0     0.901733     0.204291     0.576829    Uiso  ? Al
   Al5        1.0     0.440738     0.085933     0.393564    Uiso  ? Al
   Al6        1.0     0.111282     0.092601     0.819750    Uiso  ? Al
   Al7        1.0     0.212559     0.209334     0.577720    Uiso  ? Al
   Al8        1.0     0.893391     0.203417     0.065675    Uiso  ? Al
   Al9        1.0     0.438244     0.083983     0.863359    Uiso  ? Al
   Al10       1.0     0.559185     0.199166     0.580786    Uiso  ? Al
   Al11       1.0     0.116742     0.416252     0.326187    Uiso  ? Al
   Al12       1.0     0.787022     0.424014     0.813180    Uiso  ? Al
   Al13       1.0     0.441337     0.434387     0.391355    Uiso  ? Al
   Al14       1.0     0.551067     0.543207     0.142234    Uiso  ? Al
   Al15       1.0     0.102684     0.428596     0.813768    Uiso  ? Al
   Al16       1.0     0.564584     0.545102     0.625283    Uiso  ? Al
   Al17       1.0     0.217432     0.880105     0.077926    Uiso  ? Al
   Al18       1.0     0.780702     0.761457     0.818719    Uiso  ? Al
   Al19       1.0     0.890358     0.865756     0.579250    Uiso  ? Al
   Al20       1.0     0.448057     0.761121     0.387189    Uiso  ? Al
   Al21       1.0     0.542984     0.876276     0.141629    Uiso  ? Al
   Al22       1.0     0.102740     0.771289     0.819809    Uiso  ? Al
   Al23       1.0     0.780222     0.764264     0.325550    Uiso  ? Al
   Al24       1.0     0.891046     0.875736     0.065128    Uiso  ? Al
   Al25       1.0     0.448240     0.762860     0.887957    Uiso  ? Al
   Al26       1.0     0.555800     0.868760     0.635598    Uiso  ? Al
   Hf1        1.0     0.562450     0.194626     0.078137    Uiso  ? Hf
   Hf2        1.0     0.788086     0.090403     0.341724    Uiso  ? Hf
   Hf3        1.0     0.220845     0.543717     0.103513    Uiso  ? Hf
   Hf4        1.0     0.878474     0.540768     0.093028    Uiso  ? Hf
   Hf5        1.0     0.435950     0.434586     0.830928    Uiso  ? Hf
   Mg1        1.0     0.889484     0.542839     0.565550    Uiso  ? Mg
   Mg2        1.0     0.203053     0.549099     0.570505    Uiso  ? Mg
   Mg3        1.0     0.779529     0.424728     0.343184    Uiso  ? Mg
   Mg4        1.0     0.116818     0.767371     0.333044    Uiso  ? Mg
   Mg5        1.0     0.220474     0.877535     0.575442    Uiso  ? Mg
   N1         1.0     0.220975     0.205028     0.381530    Uiso  ? N
   N2         1.0     0.107179     0.098512     0.125229    Uiso  ? N
   N3         1.0     0.886724     0.203570     0.874121    Uiso  ? N
   N4         1.0     0.779253     0.095357     0.616812    Uiso  ? N
   N5         1.0     0.543773     0.210072     0.371952    Uiso  ? N
   N6         1.0     0.433958     0.082596     0.078608    Uiso  ? N
   N7         1.0     0.214496     0.209421     0.874452    Uiso  ? N
   N8         1.0     0.108198     0.105752     0.636905    Uiso  ? N
   N9         1.0     0.916451     0.193100     0.388710    Uiso  ? N
   N10        1.0     0.797527     0.086354     0.129390    Uiso  ? N
   N11        1.0     0.565636     0.185727     0.863010    Uiso  ? N
   N12        1.0     0.445539     0.089965     0.592017    Uiso  ? N
   N13        1.0     0.232179     0.522706     0.341999    Uiso  ? N
   N14        1.0     0.118770     0.403071     0.129906    Uiso  ? N
   N15        1.0     0.885891     0.540251     0.876791    Uiso  ? N
   N16        1.0     0.781379     0.416389     0.622061    Uiso  ? N
   N17        1.0     0.535808     0.545644     0.330956    Uiso  ? N
   N18        1.0     0.457997     0.434245     0.062516    Uiso  ? N
   N19        1.0     0.196961     0.551334     0.880485    Uiso  ? N
   N20        1.0     0.116717     0.415510     0.630742    Uiso  ? N
   N21        1.0     0.896716     0.546705     0.345597    Uiso  ? N
   N22        1.0     0.768966     0.413605     0.120559    Uiso  ? N
   N23        1.0     0.559291     0.552916     0.823044    Uiso  ? N
   N24        1.0     0.454762     0.424281     0.601173    Uiso  ? N
   N25        1.0     0.234608     0.881972     0.362359    Uiso  ? N
   N26        1.0     0.099616     0.782000     0.121112    Uiso  ? N
   N27        1.0     0.883884     0.877856     0.876657    Uiso  ? N
   N28        1.0     0.775028     0.772600     0.631550    Uiso  ? N
   N29        1.0     0.553596     0.874864     0.332111    Uiso  ? N
   N30        1.0     0.451882     0.756039     0.080985    Uiso  ? N
   N31        1.0     0.218688     0.875516     0.880952    Uiso  ? N
   N32        1.0     0.096743     0.772409     0.634974    Uiso  ? N
   N33        1.0     0.886399     0.861392     0.390579    Uiso  ? N
   N34        1.0     0.768324     0.787018     0.126622    Uiso  ? N
   N35        1.0     0.551111     0.870385     0.830384    Uiso  ? N
   N36        1.0     0.467636     0.751581     0.574319    Uiso  ? N
