
#======================================================================
# CRYSTAL DATA
#----------------------------------------------------------------------
data_VESTA_phase_1

_chemical_name_common                  'Al   Hf   Mg   N '
_cell_length_a                         9.792025
_cell_length_b                         9.769474
_cell_length_c                         10.049567
_cell_angle_alpha                      89.981422
_cell_angle_beta                       90.146614
_cell_angle_gamma                      59.973366
_cell_volume                           832.344056
_space_group_name_H-M_alt              'P 1'
_space_group_IT_number                 1

loop_
_space_group_symop_operation_xyz
   'x, y, z'

loop_
   _atom_site_label
   _atom_site_occupancy
   _atom_site_fract_x
   _atom_site_fract_y
   _atom_site_fract_z
   _atom_site_adp_type
   _atom_site_U_iso_or_equiv
   _atom_site_type_symbol
   Al1        1.0     0.121237     0.091731     0.302443    Uiso  ? Al
   Al2        1.0     0.221270     0.193441     0.047171    Uiso  ? Al
   Al3        1.0     0.785539     0.089348     0.788193    Uiso  ? Al
   Al4        1.0     0.898170     0.209142     0.559071    Uiso  ? Al
   Al5        1.0     0.434581     0.087453     0.310176    Uiso  ? Al
   Al6        1.0     0.113159     0.093274     0.800289    Uiso  ? Al
   Al7        1.0     0.217550     0.206879     0.555251    Uiso  ? Al
   Al8        1.0     0.895549     0.201250     0.045328    Uiso  ? Al
   Al9        1.0     0.440762     0.086636     0.794140    Uiso  ? Al
   Al10       1.0     0.549674     0.203146     0.550516    Uiso  ? Al
   Al11       1.0     0.114356     0.418002     0.307007    Uiso  ? Al
   Al12       1.0     0.780906     0.428421     0.795424    Uiso  ? Al
   Al13       1.0     0.444549     0.432531     0.312598    Uiso  ? Al
   Al14       1.0     0.560683     0.543139     0.050837    Uiso  ? Al
   Al15       1.0     0.106392     0.426335     0.794159    Uiso  ? Al
   Al16       1.0     0.559174     0.541723     0.549502    Uiso  ? Al
   Al17       1.0     0.222333     0.877336     0.053190    Uiso  ? Al
   Al18       1.0     0.773592     0.765208     0.798999    Uiso  ? Al
   Al19       1.0     0.889397     0.864612     0.560545    Uiso  ? Al
   Al20       1.0     0.442896     0.762724     0.303559    Uiso  ? Al
   Al21       1.0     0.547789     0.872591     0.050895    Uiso  ? Al
   Al22       1.0     0.104590     0.769334     0.798391    Uiso  ? Al
   Al23       1.0     0.772870     0.767627     0.305454    Uiso  ? Al
   Al24       1.0     0.889906     0.878065     0.044809    Uiso  ? Al
   Al25       1.0     0.445650     0.766161     0.799013    Uiso  ? Al
   Al26       1.0     0.557767     0.867937     0.553238    Uiso  ? Al
   Hf1        1.0     0.561244     0.190430     0.061924    Uiso  ? Hf
   Hf2        1.0     0.787549     0.090964     0.325983    Uiso  ? Hf
   Hf3        1.0     0.218529     0.545276     0.082396    Uiso  ? Hf
   Hf4        1.0     0.881338     0.541641     0.074714    Uiso  ? Hf
   Hf5        1.0     0.440923     0.432019     0.798785    Uiso  ? Hf
   Mg1        1.0     0.888669     0.541848     0.548774    Uiso  ? Mg
   Mg2        1.0     0.213558     0.543300     0.541393    Uiso  ? Mg
   Mg3        1.0     0.775137     0.427521     0.312510    Uiso  ? Mg
   Mg4        1.0     0.113959     0.769422     0.313430    Uiso  ? Mg
   Mg5        1.0     0.224211     0.875230     0.553686    Uiso  ? Mg
   N1         1.0     0.222435     0.204525     0.362441    Uiso  ? N
   N2         1.0     0.109019     0.095940     0.105439    Uiso  ? N
   N3         1.0     0.887610     0.203210     0.854374    Uiso  ? N
   N4         1.0     0.774692     0.097201     0.594444    Uiso  ? N
   N5         1.0     0.539708     0.209064     0.351110    Uiso  ? N
   N6         1.0     0.430963     0.083766     0.116516    Uiso  ? N
   N7         1.0     0.225771     0.203425     0.859274    Uiso  ? N
   N8         1.0     0.107426     0.107733     0.617463    Uiso  ? N
   N9         1.0     0.913989     0.197977     0.370319    Uiso  ? N
   N10        1.0     0.796191     0.087983     0.112479    Uiso  ? N
   N11        1.0     0.563808     0.188800     0.852610    Uiso  ? N
   N12        1.0     0.443326     0.092439     0.605224    Uiso  ? N
   N13        1.0     0.227643     0.526192     0.320491    Uiso  ? N
   N14        1.0     0.120200     0.401398     0.110503    Uiso  ? N
   N15        1.0     0.887078     0.541163     0.857752    Uiso  ? N
   N16        1.0     0.770804     0.422402     0.608460    Uiso  ? N
   N17        1.0     0.540593     0.547482     0.361173    Uiso  ? N
   N18        1.0     0.462388     0.427420     0.105631    Uiso  ? N
   N19        1.0     0.206179     0.546381     0.864220    Uiso  ? N
   N20        1.0     0.118962     0.415241     0.610584    Uiso  ? N
   N21        1.0     0.894308     0.548129     0.323277    Uiso  ? N
   N22        1.0     0.771411     0.413584     0.100281    Uiso  ? N
   N23        1.0     0.561861     0.546752     0.860805    Uiso  ? N
   N24        1.0     0.455624     0.420582     0.596538    Uiso  ? N
   N25        1.0     0.234093     0.882319     0.347905    Uiso  ? N
   N26        1.0     0.098861     0.784411     0.100070    Uiso  ? N
   N27        1.0     0.883891     0.877801     0.856070    Uiso  ? N
   N28        1.0     0.767028     0.776423     0.614025    Uiso  ? N
   N29        1.0     0.556957     0.869754     0.360288    Uiso  ? N
   N30        1.0     0.448373     0.757466     0.107312    Uiso  ? N
   N31        1.0     0.225350     0.871855     0.859468    Uiso  ? N
   N32        1.0     0.098065     0.768632     0.614187    Uiso  ? N
   N33        1.0     0.884577     0.860583     0.371553    Uiso  ? N
   N34        1.0     0.762341     0.792197     0.109117    Uiso  ? N
   N35        1.0     0.553381     0.874908     0.861497    Uiso  ? N
   N36        1.0     0.461920     0.752333     0.614072    Uiso  ? N
