
#======================================================================
# CRYSTAL DATA
#----------------------------------------------------------------------
data_VESTA_phase_1

_chemical_name_common                  'Al   Hf   Mg   N                      '
_cell_length_a                         9.823099
_cell_length_b                         9.809642
_cell_length_c                         9.968434
_cell_angle_alpha                      90.073555
_cell_angle_beta                       90.284225
_cell_angle_gamma                      59.978443
_cell_volume                           831.685488
_space_group_name_H-M_alt              'P 1'
_space_group_IT_number                 1

loop_
_space_group_symop_operation_xyz
   'x, y, z'

loop_
   _atom_site_label
   _atom_site_occupancy
   _atom_site_fract_x
   _atom_site_fract_y
   _atom_site_fract_z
   _atom_site_adp_type
   _atom_site_U_iso_or_equiv
   _atom_site_type_symbol
   Al1        1.0     0.121398     0.091208     0.314009    Uiso  ? Al
   Al2        1.0     0.221587     0.193501     0.060406    Uiso  ? Al
   Al3        1.0     0.787211     0.088153     0.800783    Uiso  ? Al
   Al4        1.0     0.899513     0.208440     0.571178    Uiso  ? Al
   Al5        1.0     0.434616     0.087750     0.322249    Uiso  ? Al
   Al6        1.0     0.113565     0.093327     0.813683    Uiso  ? Al
   Al7        1.0     0.217250     0.206190     0.567245    Uiso  ? Al
   Al8        1.0     0.894812     0.201774     0.058341    Uiso  ? Al
   Al9        1.0     0.440628     0.085239     0.806373    Uiso  ? Al
   Al10       1.0     0.552670     0.196805     0.569037    Uiso  ? Al
   Al11       1.0     0.115115     0.417552     0.320896    Uiso  ? Al
   Al12       1.0     0.782016     0.428904     0.806847    Uiso  ? Al
   Al13       1.0     0.439366     0.431940     0.377748    Uiso  ? Al
   Al14       1.0     0.561776     0.542664     0.061942    Uiso  ? Al
   Al15       1.0     0.106214     0.426159     0.807568    Uiso  ? Al
   Al16       1.0     0.562102     0.545507     0.564424    Uiso  ? Al
   Al17       1.0     0.222759     0.876597     0.066207    Uiso  ? Al
   Al18       1.0     0.773844     0.765464     0.812295    Uiso  ? Al
   Al19       1.0     0.888064     0.866372     0.572171    Uiso  ? Al
   Al20       1.0     0.442638     0.762455     0.316116    Uiso  ? Al
   Al21       1.0     0.548049     0.871810     0.063970    Uiso  ? Al
   Al22       1.0     0.104093     0.770258     0.811742    Uiso  ? Al
   Al23       1.0     0.772968     0.767875     0.317454    Uiso  ? Al
   Al24       1.0     0.891310     0.876909     0.058531    Uiso  ? Al
   Al25       1.0     0.446422     0.766866     0.810781    Uiso  ? Al
   Al26       1.0     0.557840     0.868650     0.564463    Uiso  ? Al
   Hf1        1.0     0.562061     0.188427     0.069096    Uiso  ? Hf
   Hf2        1.0     0.785651     0.092501     0.338355    Uiso  ? Hf
   Hf3        1.0     0.222279     0.543072     0.096913    Uiso  ? Hf
   Hf4        1.0     0.882076     0.540668     0.088366    Uiso  ? Hf
   Hf5        1.0     0.441642     0.432974     0.817570    Uiso  ? Hf
   Mg1        1.0     0.888232     0.543157     0.560999    Uiso  ? Mg
   Mg2        1.0     0.203209     0.548777     0.564048    Uiso  ? Mg
   Mg3        1.0     0.775758     0.426924     0.327852    Uiso  ? Mg
   Mg4        1.0     0.114250     0.769538     0.327447    Uiso  ? Mg
   Mg5        1.0     0.223822     0.876666     0.566292    Uiso  ? Mg
   N1         1.0     0.222475     0.204025     0.373614    Uiso  ? N
   N2         1.0     0.109019     0.095846     0.116347    Uiso  ? N
   N3         1.0     0.887406     0.203929     0.865740    Uiso  ? N
   N4         1.0     0.775849     0.097096     0.606250    Uiso  ? N
   N5         1.0     0.539273     0.207881     0.367126    Uiso  ? N
   N6         1.0     0.431249     0.083297     0.127781    Uiso  ? N
   N7         1.0     0.226256     0.203516     0.871257    Uiso  ? N
   N8         1.0     0.107736     0.107733     0.629509    Uiso  ? N
   N9         1.0     0.914665     0.196510     0.381416    Uiso  ? N
   N10        1.0     0.795978     0.088035     0.123637    Uiso  ? N
   N11        1.0     0.565672     0.184842     0.857145    Uiso  ? N
   N12        1.0     0.442214     0.090922     0.616767    Uiso  ? N
   N13        1.0     0.229478     0.525251     0.335120    Uiso  ? N
   N14        1.0     0.121171     0.401540     0.122747    Uiso  ? N
   N15        1.0     0.887498     0.541070     0.869592    Uiso  ? N
   N16        1.0     0.772727     0.422014     0.618205    Uiso  ? N
   N17        1.0     0.540624     0.547603     0.373621    Uiso  ? N
   N18        1.0     0.460753     0.425317     0.073081    Uiso  ? N
   N19        1.0     0.203585     0.548577     0.871868    Uiso  ? N
   N20        1.0     0.116841     0.413783     0.622383    Uiso  ? N
   N21        1.0     0.894953     0.548513     0.336114    Uiso  ? N
   N22        1.0     0.771260     0.413556     0.114258    Uiso  ? N
   N23        1.0     0.564936     0.549429     0.867474    Uiso  ? N
   N24        1.0     0.453011     0.421814     0.599682    Uiso  ? N
   N25        1.0     0.234276     0.882491     0.359298    Uiso  ? N
   N26        1.0     0.100720     0.782620     0.112227    Uiso  ? N
   N27        1.0     0.884351     0.877746     0.868453    Uiso  ? N
   N28        1.0     0.766901     0.777455     0.625460    Uiso  ? N
   N29        1.0     0.557182     0.869798     0.370909    Uiso  ? N
   N30        1.0     0.448940     0.756319     0.119346    Uiso  ? N
   N31        1.0     0.226136     0.871796     0.870943    Uiso  ? N
   N32        1.0     0.095470     0.773381     0.625743    Uiso  ? N
   N33        1.0     0.883836     0.861970     0.381855    Uiso  ? N
   N34        1.0     0.763208     0.790780     0.120368    Uiso  ? N
   N35        1.0     0.553752     0.874739     0.873395    Uiso  ? N
   N36        1.0     0.461378     0.754963     0.624381    Uiso  ? N
