
#======================================================================
# CRYSTAL DATA
#----------------------------------------------------------------------
data_VESTA_phase_1

_chemical_name_common                  'Al   Hf   Mg   N                      '
_cell_length_a                         9.834143
_cell_length_b                         9.825789
_cell_length_c                         9.930984
_cell_angle_alpha                      90.091537
_cell_angle_beta                       90.317413
_cell_angle_gamma                      60.074936
_cell_volume                           831.662807
_space_group_name_H-M_alt              'P 1'
_space_group_IT_number                 1

loop_
_space_group_symop_operation_xyz
   'x, y, z'

loop_
   _atom_site_label
   _atom_site_occupancy
   _atom_site_fract_x
   _atom_site_fract_y
   _atom_site_fract_z
   _atom_site_adp_type
   _atom_site_U_iso_or_equiv
   _atom_site_type_symbol
   Al1        1.0     0.121590     0.091170     0.312808    Uiso  ? Al
   Al2        1.0     0.221384     0.193873     0.060289    Uiso  ? Al
   Al3        1.0     0.787091     0.087973     0.801457    Uiso  ? Al
   Al4        1.0     0.902080     0.205178     0.570557    Uiso  ? Al
   Al5        1.0     0.434501     0.089337     0.321098    Uiso  ? Al
   Al6        1.0     0.114182     0.093216     0.814292    Uiso  ? Al
   Al7        1.0     0.217709     0.206449     0.567152    Uiso  ? Al
   Al8        1.0     0.894173     0.202130     0.058351    Uiso  ? Al
   Al9        1.0     0.441108     0.085141     0.806711    Uiso  ? Al
   Al10       1.0     0.553405     0.196540     0.568313    Uiso  ? Al
   Al11       1.0     0.115255     0.418079     0.320331    Uiso  ? Al
   Al12       1.0     0.782812     0.427626     0.803125    Uiso  ? Al
   Al13       1.0     0.438053     0.431521     0.382871    Uiso  ? Al
   Al14       1.0     0.556211     0.536578     0.135460    Uiso  ? Al
   Al15       1.0     0.106530     0.426149     0.807994    Uiso  ? Al
   Al16       1.0     0.562205     0.543946     0.583399    Uiso  ? Al
   Al17       1.0     0.223678     0.875637     0.065525    Uiso  ? Al
   Al18       1.0     0.773409     0.765178     0.812485    Uiso  ? Al
   Al19       1.0     0.887894     0.866780     0.572193    Uiso  ? Al
   Al20       1.0     0.438855     0.771190     0.320636    Uiso  ? Al
   Al21       1.0     0.547722     0.870528     0.062974    Uiso  ? Al
   Al22       1.0     0.103826     0.770332     0.811979    Uiso  ? Al
   Al23       1.0     0.773403     0.768061     0.316549    Uiso  ? Al
   Al24       1.0     0.891080     0.876367     0.058306    Uiso  ? Al
   Al25       1.0     0.446238     0.765951     0.807364    Uiso  ? Al
   Al26       1.0     0.558332     0.870964     0.563392    Uiso  ? Al
   Hf1        1.0     0.561615     0.189592     0.069540    Uiso  ? Hf
   Hf2        1.0     0.785893     0.091786     0.337629    Uiso  ? Hf
   Hf3        1.0     0.220521     0.543716     0.095519    Uiso  ? Hf
   Hf4        1.0     0.879261     0.539668     0.087355    Uiso  ? Hf
   Hf5        1.0     0.442098     0.433410     0.821600    Uiso  ? Hf
   Mg1        1.0     0.890575     0.545202     0.561148    Uiso  ? Mg
   Mg2        1.0     0.202511     0.549602     0.564571    Uiso  ? Mg
   Mg3        1.0     0.784455     0.423433     0.340520    Uiso  ? Mg
   Mg4        1.0     0.114028     0.769220     0.327321    Uiso  ? Mg
   Mg5        1.0     0.221372     0.878584     0.566348    Uiso  ? Mg
   N1         1.0     0.222489     0.204312     0.372628    Uiso  ? N
   N2         1.0     0.109184     0.095362     0.115051    Uiso  ? N
   N3         1.0     0.887771     0.204157     0.864586    Uiso  ? N
   N4         1.0     0.775955     0.097252     0.605993    Uiso  ? N
   N5         1.0     0.539650     0.208028     0.365150    Uiso  ? N
   N6         1.0     0.431575     0.083206     0.126240    Uiso  ? N
   N7         1.0     0.226789     0.203692     0.870830    Uiso  ? N
   N8         1.0     0.108674     0.107891     0.629698    Uiso  ? N
   N9         1.0     0.917086     0.192377     0.380994    Uiso  ? N
   N10        1.0     0.795747     0.087430     0.122550    Uiso  ? N
   N11        1.0     0.566982     0.183536     0.857375    Uiso  ? N
   N12        1.0     0.442523     0.091991     0.616343    Uiso  ? N
   N13        1.0     0.229610     0.525231     0.334777    Uiso  ? N
   N14        1.0     0.119187     0.402321     0.121771    Uiso  ? N
   N15        1.0     0.887147     0.539946     0.868063    Uiso  ? N
   N16        1.0     0.777989     0.420325     0.609040    Uiso  ? N
   N17        1.0     0.540213     0.544492     0.346078    Uiso  ? N
   N18        1.0     0.460009     0.427859     0.068239    Uiso  ? N
   N19        1.0     0.201461     0.550438     0.871712    Uiso  ? N
   N20        1.0     0.118095     0.413486     0.622271    Uiso  ? N
   N21        1.0     0.895967     0.549905     0.337097    Uiso  ? N
   N22        1.0     0.772084     0.410903     0.118959    Uiso  ? N
   N23        1.0     0.564429     0.546678     0.833939    Uiso  ? N
   N24        1.0     0.453357     0.422536     0.592230    Uiso  ? N
   N25        1.0     0.231631     0.884033     0.360121    Uiso  ? N
   N26        1.0     0.100521     0.782644     0.111925    Uiso  ? N
   N27        1.0     0.884262     0.877537     0.867867    Uiso  ? N
   N28        1.0     0.766671     0.778088     0.625123    Uiso  ? N
   N29        1.0     0.557756     0.872231     0.370134    Uiso  ? N
   N30        1.0     0.447225     0.758925     0.121694    Uiso  ? N
   N31        1.0     0.226612     0.871567     0.869691    Uiso  ? N
   N32        1.0     0.094995     0.773744     0.625195    Uiso  ? N
   N33        1.0     0.883801     0.862100     0.381255    Uiso  ? N
   N34        1.0     0.763152     0.789479     0.119261    Uiso  ? N
   N35        1.0     0.553106     0.873841     0.871764    Uiso  ? N
   N36        1.0     0.458835     0.759569     0.616296    Uiso  ? N
