
#======================================================================
# CRYSTAL DATA
#----------------------------------------------------------------------
data_VESTA_phase_1

_chemical_name_common                  'Al   Hf   Mg   N                      '
_cell_length_a                         9.851580
_cell_length_b                         9.835939
_cell_length_c                         9.923148
_cell_angle_alpha                      90.159134
_cell_angle_beta                       90.278969
_cell_angle_gamma                      60.082420
_cell_volume                           833.406215
_space_group_name_H-M_alt              'P 1'
_space_group_IT_number                 1

loop_
_space_group_symop_operation_xyz
   'x, y, z'

loop_
   _atom_site_label
   _atom_site_occupancy
   _atom_site_fract_x
   _atom_site_fract_y
   _atom_site_fract_z
   _atom_site_adp_type
   _atom_site_U_iso_or_equiv
   _atom_site_type_symbol
   Al1        1.0     0.123327     0.089377     0.312880    Uiso  ? Al
   Al2        1.0     0.221541     0.193768     0.060770    Uiso  ? Al
   Al3        1.0     0.786448     0.088044     0.801877    Uiso  ? Al
   Al4        1.0     0.902490     0.205368     0.569357    Uiso  ? Al
   Al5        1.0     0.435245     0.087535     0.320560    Uiso  ? Al
   Al6        1.0     0.112223     0.095136     0.814036    Uiso  ? Al
   Al7        1.0     0.218201     0.206464     0.566668    Uiso  ? Al
   Al8        1.0     0.893298     0.203358     0.059703    Uiso  ? Al
   Al9        1.0     0.440795     0.086470     0.806627    Uiso  ? Al
   Al10       1.0     0.553641     0.197477     0.567160    Uiso  ? Al
   Al11       1.0     0.115991     0.417158     0.320398    Uiso  ? Al
   Al12       1.0     0.788375     0.424141     0.804971    Uiso  ? Al
   Al13       1.0     0.440242     0.433588     0.384173    Uiso  ? Al
   Al14       1.0     0.550603     0.545196     0.136552    Uiso  ? Al
   Al15       1.0     0.105872     0.426235     0.808133    Uiso  ? Al
   Al16       1.0     0.564850     0.541825     0.614525    Uiso  ? Al
   Al17       1.0     0.222065     0.876292     0.065061    Uiso  ? Al
   Al18       1.0     0.774886     0.764932     0.812776    Uiso  ? Al
   Al19       1.0     0.888327     0.866016     0.571306    Uiso  ? Al
   Al20       1.0     0.443847     0.762208     0.381913    Uiso  ? Al
   Al21       1.0     0.548566     0.871797     0.062219    Uiso  ? Al
   Al22       1.0     0.101236     0.770254     0.811734    Uiso  ? Al
   Al23       1.0     0.773389     0.767893     0.316517    Uiso  ? Al
   Al24       1.0     0.890606     0.876555     0.059050    Uiso  ? Al
   Al25       1.0     0.443971     0.764874     0.847187    Uiso  ? Al
   Al26       1.0     0.562550     0.872977     0.567416    Uiso  ? Al
   Hf1        1.0     0.561302     0.191817     0.072507    Uiso  ? Hf
   Hf2        1.0     0.786788     0.091068     0.338088    Uiso  ? Hf
   Hf3        1.0     0.221260     0.543889     0.097497    Uiso  ? Hf
   Hf4        1.0     0.879335     0.539340     0.089172    Uiso  ? Hf
   Hf5        1.0     0.439190     0.431214     0.825360    Uiso  ? Hf
   Mg1        1.0     0.891365     0.544130     0.560307    Uiso  ? Mg
   Mg2        1.0     0.203859     0.548255     0.564569    Uiso  ? Mg
   Mg3        1.0     0.780039     0.425374     0.340843    Uiso  ? Mg
   Mg4        1.0     0.115652     0.768662     0.327741    Uiso  ? Mg
   Mg5        1.0     0.215575     0.880888     0.573308    Uiso  ? Mg
   N1         1.0     0.223475     0.203386     0.372334    Uiso  ? N
   N2         1.0     0.108885     0.095617     0.115050    Uiso  ? N
   N3         1.0     0.887137     0.204130     0.865476    Uiso  ? N
   N4         1.0     0.776160     0.096849     0.605645    Uiso  ? N
   N5         1.0     0.540129     0.208944     0.363261    Uiso  ? N
   N6         1.0     0.431942     0.083502     0.125605    Uiso  ? N
   N7         1.0     0.226464     0.203641     0.870880    Uiso  ? N
   N8         1.0     0.107790     0.109894     0.629569    Uiso  ? N
   N9         1.0     0.917197     0.192893     0.379600    Uiso  ? N
   N10        1.0     0.795733     0.087672     0.122888    Uiso  ? N
   N11        1.0     0.566751     0.183098     0.859442    Uiso  ? N
   N12        1.0     0.442892     0.093424     0.616474    Uiso  ? N
   N13        1.0     0.231278     0.523833     0.334895    Uiso  ? N
   N14        1.0     0.119952     0.402280     0.121785    Uiso  ? N
   N15        1.0     0.887075     0.540150     0.868786    Uiso  ? N
   N16        1.0     0.781555     0.418228     0.610243    Uiso  ? N
   N17        1.0     0.536499     0.546223     0.331188    Uiso  ? N
   N18        1.0     0.459792     0.430635     0.060464    Uiso  ? N
   N19        1.0     0.199691     0.550638     0.871839    Uiso  ? N
   N20        1.0     0.118627     0.413167     0.622251    Uiso  ? N
   N21        1.0     0.895910     0.549012     0.336385    Uiso  ? N
   N22        1.0     0.768950     0.413608     0.115231    Uiso  ? N
   N23        1.0     0.563025     0.547244     0.815255    Uiso  ? N
   N24        1.0     0.454540     0.422010     0.592929    Uiso  ? N
   N25        1.0     0.232791     0.883021     0.360750    Uiso  ? N
   N26        1.0     0.099926     0.782608     0.111964    Uiso  ? N
   N27        1.0     0.883511     0.878043     0.868473    Uiso  ? N
   N28        1.0     0.769689     0.776106     0.625797    Uiso  ? N
   N29        1.0     0.560113     0.873208     0.371504    Uiso  ? N
   N30        1.0     0.447526     0.754121     0.075827    Uiso  ? N
   N31        1.0     0.218550     0.875448     0.865656    Uiso  ? N
   N32        1.0     0.093921     0.771927     0.625183    Uiso  ? N
   N33        1.0     0.884914     0.861153     0.380500    Uiso  ? N
   N34        1.0     0.762821     0.789478     0.119117    Uiso  ? N
   N35        1.0     0.555407     0.876247     0.867512    Uiso  ? N
   N36        1.0     0.460216     0.756152     0.588020    Uiso  ? N
