
#======================================================================
# CRYSTAL DATA
#----------------------------------------------------------------------
data_VESTA_phase_1

_chemical_name_common                  'Al   Hf   Mg   N                      '
_cell_length_a                         9.850276
_cell_length_b                         9.809719
_cell_length_c                         10.010774
_cell_angle_alpha                      90.166313
_cell_angle_beta                       90.052383
_cell_angle_gamma                      59.787235
_cell_volume                           835.922894
_space_group_name_H-M_alt              'P 1'
_space_group_IT_number                 1

loop_
_space_group_symop_operation_xyz
   'x, y, z'

loop_
   _atom_site_label
   _atom_site_occupancy
   _atom_site_fract_x
   _atom_site_fract_y
   _atom_site_fract_z
   _atom_site_adp_type
   _atom_site_U_iso_or_equiv
   _atom_site_type_symbol
   Al1        1.0     0.122414     0.096174     0.392512    Uiso  ? Al
   Al2        1.0     0.221580     0.194423     0.140992    Uiso  ? Al
   Al3        1.0     0.785023     0.086617     0.819301    Uiso  ? Al
   Al4        1.0     0.898438     0.212751     0.639273    Uiso  ? Al
   Al5        1.0     0.437860     0.090399     0.392679    Uiso  ? Al
   Al6        1.0     0.113857     0.086988     0.888433    Uiso  ? Al
   Al7        1.0     0.217691     0.205048     0.637280    Uiso  ? Al
   Al8        1.0     0.900933     0.200762     0.140572    Uiso  ? Al
   Al9        1.0     0.436406     0.083784     0.883304    Uiso  ? Al
   Al10       1.0     0.548997     0.197147     0.634928    Uiso  ? Al
   Al11       1.0     0.113652     0.421463     0.395457    Uiso  ? Al
   Al12       1.0     0.778414     0.424097     0.884241    Uiso  ? Al
   Al13       1.0     0.442153     0.433099     0.403656    Uiso  ? Al
   Al14       1.0     0.555137     0.542405     0.143356    Uiso  ? Al
   Al15       1.0     0.109372     0.421137     0.882389    Uiso  ? Al
   Al16       1.0     0.568029     0.541555     0.633755    Uiso  ? Al
   Al17       1.0     0.223917     0.879472     0.144566    Uiso  ? Al
   Al18       1.0     0.768334     0.767373     0.880122    Uiso  ? Al
   Al19       1.0     0.886726     0.865780     0.584156    Uiso  ? Al
   Al20       1.0     0.448105     0.760667     0.388760    Uiso  ? Al
   Al21       1.0     0.550842     0.871284     0.141341    Uiso  ? Al
   Al22       1.0     0.102919     0.770841     0.815216    Uiso  ? Al
   Al23       1.0     0.772798     0.759356     0.397396    Uiso  ? Al
   Al24       1.0     0.893448     0.881853     0.067618    Uiso  ? Al
   Al25       1.0     0.440933     0.766672     0.891409    Uiso  ? Al
   Al26       1.0     0.554636     0.867500     0.638310    Uiso  ? Al
   Hf1        1.0     0.554765     0.199413     0.126795    Uiso  ? Hf
   Hf2        1.0     0.781557     0.102522     0.379171    Uiso  ? Hf
   Hf3        1.0     0.221419     0.545109     0.135502    Uiso  ? Hf
   Hf4        1.0     0.882917     0.544264     0.120742    Uiso  ? Hf
   Hf5        1.0     0.441622     0.433941     0.853277    Uiso  ? Hf
   Mg1        1.0     0.888867     0.535776     0.642693    Uiso  ? Mg
   Mg2        1.0     0.211848     0.537279     0.619615    Uiso  ? Mg
   Mg3        1.0     0.781308     0.432996     0.391521    Uiso  ? Mg
   Mg4        1.0     0.118679     0.766179     0.377628    Uiso  ? Mg
   Mg5        1.0     0.230792     0.875554     0.630127    Uiso  ? Mg
   N1         1.0     0.227065     0.204598     0.329315    Uiso  ? N
   N2         1.0     0.112079     0.094650     0.079227    Uiso  ? N
   N3         1.0     0.891824     0.202377     0.833732    Uiso  ? N
   N4         1.0     0.774921     0.096147     0.611032    Uiso  ? N
   N5         1.0     0.536103     0.214295     0.338966    Uiso  ? N
   N6         1.0     0.432858     0.082423     0.075709    Uiso  ? N
   N7         1.0     0.220672     0.201954     0.830783    Uiso  ? N
   N8         1.0     0.106221     0.107244     0.579908    Uiso  ? N
   N9         1.0     0.915602     0.201352     0.327516    Uiso  ? N
   N10        1.0     0.790854     0.090104     0.126721    Uiso  ? N
   N11        1.0     0.559704     0.184205     0.837315    Uiso  ? N
   N12        1.0     0.441796     0.090096     0.583701    Uiso  ? N
   N13        1.0     0.233223     0.521772     0.345847    Uiso  ? N
   N14        1.0     0.123334     0.406674     0.076935    Uiso  ? N
   N15        1.0     0.886495     0.539599     0.864079    Uiso  ? N
   N16        1.0     0.775039     0.418499     0.592859    Uiso  ? N
   N17        1.0     0.540017     0.541783     0.330902    Uiso  ? N
   N18        1.0     0.455538     0.434572     0.069058    Uiso  ? N
   N19        1.0     0.201429     0.548281     0.851753    Uiso  ? N
   N20        1.0     0.114573     0.409790     0.579925    Uiso  ? N
   N21        1.0     0.898571     0.550457     0.328188    Uiso  ? N
   N22        1.0     0.768571     0.416792     0.080790    Uiso  ? N
   N23        1.0     0.564091     0.552474     0.829026    Uiso  ? N
   N24        1.0     0.458731     0.419271     0.603980    Uiso  ? N
   N25        1.0     0.238165     0.884738     0.334300    Uiso  ? N
   N26        1.0     0.101374     0.781167     0.121176    Uiso  ? N
   N27        1.0     0.887673     0.876828     0.872087    Uiso  ? N
   N28        1.0     0.765349     0.769984     0.591350    Uiso  ? N
   N29        1.0     0.558631     0.872179     0.331288    Uiso  ? N
   N30        1.0     0.448633     0.758224     0.084492    Uiso  ? N
   N31        1.0     0.225953     0.869694     0.843973    Uiso  ? N
   N32        1.0     0.095217     0.772527     0.623091    Uiso  ? N
   N33        1.0     0.882144     0.869174     0.388570    Uiso  ? N
   N34        1.0     0.761720     0.786805     0.076492    Uiso  ? N
   N35        1.0     0.550689     0.871285     0.830536    Uiso  ? N
   N36        1.0     0.463806     0.750818     0.575657    Uiso  ? N
