
#======================================================================
# CRYSTAL DATA
#----------------------------------------------------------------------
data_VESTA_phase_1

_chemical_name_common                  'Al   Hf   Mg   N                      '
_cell_length_a                         9.898858
_cell_length_b                         9.861486
_cell_length_c                         9.841080
_cell_angle_alpha                      90.065742
_cell_angle_beta                       89.833542
_cell_angle_gamma                      59.939217
_cell_volume                           831.439657
_space_group_name_H-M_alt              'P 1'
_space_group_IT_number                 1

loop_
_space_group_symop_operation_xyz
   'x, y, z'

loop_
   _atom_site_label
   _atom_site_occupancy
   _atom_site_fract_x
   _atom_site_fract_y
   _atom_site_fract_z
   _atom_site_adp_type
   _atom_site_U_iso_or_equiv
   _atom_site_type_symbol
   Al1        1.0     0.124620     0.093993     0.395570    Uiso  ? Al
   Al2        1.0     0.219161     0.195208     0.141515    Uiso  ? Al
   Al3        1.0     0.787919     0.086575     0.817254    Uiso  ? Al
   Al4        1.0     0.899011     0.207278     0.615960    Uiso  ? Al
   Al5        1.0     0.438484     0.091670     0.390878    Uiso  ? Al
   Al6        1.0     0.116426     0.086171     0.883986    Uiso  ? Al
   Al7        1.0     0.220710     0.205402     0.638624    Uiso  ? Al
   Al8        1.0     0.894545     0.202034     0.105009    Uiso  ? Al
   Al9        1.0     0.436375     0.083521     0.883047    Uiso  ? Al
   Al10       1.0     0.552634     0.195955     0.633941    Uiso  ? Al
   Al11       1.0     0.112876     0.420639     0.395013    Uiso  ? Al
   Al12       1.0     0.777870     0.426459     0.867082    Uiso  ? Al
   Al13       1.0     0.442943     0.430377     0.400224    Uiso  ? Al
   Al14       1.0     0.553839     0.543094     0.143119    Uiso  ? Al
   Al15       1.0     0.109179     0.421832     0.881064    Uiso  ? Al
   Al16       1.0     0.566308     0.543799     0.633580    Uiso  ? Al
   Al17       1.0     0.222363     0.880257     0.144403    Uiso  ? Al
   Al18       1.0     0.768422     0.769037     0.876603    Uiso  ? Al
   Al19       1.0     0.887768     0.866991     0.583444    Uiso  ? Al
   Al20       1.0     0.448008     0.761233     0.387873    Uiso  ? Al
   Al21       1.0     0.550374     0.871650     0.141353    Uiso  ? Al
   Al22       1.0     0.103170     0.771138     0.817635    Uiso  ? Al
   Al23       1.0     0.773307     0.758435     0.397577    Uiso  ? Al
   Al24       1.0     0.893019     0.879540     0.069395    Uiso  ? Al
   Al25       1.0     0.440113     0.767593     0.892398    Uiso  ? Al
   Al26       1.0     0.555058     0.868728     0.638027    Uiso  ? Al
   Hf1        1.0     0.552804     0.200179     0.116253    Uiso  ? Hf
   Hf2        1.0     0.783679     0.095552     0.361184    Uiso  ? Hf
   Hf3        1.0     0.218360     0.546464     0.131503    Uiso  ? Hf
   Hf4        1.0     0.880021     0.543795     0.118426    Uiso  ? Hf
   Hf5        1.0     0.440397     0.435454     0.850367    Uiso  ? Hf
   Mg1        1.0     0.892119     0.538371     0.642290    Uiso  ? Mg
   Mg2        1.0     0.212529     0.538584     0.614827    Uiso  ? Mg
   Mg3        1.0     0.778427     0.434392     0.395202    Uiso  ? Mg
   Mg4        1.0     0.119813     0.764542     0.378167    Uiso  ? Mg
   Mg5        1.0     0.233544     0.872443     0.629732    Uiso  ? Mg
   N1         1.0     0.226819     0.203786     0.332210    Uiso  ? N
   N2         1.0     0.112145     0.094241     0.080630    Uiso  ? N
   N3         1.0     0.891068     0.199815     0.852034    Uiso  ? N
   N4         1.0     0.776306     0.095565     0.612302    Uiso  ? N
   N5         1.0     0.534911     0.215005     0.334029    Uiso  ? N
   N6         1.0     0.430579     0.082578     0.078213    Uiso  ? N
   N7         1.0     0.222502     0.202934     0.833392    Uiso  ? N
   N8         1.0     0.113045     0.103817     0.587794    Uiso  ? N
   N9         1.0     0.913099     0.201046     0.352221    Uiso  ? N
   N10        1.0     0.791024     0.088161     0.130468    Uiso  ? N
   N11        1.0     0.561861     0.184557     0.844904    Uiso  ? N
   N12        1.0     0.444090     0.091047     0.585488    Uiso  ? N
   N13        1.0     0.233100     0.521004     0.346651    Uiso  ? N
   N14        1.0     0.120417     0.406607     0.078864    Uiso  ? N
   N15        1.0     0.887230     0.541718     0.863922    Uiso  ? N
   N16        1.0     0.776759     0.419864     0.609213    Uiso  ? N
   N17        1.0     0.540151     0.542006     0.334390    Uiso  ? N
   N18        1.0     0.453049     0.436586     0.070401    Uiso  ? N
   N19        1.0     0.201076     0.550000     0.856884    Uiso  ? N
   N20        1.0     0.116360     0.409525     0.583174    Uiso  ? N
   N21        1.0     0.896851     0.549107     0.331171    Uiso  ? N
   N22        1.0     0.764024     0.420475     0.078371    Uiso  ? N
   N23        1.0     0.559412     0.555908     0.830428    Uiso  ? N
   N24        1.0     0.460027     0.417959     0.605450    Uiso  ? N
   N25        1.0     0.238154     0.884104     0.337066    Uiso  ? N
   N26        1.0     0.100302     0.782094     0.121581    Uiso  ? N
   N27        1.0     0.887583     0.877775     0.871478    Uiso  ? N
   N28        1.0     0.766178     0.771930     0.595698    Uiso  ? N
   N29        1.0     0.558886     0.872687     0.333704    Uiso  ? N
   N30        1.0     0.447541     0.759069     0.087582    Uiso  ? N
   N31        1.0     0.226594     0.868815     0.846103    Uiso  ? N
   N32        1.0     0.096156     0.772202     0.622127    Uiso  ? N
   N33        1.0     0.884968     0.863922     0.386520    Uiso  ? N
   N34        1.0     0.760968     0.786889     0.077499    Uiso  ? N
   N35        1.0     0.549924     0.872182     0.832566    Uiso  ? N
   N36        1.0     0.465678     0.751157     0.577033    Uiso  ? N
