
#======================================================================
# CRYSTAL DATA
#----------------------------------------------------------------------
data_VESTA_phase_1

_chemical_name_common                  'Al   Hf   Mg   N                      '
_cell_length_a                         9.846038
_cell_length_b                         9.834746
_cell_length_c                         9.917649
_cell_angle_alpha                      90.179855
_cell_angle_beta                       90.287971
_cell_angle_gamma                      60.100204
_cell_volume                           832.522683
_space_group_name_H-M_alt              'P 1'
_space_group_IT_number                 1

loop_
_space_group_symop_operation_xyz
   'x, y, z'

loop_
   _atom_site_label
   _atom_site_occupancy
   _atom_site_fract_x
   _atom_site_fract_y
   _atom_site_fract_z
   _atom_site_adp_type
   _atom_site_U_iso_or_equiv
   _atom_site_type_symbol
   Al1        1.0     0.122947     0.089649     0.312750    Uiso  ? Al
   Al2        1.0     0.221636     0.193686     0.060951    Uiso  ? Al
   Al3        1.0     0.786581     0.087990     0.802054    Uiso  ? Al
   Al4        1.0     0.902641     0.205235     0.569642    Uiso  ? Al
   Al5        1.0     0.435089     0.087927     0.320554    Uiso  ? Al
   Al6        1.0     0.112685     0.094754     0.814496    Uiso  ? Al
   Al7        1.0     0.218160     0.206445     0.566929    Uiso  ? Al
   Al8        1.0     0.893770     0.202826     0.059853    Uiso  ? Al
   Al9        1.0     0.440905     0.086554     0.807252    Uiso  ? Al
   Al10       1.0     0.553642     0.197251     0.567733    Uiso  ? Al
   Al11       1.0     0.115943     0.417231     0.320406    Uiso  ? Al
   Al12       1.0     0.787786     0.424482     0.805052    Uiso  ? Al
   Al13       1.0     0.439852     0.432860     0.385067    Uiso  ? Al
   Al14       1.0     0.551713     0.543343     0.137609    Uiso  ? Al
   Al15       1.0     0.105999     0.426226     0.808268    Uiso  ? Al
   Al16       1.0     0.564915     0.540651     0.611505    Uiso  ? Al
   Al17       1.0     0.225354     0.874589     0.063963    Uiso  ? Al
   Al18       1.0     0.774530     0.764917     0.813095    Uiso  ? Al
   Al19       1.0     0.888214     0.866041     0.571635    Uiso  ? Al
   Al20       1.0     0.442139     0.765154     0.356820    Uiso  ? Al
   Al21       1.0     0.546812     0.870140     0.061503    Uiso  ? Al
   Al22       1.0     0.101937     0.770170     0.812081    Uiso  ? Al
   Al23       1.0     0.773448     0.767739     0.316337    Uiso  ? Al
   Al24       1.0     0.890757     0.876421     0.059173    Uiso  ? Al
   Al25       1.0     0.443263     0.769143     0.812678    Uiso  ? Al
   Al26       1.0     0.561332     0.872978     0.566864    Uiso  ? Al
   Hf1        1.0     0.561404     0.191352     0.072580    Uiso  ? Hf
   Hf2        1.0     0.786706     0.091109     0.338246    Uiso  ? Hf
   Hf3        1.0     0.221071     0.544092     0.097356    Uiso  ? Hf
   Hf4        1.0     0.879020     0.539509     0.089008    Uiso  ? Hf
   Hf5        1.0     0.439735     0.431707     0.826085    Uiso  ? Hf
   Mg1        1.0     0.891480     0.544379     0.560517    Uiso  ? Mg
   Mg2        1.0     0.203628     0.548450     0.564993    Uiso  ? Mg
   Mg3        1.0     0.781127     0.424741     0.341462    Uiso  ? Mg
   Mg4        1.0     0.115140     0.768723     0.327686    Uiso  ? Mg
   Mg5        1.0     0.215914     0.880896     0.571189    Uiso  ? Mg
   N1         1.0     0.223398     0.203376     0.372389    Uiso  ? N
   N2         1.0     0.109456     0.094820     0.114962    Uiso  ? N
   N3         1.0     0.887438     0.203924     0.865532    Uiso  ? N
   N4         1.0     0.776170     0.096923     0.605740    Uiso  ? N
   N5         1.0     0.540073     0.208520     0.363575    Uiso  ? N
   N6         1.0     0.432153     0.083228     0.125647    Uiso  ? N
   N7         1.0     0.226472     0.203867     0.871006    Uiso  ? N
   N8         1.0     0.107905     0.109673     0.629906    Uiso  ? N
   N9         1.0     0.917340     0.192681     0.379814    Uiso  ? N
   N10        1.0     0.795848     0.087512     0.123106    Uiso  ? N
   N11        1.0     0.566957     0.182973     0.859534    Uiso  ? N
   N12        1.0     0.442829     0.093378     0.616759    Uiso  ? N
   N13        1.0     0.231180     0.524031     0.335046    Uiso  ? N
   N14        1.0     0.119701     0.402388     0.121865    Uiso  ? N
   N15        1.0     0.887155     0.540087     0.868748    Uiso  ? N
   N16        1.0     0.781515     0.418505     0.609866    Uiso  ? N
   N17        1.0     0.538268     0.544036     0.335669    Uiso  ? N
   N18        1.0     0.459879     0.430416     0.061497    Uiso  ? N
   N19        1.0     0.199715     0.550734     0.871961    Uiso  ? N
   N20        1.0     0.118547     0.413181     0.622247    Uiso  ? N
   N21        1.0     0.895892     0.549183     0.336585    Uiso  ? N
   N22        1.0     0.769402     0.412956     0.115986    Uiso  ? N
   N23        1.0     0.563609     0.546558     0.817154    Uiso  ? N
   N24        1.0     0.454141     0.421835     0.593148    Uiso  ? N
   N25        1.0     0.231217     0.883866     0.363403    Uiso  ? N
   N26        1.0     0.100420     0.782857     0.111696    Uiso  ? N
   N27        1.0     0.883646     0.878000     0.868451    Uiso  ? N
   N28        1.0     0.768965     0.776480     0.625777    Uiso  ? N
   N29        1.0     0.559471     0.872529     0.372899    Uiso  ? N
   N30        1.0     0.446162     0.757740     0.102020    Uiso  ? N
   N31        1.0     0.222636     0.873510     0.865833    Uiso  ? N
   N32        1.0     0.094047     0.772193     0.625334    Uiso  ? N
   N33        1.0     0.884519     0.861261     0.380627    Uiso  ? N
   N34        1.0     0.762344     0.789650     0.118999    Uiso  ? N
   N35        1.0     0.553835     0.875031     0.868143    Uiso  ? N
   N36        1.0     0.458200     0.759897     0.606427    Uiso  ? N
