
#======================================================================
# CRYSTAL DATA
#----------------------------------------------------------------------
data_VESTA_phase_1

_chemical_name_common                  'Al   Hf   Mg   N                      '
_cell_length_a                         9.835570
_cell_length_b                         9.824653
_cell_length_c                         9.926705
_cell_angle_alpha                      90.081253
_cell_angle_beta                       90.313332
_cell_angle_gamma                      60.044460
_cell_volume                           831.074429
_space_group_name_H-M_alt              'P 1'
_space_group_IT_number                 1

loop_
_space_group_symop_operation_xyz
   'x, y, z'

loop_
   _atom_site_label
   _atom_site_occupancy
   _atom_site_fract_x
   _atom_site_fract_y
   _atom_site_fract_z
   _atom_site_adp_type
   _atom_site_U_iso_or_equiv
   _atom_site_type_symbol
   Al1        1.0     0.121607     0.091081     0.313285    Uiso  ? Al
   Al2        1.0     0.221391     0.193723     0.060305    Uiso  ? Al
   Al3        1.0     0.787110     0.088157     0.801279    Uiso  ? Al
   Al4        1.0     0.901203     0.206427     0.570990    Uiso  ? Al
   Al5        1.0     0.434506     0.088839     0.321542    Uiso  ? Al
   Al6        1.0     0.114022     0.093343     0.814192    Uiso  ? Al
   Al7        1.0     0.217595     0.206391     0.567184    Uiso  ? Al
   Al8        1.0     0.894542     0.201584     0.058193    Uiso  ? Al
   Al9        1.0     0.440936     0.085287     0.806625    Uiso  ? Al
   Al10       1.0     0.553094     0.196820     0.568696    Uiso  ? Al
   Al11       1.0     0.115069     0.418044     0.320767    Uiso  ? Al
   Al12       1.0     0.780400     0.429309     0.803980    Uiso  ? Al
   Al13       1.0     0.437950     0.431145     0.380507    Uiso  ? Al
   Al14       1.0     0.558122     0.538729     0.110847    Uiso  ? Al
   Al15       1.0     0.106632     0.426092     0.807788    Uiso  ? Al
   Al16       1.0     0.562094     0.544874     0.566939    Uiso  ? Al
   Al17       1.0     0.222897     0.876190     0.065523    Uiso  ? Al
   Al18       1.0     0.773499     0.765306     0.812458    Uiso  ? Al
   Al19       1.0     0.887951     0.866675     0.572213    Uiso  ? Al
   Al20       1.0     0.439891     0.768919     0.319812    Uiso  ? Al
   Al21       1.0     0.547892     0.870983     0.062989    Uiso  ? Al
   Al22       1.0     0.104019     0.770341     0.811923    Uiso  ? Al
   Al23       1.0     0.773285     0.767990     0.316955    Uiso  ? Al
   Al24       1.0     0.891120     0.876590     0.058407    Uiso  ? Al
   Al25       1.0     0.447476     0.764292     0.808408    Uiso  ? Al
   Al26       1.0     0.558212     0.870175     0.564003    Uiso  ? Al
   Hf1        1.0     0.561769     0.188664     0.069503    Uiso  ? Hf
   Hf2        1.0     0.785798     0.092037     0.338192    Uiso  ? Hf
   Hf3        1.0     0.220167     0.543700     0.095684    Uiso  ? Hf
   Hf4        1.0     0.880191     0.539988     0.087241    Uiso  ? Hf
   Hf5        1.0     0.442853     0.434069     0.819815    Uiso  ? Hf
   Mg1        1.0     0.889852     0.544651     0.561446    Uiso  ? Mg
   Mg2        1.0     0.202863     0.549382     0.564524    Uiso  ? Mg
   Mg3        1.0     0.783102     0.423810     0.336553    Uiso  ? Mg
   Mg4        1.0     0.114070     0.769390     0.327639    Uiso  ? Mg
   Mg5        1.0     0.222229     0.877998     0.566803    Uiso  ? Mg
   N1         1.0     0.222476     0.204238     0.372677    Uiso  ? N
   N2         1.0     0.109128     0.095449     0.115278    Uiso  ? N
   N3         1.0     0.887530     0.204345     0.864702    Uiso  ? N
   N4         1.0     0.775909     0.097216     0.605796    Uiso  ? N
   N5         1.0     0.539484     0.207810     0.365410    Uiso  ? N
   N6         1.0     0.431400     0.082930     0.126527    Uiso  ? N
   N7         1.0     0.226682     0.203710     0.870847    Uiso  ? N
   N8         1.0     0.108399     0.107971     0.629536    Uiso  ? N
   N9         1.0     0.916682     0.193233     0.381144    Uiso  ? N
   N10        1.0     0.795763     0.087577     0.122796    Uiso  ? N
   N11        1.0     0.566634     0.184330     0.857103    Uiso  ? N
   N12        1.0     0.442421     0.091676     0.616296    Uiso  ? N
   N13        1.0     0.229133     0.525477     0.334838    Uiso  ? N
   N14        1.0     0.119390     0.402087     0.121932    Uiso  ? N
   N15        1.0     0.887322     0.540190     0.868184    Uiso  ? N
   N16        1.0     0.775216     0.421486     0.611409    Uiso  ? N
   N17        1.0     0.540937     0.545784     0.358449    Uiso  ? N
   N18        1.0     0.459136     0.426045     0.072129    Uiso  ? N
   N19        1.0     0.202562     0.549848     0.871548    Uiso  ? N
   N20        1.0     0.117790     0.413590     0.621988    Uiso  ? N
   N21        1.0     0.895772     0.549665     0.336966    Uiso  ? N
   N22        1.0     0.772989     0.410760     0.119110    Uiso  ? N
   N23        1.0     0.564801     0.547614     0.852157    Uiso  ? N
   N24        1.0     0.453494     0.422566     0.594216    Uiso  ? N
   N25        1.0     0.232364     0.883625     0.360062    Uiso  ? N
   N26        1.0     0.100509     0.782727     0.112010    Uiso  ? N
   N27        1.0     0.884305     0.877621     0.867909    Uiso  ? N
   N28        1.0     0.766779     0.778002     0.625081    Uiso  ? N
   N29        1.0     0.557602     0.871617     0.370382    Uiso  ? N
   N30        1.0     0.447141     0.759104     0.122008    Uiso  ? N
   N31        1.0     0.226680     0.871580     0.869855    Uiso  ? N
   N32        1.0     0.095091     0.773707     0.625139    Uiso  ? N
   N33        1.0     0.883784     0.862104     0.381173    Uiso  ? N
   N34        1.0     0.763181     0.789693     0.119394    Uiso  ? N
   N35        1.0     0.553219     0.874117     0.871953    Uiso  ? N
   N36        1.0     0.460477     0.756734     0.618551    Uiso  ? N
