
#======================================================================
# CRYSTAL DATA
#----------------------------------------------------------------------
data_VESTA_phase_1

_chemical_name_common                  'Al   Hf   Mg   N                      '
_cell_length_a                         9.839707
_cell_length_b                         9.814274
_cell_length_c                         10.037395
_cell_angle_alpha                      90.100212
_cell_angle_beta                       90.311211
_cell_angle_gamma                      60.106510
_cell_volume                           840.331074
_space_group_name_H-M_alt              'P 1'
_space_group_IT_number                 1

loop_
_space_group_symop_operation_xyz
   'x, y, z'

loop_
   _atom_site_label
   _atom_site_occupancy
   _atom_site_fract_x
   _atom_site_fract_y
   _atom_site_fract_z
   _atom_site_adp_type
   _atom_site_U_iso_or_equiv
   _atom_site_type_symbol
   Al1        1.0     0.123128     0.090595     0.319957    Uiso  ? Al
   Al2        1.0     0.219895     0.195634     0.064246    Uiso  ? Al
   Al3        1.0     0.787464     0.087764     0.808973    Uiso  ? Al
   Al4        1.0     0.901530     0.203940     0.576982    Uiso  ? Al
   Al5        1.0     0.438480     0.089365     0.372263    Uiso  ? Al
   Al6        1.0     0.111823     0.092543     0.820792    Uiso  ? Al
   Al7        1.0     0.211602     0.209777     0.576775    Uiso  ? Al
   Al8        1.0     0.893103     0.203433     0.065974    Uiso  ? Al
   Al9        1.0     0.435093     0.090774     0.817654    Uiso  ? Al
   Al10       1.0     0.558558     0.199396     0.580367    Uiso  ? Al
   Al11       1.0     0.116425     0.416418     0.325721    Uiso  ? Al
   Al12       1.0     0.787044     0.424196     0.813433    Uiso  ? Al
   Al13       1.0     0.441162     0.434252     0.392814    Uiso  ? Al
   Al14       1.0     0.551228     0.541937     0.141755    Uiso  ? Al
   Al15       1.0     0.103081     0.428663     0.814720    Uiso  ? Al
   Al16       1.0     0.564610     0.544501     0.625897    Uiso  ? Al
   Al17       1.0     0.217384     0.880157     0.078121    Uiso  ? Al
   Al18       1.0     0.779768     0.762424     0.819013    Uiso  ? Al
   Al19       1.0     0.890621     0.866211     0.579021    Uiso  ? Al
   Al20       1.0     0.448124     0.759829     0.387602    Uiso  ? Al
   Al21       1.0     0.543213     0.875774     0.144182    Uiso  ? Al
   Al22       1.0     0.102644     0.771561     0.820188    Uiso  ? Al
   Al23       1.0     0.781473     0.763263     0.326685    Uiso  ? Al
   Al24       1.0     0.891321     0.875486     0.065729    Uiso  ? Al
   Al25       1.0     0.448574     0.764809     0.888486    Uiso  ? Al
   Al26       1.0     0.558454     0.863961     0.632443    Uiso  ? Al
   Hf1        1.0     0.562159     0.190055     0.070947    Uiso  ? Hf
   Hf2        1.0     0.786515     0.091092     0.341222    Uiso  ? Hf
   Hf3        1.0     0.221919     0.542296     0.103953    Uiso  ? Hf
   Hf4        1.0     0.878267     0.540926     0.092703    Uiso  ? Hf
   Hf5        1.0     0.435531     0.436314     0.830891    Uiso  ? Hf
   Mg1        1.0     0.890121     0.542010     0.565852    Uiso  ? Mg
   Mg2        1.0     0.202677     0.549294     0.571001    Uiso  ? Mg
   Mg3        1.0     0.779581     0.424533     0.342949    Uiso  ? Mg
   Mg4        1.0     0.116975     0.767327     0.332842    Uiso  ? Mg
   Mg5        1.0     0.220076     0.877802     0.575653    Uiso  ? Mg
   N1         1.0     0.220642     0.205088     0.383599    Uiso  ? N
   N2         1.0     0.107196     0.098961     0.124533    Uiso  ? N
   N3         1.0     0.886788     0.203815     0.874282    Uiso  ? N
   N4         1.0     0.779319     0.095209     0.616964    Uiso  ? N
   N5         1.0     0.543484     0.209121     0.380200    Uiso  ? N
   N6         1.0     0.430336     0.089647     0.112506    Uiso  ? N
   N7         1.0     0.219858     0.207036     0.874981    Uiso  ? N
   N8         1.0     0.107995     0.106033     0.637565    Uiso  ? N
   N9         1.0     0.916284     0.192567     0.388567    Uiso  ? N
   N10        1.0     0.796171     0.086718     0.129341    Uiso  ? N
   N11        1.0     0.564081     0.185820     0.858769    Uiso  ? N
   N12        1.0     0.442130     0.093206     0.611279    Uiso  ? N
   N13        1.0     0.232447     0.522137     0.342290    Uiso  ? N
   N14        1.0     0.117903     0.403271     0.129423    Uiso  ? N
   N15        1.0     0.886000     0.540463     0.876684    Uiso  ? N
   N16        1.0     0.781317     0.416226     0.622156    Uiso  ? N
   N17        1.0     0.535830     0.544537     0.330775    Uiso  ? N
   N18        1.0     0.459338     0.431188     0.062232    Uiso  ? N
   N19        1.0     0.196841     0.551965     0.880799    Uiso  ? N
   N20        1.0     0.116773     0.415364     0.631570    Uiso  ? N
   N21        1.0     0.897308     0.546003     0.346366    Uiso  ? N
   N22        1.0     0.769094     0.413641     0.120739    Uiso  ? N
   N23        1.0     0.559595     0.553865     0.823714    Uiso  ? N
   N24        1.0     0.454098     0.425254     0.602056    Uiso  ? N
   N25        1.0     0.234925     0.882004     0.362238    Uiso  ? N
   N26        1.0     0.100107     0.781207     0.121196    Uiso  ? N
   N27        1.0     0.883620     0.878241     0.876976    Uiso  ? N
   N28        1.0     0.775955     0.772036     0.631026    Uiso  ? N
   N29        1.0     0.556458     0.871039     0.337123    Uiso  ? N
   N30        1.0     0.451976     0.756216     0.081697    Uiso  ? N
   N31        1.0     0.218838     0.875480     0.881153    Uiso  ? N
   N32        1.0     0.096633     0.772608     0.635206    Uiso  ? N
   N33        1.0     0.886755     0.861983     0.390334    Uiso  ? N
   N34        1.0     0.767901     0.787339     0.127487    Uiso  ? N
   N35        1.0     0.551145     0.871818     0.830653    Uiso  ? N
   N36        1.0     0.466593     0.750439     0.574515    Uiso  ? N
