
#======================================================================
# CRYSTAL DATA
#----------------------------------------------------------------------
data_VESTA_phase_1

_chemical_name_common                  'Al   Hf   Mg   N                      '
_cell_length_a                         9.886740
_cell_length_b                         9.849098
_cell_length_c                         9.901860
_cell_angle_alpha                      90.095108
_cell_angle_beta                       89.831215
_cell_angle_gamma                      59.984795
_cell_volume                           834.883162
_space_group_name_H-M_alt              'P 1'
_space_group_IT_number                 1

loop_
_space_group_symop_operation_xyz
   'x, y, z'

loop_
   _atom_site_label
   _atom_site_occupancy
   _atom_site_fract_x
   _atom_site_fract_y
   _atom_site_fract_z
   _atom_site_adp_type
   _atom_site_U_iso_or_equiv
   _atom_site_type_symbol
   Al1        1.0     0.128085     0.092180     0.399768    Uiso  ? Al
   Al2        1.0     0.217607     0.194855     0.141677    Uiso  ? Al
   Al3        1.0     0.789352     0.086840     0.815013    Uiso  ? Al
   Al4        1.0     0.900270     0.205165     0.586097    Uiso  ? Al
   Al5        1.0     0.438707     0.091971     0.391005    Uiso  ? Al
   Al6        1.0     0.119676     0.084724     0.882486    Uiso  ? Al
   Al7        1.0     0.222383     0.205277     0.640044    Uiso  ? Al
   Al8        1.0     0.888549     0.204743     0.069668    Uiso  ? Al
   Al9        1.0     0.436914     0.083526     0.884053    Uiso  ? Al
   Al10       1.0     0.554079     0.195610     0.634705    Uiso  ? Al
   Al11       1.0     0.113049     0.420699     0.394750    Uiso  ? Al
   Al12       1.0     0.781779     0.424980     0.832768    Uiso  ? Al
   Al13       1.0     0.442422     0.429485     0.400736    Uiso  ? Al
   Al14       1.0     0.553022     0.543545     0.146141    Uiso  ? Al
   Al15       1.0     0.109216     0.421808     0.882656    Uiso  ? Al
   Al16       1.0     0.563134     0.544555     0.632359    Uiso  ? Al
   Al17       1.0     0.220276     0.881755     0.144688    Uiso  ? Al
   Al18       1.0     0.768073     0.768793     0.878126    Uiso  ? Al
   Al19       1.0     0.887006     0.869019     0.582713    Uiso  ? Al
   Al20       1.0     0.446449     0.762724     0.388568    Uiso  ? Al
   Al21       1.0     0.549739     0.871750     0.141812    Uiso  ? Al
   Al22       1.0     0.102653     0.770665     0.817422    Uiso  ? Al
   Al23       1.0     0.772997     0.759106     0.397324    Uiso  ? Al
   Al24       1.0     0.892968     0.879261     0.068674    Uiso  ? Al
   Al25       1.0     0.440757     0.766713     0.893986    Uiso  ? Al
   Al26       1.0     0.555108     0.869239     0.638507    Uiso  ? Al
   Hf1        1.0     0.552667     0.200391     0.114957    Uiso  ? Hf
   Hf2        1.0     0.785132     0.093924     0.353351    Uiso  ? Hf
   Hf3        1.0     0.217445     0.546291     0.132973    Uiso  ? Hf
   Hf4        1.0     0.878809     0.542247     0.117894    Uiso  ? Hf
   Hf5        1.0     0.440815     0.435671     0.852800    Uiso  ? Hf
   Mg1        1.0     0.895465     0.541330     0.638682    Uiso  ? Mg
   Mg2        1.0     0.213592     0.537634     0.616875    Uiso  ? Mg
   Mg3        1.0     0.775934     0.437611     0.386455    Uiso  ? Mg
   Mg4        1.0     0.120418     0.763487     0.379828    Uiso  ? Mg
   Mg5        1.0     0.234653     0.870899     0.632349    Uiso  ? Mg
   N1         1.0     0.226000     0.203502     0.331835    Uiso  ? N
   N2         1.0     0.110537     0.094642     0.080422    Uiso  ? N
   N3         1.0     0.887688     0.201056     0.870267    Uiso  ? N
   N4         1.0     0.777120     0.095416     0.616329    Uiso  ? N
   N5         1.0     0.535802     0.214294     0.332501    Uiso  ? N
   N6         1.0     0.430017     0.082890     0.078339    Uiso  ? N
   N7         1.0     0.223365     0.203515     0.833647    Uiso  ? N
   N8         1.0     0.117999     0.100853     0.592918    Uiso  ? N
   N9         1.0     0.909737     0.201421     0.387343    Uiso  ? N
   N10        1.0     0.793115     0.089112     0.131349    Uiso  ? N
   N11        1.0     0.562163     0.184882     0.846232    Uiso  ? N
   N12        1.0     0.445103     0.091373     0.584937    Uiso  ? N
   N13        1.0     0.233237     0.520493     0.346083    Uiso  ? N
   N14        1.0     0.120287     0.406075     0.078720    Uiso  ? N
   N15        1.0     0.887450     0.541144     0.862662    Uiso  ? N
   N16        1.0     0.779204     0.417766     0.625090    Uiso  ? N
   N17        1.0     0.536932     0.543947     0.337534    Uiso  ? N
   N18        1.0     0.452064     0.437214     0.071043    Uiso  ? N
   N19        1.0     0.201273     0.549430     0.855534    Uiso  ? N
   N20        1.0     0.118143     0.408323     0.581437    Uiso  ? N
   N21        1.0     0.897617     0.549946     0.331942    Uiso  ? N
   N22        1.0     0.763830     0.419905     0.099136    Uiso  ? N
   N23        1.0     0.558701     0.556524     0.829525    Uiso  ? N
   N24        1.0     0.460866     0.417239     0.604389    Uiso  ? N
   N25        1.0     0.236476     0.885038     0.336732    Uiso  ? N
   N26        1.0     0.099693     0.781783     0.121895    Uiso  ? N
   N27        1.0     0.887440     0.878195     0.872297    Uiso  ? N
   N28        1.0     0.765513     0.773070     0.593964    Uiso  ? N
   N29        1.0     0.558335     0.873019     0.333299    Uiso  ? N
   N30        1.0     0.446391     0.759349     0.088349    Uiso  ? N
   N31        1.0     0.227204     0.867422     0.846496    Uiso  ? N
   N32        1.0     0.095832     0.771749     0.622573    Uiso  ? N
   N33        1.0     0.885083     0.864450     0.387337    Uiso  ? N
   N34        1.0     0.759831     0.787346     0.077230    Uiso  ? N
   N35        1.0     0.549806     0.872218     0.832289    Uiso  ? N
   N36        1.0     0.465948     0.751452     0.576427    Uiso  ? N
