
#======================================================================
# CRYSTAL DATA
#----------------------------------------------------------------------
data_VESTA_phase_1

_chemical_name_common                  'Al   Hf   Mg   N                      '
_cell_length_a                         9.830776
_cell_length_b                         9.812902
_cell_length_c                         10.014290
_cell_angle_alpha                      90.117050
_cell_angle_beta                       90.319748
_cell_angle_gamma                      60.051060
_cell_volume                           837.051884
_space_group_name_H-M_alt              'P 1'
_space_group_IT_number                 1

loop_
_space_group_symop_operation_xyz
   'x, y, z'

loop_
   _atom_site_label
   _atom_site_occupancy
   _atom_site_fract_x
   _atom_site_fract_y
   _atom_site_fract_z
   _atom_site_adp_type
   _atom_site_U_iso_or_equiv
   _atom_site_type_symbol
   Al1        1.0     0.122054     0.091556     0.316959    Uiso  ? Al
   Al2        1.0     0.221223     0.194397     0.063639    Uiso  ? Al
   Al3        1.0     0.786701     0.087755     0.804764    Uiso  ? Al
   Al4        1.0     0.901907     0.204925     0.573823    Uiso  ? Al
   Al5        1.0     0.435449     0.090067     0.324212    Uiso  ? Al
   Al6        1.0     0.113292     0.092837     0.817305    Uiso  ? Al
   Al7        1.0     0.218423     0.205864     0.570704    Uiso  ? Al
   Al8        1.0     0.893135     0.203931     0.061820    Uiso  ? Al
   Al9        1.0     0.440730     0.083502     0.809150    Uiso  ? Al
   Al10       1.0     0.554402     0.196884     0.571558    Uiso  ? Al
   Al11       1.0     0.116003     0.417417     0.323455    Uiso  ? Al
   Al12       1.0     0.787768     0.424270     0.809499    Uiso  ? Al
   Al13       1.0     0.441167     0.433930     0.388456    Uiso  ? Al
   Al14       1.0     0.551605     0.542603     0.138950    Uiso  ? Al
   Al15       1.0     0.105376     0.426020     0.811805    Uiso  ? Al
   Al16       1.0     0.564051     0.545232     0.621660    Uiso  ? Al
   Al17       1.0     0.217247     0.879499     0.075670    Uiso  ? Al
   Al18       1.0     0.773164     0.765281     0.816022    Uiso  ? Al
   Al19       1.0     0.888560     0.866559     0.575826    Uiso  ? Al
   Al20       1.0     0.445597     0.760221     0.382659    Uiso  ? Al
   Al21       1.0     0.550787     0.874683     0.070645    Uiso  ? Al
   Al22       1.0     0.101417     0.770758     0.816162    Uiso  ? Al
   Al23       1.0     0.775225     0.767769     0.320190    Uiso  ? Al
   Al24       1.0     0.890580     0.876694     0.061509    Uiso  ? Al
   Al25       1.0     0.444150     0.761338     0.879661    Uiso  ? Al
   Al26       1.0     0.562760     0.871501     0.566653    Uiso  ? Al
   Hf1        1.0     0.562117     0.191435     0.070284    Uiso  ? Hf
   Hf2        1.0     0.786256     0.091444     0.339623    Uiso  ? Hf
   Hf3        1.0     0.222399     0.542955     0.100402    Uiso  ? Hf
   Hf4        1.0     0.879985     0.539949     0.091270    Uiso  ? Hf
   Hf5        1.0     0.437063     0.432170     0.825792    Uiso  ? Hf
   Mg1        1.0     0.890733     0.543296     0.564166    Uiso  ? Mg
   Mg2        1.0     0.203224     0.548587     0.567420    Uiso  ? Mg
   Mg3        1.0     0.779483     0.425786     0.341546    Uiso  ? Mg
   Mg4        1.0     0.115235     0.767689     0.330126    Uiso  ? Mg
   Mg5        1.0     0.218830     0.878438     0.573265    Uiso  ? Mg
   N1         1.0     0.223330     0.204044     0.377484    Uiso  ? N
   N2         1.0     0.107093     0.098787     0.120828    Uiso  ? N
   N3         1.0     0.887228     0.203743     0.869696    Uiso  ? N
   N4         1.0     0.776792     0.096432     0.611352    Uiso  ? N
   N5         1.0     0.540856     0.209083     0.371179    Uiso  ? N
   N6         1.0     0.431375     0.086631     0.130627    Uiso  ? N
   N7         1.0     0.226332     0.202791     0.875125    Uiso  ? N
   N8         1.0     0.108993     0.107311     0.633704    Uiso  ? N
   N9         1.0     0.915904     0.193736     0.385257    Uiso  ? N
   N10        1.0     0.795476     0.088254     0.126077    Uiso  ? N
   N11        1.0     0.565820     0.183255     0.860290    Uiso  ? N
   N12        1.0     0.443380     0.091412     0.620506    Uiso  ? N
   N13        1.0     0.231968     0.523152     0.338670    Uiso  ? N
   N14        1.0     0.120177     0.402488     0.126176    Uiso  ? N
   N15        1.0     0.886636     0.540311     0.873423    Uiso  ? N
   N16        1.0     0.781258     0.417661     0.617610    Uiso  ? N
   N17        1.0     0.536089     0.544926     0.328141    Uiso  ? N
   N18        1.0     0.460727     0.430169     0.060357    Uiso  ? N
   N19        1.0     0.198626     0.550698     0.876987    Uiso  ? N
   N20        1.0     0.118896     0.412788     0.627686    Uiso  ? N
   N21        1.0     0.896110     0.548681     0.340919    Uiso  ? N
   N22        1.0     0.769778     0.413977     0.117244    Uiso  ? N
   N23        1.0     0.559884     0.551398     0.819428    Uiso  ? N
   N24        1.0     0.454674     0.423159     0.597191    Uiso  ? N
   N25        1.0     0.233207     0.882610     0.357693    Uiso  ? N
   N26        1.0     0.098596     0.781737     0.117511    Uiso  ? N
   N27        1.0     0.882950     0.877865     0.872706    Uiso  ? N
   N28        1.0     0.768858     0.776394     0.630276    Uiso  ? N
   N29        1.0     0.561093     0.874735     0.371116    Uiso  ? N
   N30        1.0     0.448388     0.754024     0.077855    Uiso  ? N
   N31        1.0     0.217096     0.875540     0.876201    Uiso  ? N
   N32        1.0     0.095012     0.772253     0.630889    Uiso  ? N
   N33        1.0     0.885486     0.861725     0.386524    Uiso  ? N
   N34        1.0     0.764754     0.789613     0.124600    Uiso  ? N
   N35        1.0     0.555549     0.875629     0.876488    Uiso  ? N
   N36        1.0     0.462951     0.752301     0.575397    Uiso  ? N
