
#======================================================================
# CRYSTAL DATA
#----------------------------------------------------------------------
data_VESTA_phase_1

_chemical_name_common                  'Al   Hf   Mg   N                      '
_cell_length_a                         9.843515
_cell_length_b                         9.827691
_cell_length_c                         10.015971
_cell_angle_alpha                      89.956184
_cell_angle_beta                       90.175423
_cell_angle_gamma                      60.080963
_cell_volume                           839.799481
_space_group_name_H-M_alt              'P 1'
_space_group_IT_number                 1

loop_
_space_group_symop_operation_xyz
   'x, y, z'

loop_
   _atom_site_label
   _atom_site_occupancy
   _atom_site_fract_x
   _atom_site_fract_y
   _atom_site_fract_z
   _atom_site_adp_type
   _atom_site_U_iso_or_equiv
   _atom_site_type_symbol
   Al1        1.0     0.123734     0.090866     0.320485    Uiso  ? Al
   Al2        1.0     0.213082     0.198618     0.064912    Uiso  ? Al
   Al3        1.0     0.787326     0.087564     0.813108    Uiso  ? Al
   Al4        1.0     0.903138     0.204949     0.577177    Uiso  ? Al
   Al5        1.0     0.442518     0.087970     0.387952    Uiso  ? Al
   Al6        1.0     0.112666     0.092743     0.819686    Uiso  ? Al
   Al7        1.0     0.214804     0.208471     0.575169    Uiso  ? Al
   Al8        1.0     0.892036     0.203430     0.065829    Uiso  ? Al
   Al9        1.0     0.441249     0.082030     0.878565    Uiso  ? Al
   Al10       1.0     0.557284     0.197268     0.612161    Uiso  ? Al
   Al11       1.0     0.116315     0.417062     0.326643    Uiso  ? Al
   Al12       1.0     0.787117     0.424172     0.812715    Uiso  ? Al
   Al13       1.0     0.442634     0.430799     0.388935    Uiso  ? Al
   Al14       1.0     0.550616     0.544717     0.142478    Uiso  ? Al
   Al15       1.0     0.104178     0.426900     0.813517    Uiso  ? Al
   Al16       1.0     0.564457     0.543861     0.624141    Uiso  ? Al
   Al17       1.0     0.216730     0.880577     0.077357    Uiso  ? Al
   Al18       1.0     0.780400     0.761314     0.819122    Uiso  ? Al
   Al19       1.0     0.890927     0.863988     0.579587    Uiso  ? Al
   Al20       1.0     0.447811     0.761678     0.387265    Uiso  ? Al
   Al21       1.0     0.543700     0.874200     0.140062    Uiso  ? Al
   Al22       1.0     0.102977     0.770721     0.819426    Uiso  ? Al
   Al23       1.0     0.779567     0.764201     0.324711    Uiso  ? Al
   Al24       1.0     0.889097     0.877750     0.065221    Uiso  ? Al
   Al25       1.0     0.447911     0.762847     0.885916    Uiso  ? Al
   Al26       1.0     0.555220     0.870338     0.635067    Uiso  ? Al
   Hf1        1.0     0.556055     0.200336     0.104588    Uiso  ? Hf
   Hf2        1.0     0.788308     0.090498     0.346932    Uiso  ? Hf
   Hf3        1.0     0.218430     0.546573     0.104144    Uiso  ? Hf
   Hf4        1.0     0.878888     0.540037     0.092826    Uiso  ? Hf
   Hf5        1.0     0.437248     0.434376     0.839088    Uiso  ? Hf
   Mg1        1.0     0.890119     0.542784     0.565730    Uiso  ? Mg
   Mg2        1.0     0.205694     0.547450     0.570639    Uiso  ? Mg
   Mg3        1.0     0.778992     0.425331     0.343914    Uiso  ? Mg
   Mg4        1.0     0.116766     0.767662     0.334286    Uiso  ? Mg
   Mg5        1.0     0.220930     0.877354     0.575890    Uiso  ? Mg
   N1         1.0     0.221497     0.205110     0.379006    Uiso  ? N
   N2         1.0     0.106243     0.098560     0.125102    Uiso  ? N
   N3         1.0     0.887232     0.203394     0.873549    Uiso  ? N
   N4         1.0     0.779505     0.094742     0.614754    Uiso  ? N
   N5         1.0     0.539228     0.212575     0.332168    Uiso  ? N
   N6         1.0     0.434715     0.080806     0.076177    Uiso  ? N
   N7         1.0     0.215280     0.208780     0.875528    Uiso  ? N
   N8         1.0     0.109959     0.105698     0.636289    Uiso  ? N
   N9         1.0     0.916947     0.193959     0.388668    Uiso  ? N
   N10        1.0     0.796724     0.086907     0.130383    Uiso  ? N
   N11        1.0     0.564054     0.186056     0.855421    Uiso  ? N
   N12        1.0     0.449231     0.089305     0.582054    Uiso  ? N
   N13        1.0     0.231481     0.523692     0.342380    Uiso  ? N
   N14        1.0     0.119518     0.403333     0.130039    Uiso  ? N
   N15        1.0     0.886455     0.539585     0.876179    Uiso  ? N
   N16        1.0     0.781735     0.416434     0.621285    Uiso  ? N
   N17        1.0     0.535257     0.546038     0.331453    Uiso  ? N
   N18        1.0     0.456405     0.436906     0.062067    Uiso  ? N
   N19        1.0     0.196410     0.551288     0.880468    Uiso  ? N
   N20        1.0     0.118263     0.414115     0.629727    Uiso  ? N
   N21        1.0     0.896257     0.546960     0.345122    Uiso  ? N
   N22        1.0     0.768241     0.413914     0.120217    Uiso  ? N
   N23        1.0     0.559777     0.552743     0.822007    Uiso  ? N
   N24        1.0     0.457759     0.419707     0.597135    Uiso  ? N
   N25        1.0     0.234370     0.882292     0.362479    Uiso  ? N
   N26        1.0     0.097937     0.783896     0.121287    Uiso  ? N
   N27        1.0     0.884298     0.877408     0.876296    Uiso  ? N
   N28        1.0     0.774759     0.772295     0.631723    Uiso  ? N
   N29        1.0     0.553187     0.874684     0.330083    Uiso  ? N
   N30        1.0     0.451131     0.756187     0.079694    Uiso  ? N
   N31        1.0     0.218520     0.875292     0.879974    Uiso  ? N
   N32        1.0     0.097429     0.771404     0.634103    Uiso  ? N
   N33        1.0     0.885857     0.860704     0.390365    Uiso  ? N
   N34        1.0     0.768607     0.786000     0.125228    Uiso  ? N
   N35        1.0     0.550181     0.872063     0.830242    Uiso  ? N
   N36        1.0     0.467987     0.751590     0.574904    Uiso  ? N
