
#======================================================================
# CRYSTAL DATA
#----------------------------------------------------------------------
data_VESTA_phase_1

_chemical_name_common                  'Al   Hf   Mg   N                      '
_cell_length_a                         9.877406
_cell_length_b                         9.856590
_cell_length_c                         9.900583
_cell_angle_alpha                      90.096542
_cell_angle_beta                       90.181671
_cell_angle_gamma                      60.089310
_cell_volume                           835.504855
_space_group_name_H-M_alt              'P 1'
_space_group_IT_number                 1

loop_
_space_group_symop_operation_xyz
   'x, y, z'

loop_
   _atom_site_label
   _atom_site_occupancy
   _atom_site_fract_x
   _atom_site_fract_y
   _atom_site_fract_z
   _atom_site_adp_type
   _atom_site_U_iso_or_equiv
   _atom_site_type_symbol
   Al1        1.0     0.123145     0.091728     0.319318    Uiso  ? Al
   Al2        1.0     0.213677     0.199399     0.065998    Uiso  ? Al
   Al3        1.0     0.789424     0.089406     0.810867    Uiso  ? Al
   Al4        1.0     0.904149     0.203878     0.576594    Uiso  ? Al
   Al5        1.0     0.442333     0.088889     0.386518    Uiso  ? Al
   Al6        1.0     0.112963     0.092858     0.820950    Uiso  ? Al
   Al7        1.0     0.217277     0.205984     0.575389    Uiso  ? Al
   Al8        1.0     0.890804     0.204616     0.067788    Uiso  ? Al
   Al9        1.0     0.440348     0.082647     0.876162    Uiso  ? Al
   Al10       1.0     0.554389     0.195498     0.629154    Uiso  ? Al
   Al11       1.0     0.116104     0.418431     0.329104    Uiso  ? Al
   Al12       1.0     0.786426     0.424170     0.814921    Uiso  ? Al
   Al13       1.0     0.442958     0.429065     0.390850    Uiso  ? Al
   Al14       1.0     0.551607     0.544038     0.140853    Uiso  ? Al
   Al15       1.0     0.106010     0.426118     0.815123    Uiso  ? Al
   Al16       1.0     0.564205     0.542990     0.621985    Uiso  ? Al
   Al17       1.0     0.217572     0.880740     0.081580    Uiso  ? Al
   Al18       1.0     0.774619     0.763781     0.849364    Uiso  ? Al
   Al19       1.0     0.893617     0.866243     0.582865    Uiso  ? Al
   Al20       1.0     0.447465     0.760806     0.383091    Uiso  ? Al
   Al21       1.0     0.551810     0.871046     0.137333    Uiso  ? Al
   Al22       1.0     0.105189     0.771087     0.818855    Uiso  ? Al
   Al23       1.0     0.771793     0.761696     0.390146    Uiso  ? Al
   Al24       1.0     0.887735     0.880462     0.062520    Uiso  ? Al
   Al25       1.0     0.447174     0.763988     0.885629    Uiso  ? Al
   Al26       1.0     0.554387     0.869091     0.633338    Uiso  ? Al
   Hf1        1.0     0.554490     0.200499     0.109661    Uiso  ? Hf
   Hf2        1.0     0.784733     0.091688     0.352894    Uiso  ? Hf
   Hf3        1.0     0.218836     0.547318     0.105636    Uiso  ? Hf
   Hf4        1.0     0.877843     0.544144     0.099615    Uiso  ? Hf
   Hf5        1.0     0.436775     0.437339     0.839263    Uiso  ? Hf
   Mg1        1.0     0.896490     0.531588     0.579163    Uiso  ? Mg
   Mg2        1.0     0.207568     0.546589     0.570945    Uiso  ? Mg
   Mg3        1.0     0.778451     0.425343     0.346368    Uiso  ? Mg
   Mg4        1.0     0.114876     0.768979     0.335186    Uiso  ? Mg
   Mg5        1.0     0.222479     0.877073     0.574551    Uiso  ? Mg
   N1         1.0     0.221866     0.204925     0.377252    Uiso  ? N
   N2         1.0     0.105347     0.100273     0.123329    Uiso  ? N
   N3         1.0     0.887097     0.203966     0.873120    Uiso  ? N
   N4         1.0     0.778506     0.095622     0.611075    Uiso  ? N
   N5         1.0     0.535625     0.213778     0.327143    Uiso  ? N
   N6         1.0     0.435382     0.080301     0.074844    Uiso  ? N
   N7         1.0     0.216155     0.208425     0.874455    Uiso  ? N
   N8         1.0     0.110263     0.105180     0.635061    Uiso  ? N
   N9         1.0     0.917039     0.193134     0.386049    Uiso  ? N
   N10        1.0     0.794537     0.088204     0.130065    Uiso  ? N
   N11        1.0     0.561506     0.186928     0.838709    Uiso  ? N
   N12        1.0     0.449168     0.088198     0.581839    Uiso  ? N
   N13        1.0     0.231672     0.524523     0.343691    Uiso  ? N
   N14        1.0     0.119965     0.405083     0.129847    Uiso  ? N
   N15        1.0     0.889060     0.536478     0.872013    Uiso  ? N
   N16        1.0     0.780706     0.414151     0.620382    Uiso  ? N
   N17        1.0     0.535469     0.543998     0.332001    Uiso  ? N
   N18        1.0     0.457224     0.435218     0.061203    Uiso  ? N
   N19        1.0     0.196892     0.552480     0.879176    Uiso  ? N
   N20        1.0     0.123507     0.411035     0.629169    Uiso  ? N
   N21        1.0     0.894465     0.549371     0.344852    Uiso  ? N
   N22        1.0     0.768065     0.416063     0.118815    Uiso  ? N
   N23        1.0     0.559977     0.554227     0.822134    Uiso  ? N
   N24        1.0     0.458618     0.417930     0.597413    Uiso  ? N
   N25        1.0     0.235390     0.882191     0.356645    Uiso  ? N
   N26        1.0     0.096162     0.784514     0.119251    Uiso  ? N
   N27        1.0     0.886303     0.880157     0.867760    Uiso  ? N
   N28        1.0     0.770487     0.771312     0.603206    Uiso  ? N
   N29        1.0     0.558249     0.872907     0.329712    Uiso  ? N
   N30        1.0     0.451457     0.756715     0.081298    Uiso  ? N
   N31        1.0     0.219703     0.875640     0.879744    Uiso  ? N
   N32        1.0     0.100309     0.770469     0.631380    Uiso  ? N
   N33        1.0     0.887055     0.862443     0.388352    Uiso  ? N
   N34        1.0     0.761025     0.787796     0.078680    Uiso  ? N
   N35        1.0     0.550187     0.872319     0.826326    Uiso  ? N
   N36        1.0     0.467194     0.750688     0.572978    Uiso  ? N
