
#======================================================================
# CRYSTAL DATA
#----------------------------------------------------------------------
data_VESTA_phase_1

_chemical_name_common                  'Al   Hf   Mg   N                      '
_cell_length_a                         9.899916
_cell_length_b                         9.860983
_cell_length_c                         9.849779
_cell_angle_alpha                      90.060883
_cell_angle_beta                       89.814529
_cell_angle_gamma                      59.952896
_cell_volume                           832.334947
_space_group_name_H-M_alt              'P 1'
_space_group_IT_number                 1

loop_
_space_group_symop_operation_xyz
   'x, y, z'

loop_
   _atom_site_label
   _atom_site_occupancy
   _atom_site_fract_x
   _atom_site_fract_y
   _atom_site_fract_z
   _atom_site_adp_type
   _atom_site_U_iso_or_equiv
   _atom_site_type_symbol
   Al1        1.0     0.126890     0.092670     0.397311    Uiso  ? Al
   Al2        1.0     0.218626     0.195188     0.141544    Uiso  ? Al
   Al3        1.0     0.788836     0.087019     0.815708    Uiso  ? Al
   Al4        1.0     0.899274     0.206625     0.593523    Uiso  ? Al
   Al5        1.0     0.438548     0.091766     0.390955    Uiso  ? Al
   Al6        1.0     0.118427     0.085353     0.882614    Uiso  ? Al
   Al7        1.0     0.221260     0.205470     0.639275    Uiso  ? Al
   Al8        1.0     0.891625     0.201398     0.078997    Uiso  ? Al
   Al9        1.0     0.436681     0.083571     0.883288    Uiso  ? Al
   Al10       1.0     0.553141     0.195763     0.634164    Uiso  ? Al
   Al11       1.0     0.112776     0.420671     0.395090    Uiso  ? Al
   Al12       1.0     0.777749     0.427286     0.862038    Uiso  ? Al
   Al13       1.0     0.442924     0.430180     0.400279    Uiso  ? Al
   Al14       1.0     0.553790     0.543257     0.143251    Uiso  ? Al
   Al15       1.0     0.109246     0.421988     0.881467    Uiso  ? Al
   Al16       1.0     0.565921     0.543820     0.633979    Uiso  ? Al
   Al17       1.0     0.221809     0.880831     0.144457    Uiso  ? Al
   Al18       1.0     0.768408     0.769329     0.876793    Uiso  ? Al
   Al19       1.0     0.887590     0.867372     0.583404    Uiso  ? Al
   Al20       1.0     0.447844     0.761342     0.387937    Uiso  ? Al
   Al21       1.0     0.550255     0.871704     0.141446    Uiso  ? Al
   Al22       1.0     0.102997     0.771106     0.817645    Uiso  ? Al
   Al23       1.0     0.773259     0.758402     0.397714    Uiso  ? Al
   Al24       1.0     0.893037     0.879534     0.069426    Uiso  ? Al
   Al25       1.0     0.440100     0.767581     0.892847    Uiso  ? Al
   Al26       1.0     0.555083     0.868778     0.638104    Uiso  ? Al
   Hf1        1.0     0.552753     0.200273     0.115698    Uiso  ? Hf
   Hf2        1.0     0.783996     0.094579     0.358110    Uiso  ? Hf
   Hf3        1.0     0.218203     0.546506     0.131678    Uiso  ? Hf
   Hf4        1.0     0.879798     0.543524     0.118213    Uiso  ? Hf
   Hf5        1.0     0.440236     0.435479     0.850607    Uiso  ? Hf
   Mg1        1.0     0.892682     0.538540     0.642447    Uiso  ? Mg
   Mg2        1.0     0.212597     0.538488     0.614939    Uiso  ? Mg
   Mg3        1.0     0.776632     0.437011     0.394748    Uiso  ? Mg
   Mg4        1.0     0.119833     0.764367     0.378489    Uiso  ? Mg
   Mg5        1.0     0.234120     0.871612     0.630364    Uiso  ? Mg
   N1         1.0     0.226478     0.203737     0.332256    Uiso  ? N
   N2         1.0     0.111920     0.094327     0.081326    Uiso  ? N
   N3         1.0     0.889424     0.199253     0.867061    Uiso  ? N
   N4         1.0     0.776611     0.095402     0.614046    Uiso  ? N
   N5         1.0     0.534957     0.214899     0.333683    Uiso  ? N
   N6         1.0     0.430487     0.082742     0.078420    Uiso  ? N
   N7         1.0     0.222928     0.203314     0.833782    Uiso  ? N
   N8         1.0     0.115929     0.102129     0.590882    Uiso  ? N
   N9         1.0     0.911280     0.200914     0.375040    Uiso  ? N
   N10        1.0     0.792073     0.088877     0.131839    Uiso  ? N
   N11        1.0     0.562062     0.184624     0.845440    Uiso  ? N
   N12        1.0     0.444447     0.091127     0.585459    Uiso  ? N
   N13        1.0     0.233129     0.520899     0.346613    Uiso  ? N
   N14        1.0     0.120418     0.406604     0.078994    Uiso  ? N
   N15        1.0     0.887479     0.541977     0.863953    Uiso  ? N
   N16        1.0     0.777298     0.419225     0.614244    Uiso  ? N
   N17        1.0     0.539767     0.542229     0.334662    Uiso  ? N
   N18        1.0     0.452881     0.436571     0.070544    Uiso  ? N
   N19        1.0     0.201024     0.550058     0.856852    Uiso  ? N
   N20        1.0     0.116525     0.409354     0.583007    Uiso  ? N
   N21        1.0     0.896812     0.549026     0.331316    Uiso  ? N
   N22        1.0     0.763114     0.421901     0.080084    Uiso  ? N
   N23        1.0     0.558553     0.556415     0.830612    Uiso  ? N
   N24        1.0     0.460128     0.417836     0.605370    Uiso  ? N
   N25        1.0     0.237933     0.884077     0.337104    Uiso  ? N
   N26        1.0     0.100162     0.782123     0.121734    Uiso  ? N
   N27        1.0     0.887492     0.878246     0.871723    Uiso  ? N
   N28        1.0     0.766157     0.771909     0.595627    Uiso  ? N
   N29        1.0     0.558800     0.872723     0.333729    Uiso  ? N
   N30        1.0     0.447195     0.759334     0.087832    Uiso  ? N
   N31        1.0     0.226853     0.868269     0.846290    Uiso  ? N
   N32        1.0     0.096082     0.772101     0.622196    Uiso  ? N
   N33        1.0     0.885014     0.863623     0.386761    Uiso  ? N
   N34        1.0     0.760776     0.787183     0.077568    Uiso  ? N
   N35        1.0     0.549868     0.872230     0.832598    Uiso  ? N
   N36        1.0     0.466026     0.750875     0.576887    Uiso  ? N
