
#======================================================================
# CRYSTAL DATA
#----------------------------------------------------------------------
data_VESTA_phase_1

_chemical_name_common                  'Al   Hf   Mg   N                      '
_cell_length_a                         9.791806
_cell_length_b                         9.769238
_cell_length_c                         10.049966
_cell_angle_alpha                      89.979942
_cell_angle_beta                       90.145157
_cell_angle_gamma                      59.974163
_cell_volume                           832.345081
_space_group_name_H-M_alt              'P 1'
_space_group_IT_number                 1

loop_
_space_group_symop_operation_xyz
   'x, y, z'

loop_
   _atom_site_label
   _atom_site_occupancy
   _atom_site_fract_x
   _atom_site_fract_y
   _atom_site_fract_z
   _atom_site_adp_type
   _atom_site_U_iso_or_equiv
   _atom_site_type_symbol
   Al1        1.0     0.121300     0.091713     0.312401    Uiso  ? Al
   Al2        1.0     0.221324     0.193422     0.057117    Uiso  ? Al
   Al3        1.0     0.785585     0.089331     0.798153    Uiso  ? Al
   Al4        1.0     0.898228     0.209118     0.569028    Uiso  ? Al
   Al5        1.0     0.434642     0.087433     0.320128    Uiso  ? Al
   Al6        1.0     0.113215     0.093252     0.810243    Uiso  ? Al
   Al7        1.0     0.217617     0.206860     0.565210    Uiso  ? Al
   Al8        1.0     0.895607     0.201225     0.055283    Uiso  ? Al
   Al9        1.0     0.440824     0.086621     0.804100    Uiso  ? Al
   Al10       1.0     0.549734     0.203136     0.560439    Uiso  ? Al
   Al11       1.0     0.114417     0.417982     0.316952    Uiso  ? Al
   Al12       1.0     0.780956     0.428396     0.805382    Uiso  ? Al
   Al13       1.0     0.444624     0.432523     0.322449    Uiso  ? Al
   Al14       1.0     0.560733     0.543124     0.060806    Uiso  ? Al
   Al15       1.0     0.106452     0.426315     0.804111    Uiso  ? Al
   Al16       1.0     0.559234     0.541692     0.559440    Uiso  ? Al
   Al17       1.0     0.222383     0.877318     0.063141    Uiso  ? Al
   Al18       1.0     0.773647     0.765180     0.808948    Uiso  ? Al
   Al19       1.0     0.889465     0.864580     0.570506    Uiso  ? Al
   Al20       1.0     0.442953     0.762710     0.313520    Uiso  ? Al
   Al21       1.0     0.547841     0.872574     0.060843    Uiso  ? Al
   Al22       1.0     0.104649     0.769305     0.808337    Uiso  ? Al
   Al23       1.0     0.772929     0.767603     0.315414    Uiso  ? Al
   Al24       1.0     0.889950     0.878046     0.054756    Uiso  ? Al
   Al25       1.0     0.445704     0.766131     0.808967    Uiso  ? Al
   Al26       1.0     0.557827     0.867914     0.563201    Uiso  ? Al
   Hf1        1.0     0.561293     0.190424     0.071907    Uiso  ? Hf
   Hf2        1.0     0.787624     0.090931     0.335933    Uiso  ? Hf
   Hf3        1.0     0.218572     0.545266     0.092344    Uiso  ? Hf
   Hf4        1.0     0.881387     0.541621     0.084664    Uiso  ? Hf
   Hf5        1.0     0.440977     0.431993     0.808725    Uiso  ? Hf
   Mg1        1.0     0.888743     0.541818     0.558730    Uiso  ? Mg
   Mg2        1.0     0.213658     0.543259     0.551302    Uiso  ? Mg
   Mg3        1.0     0.775202     0.427498     0.322467    Uiso  ? Mg
   Mg4        1.0     0.114018     0.769398     0.323374    Uiso  ? Mg
   Mg5        1.0     0.224271     0.875204     0.563641    Uiso  ? Mg
   N1         1.0     0.222498     0.204507     0.372403    Uiso  ? N
   N2         1.0     0.109075     0.095919     0.115400    Uiso  ? N
   N3         1.0     0.887666     0.203185     0.864337    Uiso  ? N
   N4         1.0     0.774751     0.097175     0.604405    Uiso  ? N
   N5         1.0     0.539776     0.209050     0.361035    Uiso  ? N
   N6         1.0     0.431015     0.083747     0.126472    Uiso  ? N
   N7         1.0     0.225827     0.203404     0.869228    Uiso  ? N
   N8         1.0     0.107488     0.107711     0.627423    Uiso  ? N
   N9         1.0     0.914052     0.197957     0.380283    Uiso  ? N
   N10        1.0     0.796249     0.087956     0.122439    Uiso  ? N
   N11        1.0     0.563858     0.188790     0.862602    Uiso  ? N
   N12        1.0     0.443395     0.092423     0.615185    Uiso  ? N
   N13        1.0     0.227710     0.526169     0.330425    Uiso  ? N
   N14        1.0     0.120250     0.401377     0.120456    Uiso  ? N
   N15        1.0     0.887133     0.541136     0.867710    Uiso  ? N
   N16        1.0     0.770862     0.422378     0.618422    Uiso  ? N
   N17        1.0     0.540655     0.547463     0.371122    Uiso  ? N
   N18        1.0     0.462438     0.427418     0.115657    Uiso  ? N
   N19        1.0     0.206241     0.546353     0.874188    Uiso  ? N
   N20        1.0     0.119041     0.415223     0.620543    Uiso  ? N
   N21        1.0     0.894372     0.548105     0.333234    Uiso  ? N
   N22        1.0     0.771463     0.413557     0.110245    Uiso  ? N
   N23        1.0     0.561909     0.546722     0.870783    Uiso  ? N
   N24        1.0     0.455699     0.420550     0.606497    Uiso  ? N
   N25        1.0     0.234149     0.882299     0.357869    Uiso  ? N
   N26        1.0     0.098902     0.784399     0.110026    Uiso  ? N
   N27        1.0     0.883945     0.877776     0.866022    Uiso  ? N
   N28        1.0     0.767090     0.776391     0.623984    Uiso  ? N
   N29        1.0     0.557015     0.869738     0.370255    Uiso  ? N
   N30        1.0     0.448419     0.757454     0.117274    Uiso  ? N
   N31        1.0     0.225403     0.871831     0.869426    Uiso  ? N
   N32        1.0     0.098140     0.768584     0.624142    Uiso  ? N
   N33        1.0     0.884642     0.860552     0.381521    Uiso  ? N
   N34        1.0     0.762388     0.792177     0.119078    Uiso  ? N
   N35        1.0     0.553435     0.874884     0.871451    Uiso  ? N
   N36        1.0     0.461981     0.752298     0.624033    Uiso  ? N
