
#======================================================================
# CRYSTAL DATA
#----------------------------------------------------------------------
data_VESTA_phase_1

_chemical_name_common                  'Al   Hf   Mg   N                      '
_cell_length_a                         9.888382
_cell_length_b                         9.853072
_cell_length_c                         9.865593
_cell_angle_alpha                      90.089241
_cell_angle_beta                       89.885696
_cell_angle_gamma                      59.904778
_cell_volume                           831.630566
_space_group_name_H-M_alt              'P 1'
_space_group_IT_number                 1

loop_
_space_group_symop_operation_xyz
   'x, y, z'

loop_
   _atom_site_label
   _atom_site_occupancy
   _atom_site_fract_x
   _atom_site_fract_y
   _atom_site_fract_z
   _atom_site_adp_type
   _atom_site_U_iso_or_equiv
   _atom_site_type_symbol
   Al1        1.0     0.122692     0.095325     0.393627    Uiso  ? Al
   Al2        1.0     0.219856     0.194968     0.140992    Uiso  ? Al
   Al3        1.0     0.786768     0.086168     0.817955    Uiso  ? Al
   Al4        1.0     0.899131     0.209924     0.634002    Uiso  ? Al
   Al5        1.0     0.438150     0.091324     0.391029    Uiso  ? Al
   Al6        1.0     0.114388     0.086904     0.886187    Uiso  ? Al
   Al7        1.0     0.219487     0.205226     0.637738    Uiso  ? Al
   Al8        1.0     0.898779     0.202480     0.133582    Uiso  ? Al
   Al9        1.0     0.435993     0.083529     0.882952    Uiso  ? Al
   Al10       1.0     0.551695     0.196251     0.633738    Uiso  ? Al
   Al11       1.0     0.113106     0.420846     0.395060    Uiso  ? Al
   Al12       1.0     0.778130     0.425006     0.874551    Uiso  ? Al
   Al13       1.0     0.442879     0.430869     0.400605    Uiso  ? Al
   Al14       1.0     0.554503     0.542518     0.142838    Uiso  ? Al
   Al15       1.0     0.109087     0.421581     0.880873    Uiso  ? Al
   Al16       1.0     0.567390     0.543250     0.633231    Uiso  ? Al
   Al17       1.0     0.222858     0.879967     0.143977    Uiso  ? Al
   Al18       1.0     0.768435     0.768594     0.877124    Uiso  ? Al
   Al19       1.0     0.887674     0.866653     0.583715    Uiso  ? Al
   Al20       1.0     0.448043     0.761042     0.387969    Uiso  ? Al
   Al21       1.0     0.550590     0.871535     0.141239    Uiso  ? Al
   Al22       1.0     0.103305     0.771166     0.817283    Uiso  ? Al
   Al23       1.0     0.773180     0.758298     0.397546    Uiso  ? Al
   Al24       1.0     0.892924     0.880570     0.069559    Uiso  ? Al
   Al25       1.0     0.440318     0.767421     0.891876    Uiso  ? Al
   Al26       1.0     0.554915     0.868566     0.638013    Uiso  ? Al
   Hf1        1.0     0.553922     0.199813     0.117766    Uiso  ? Hf
   Hf2        1.0     0.782690     0.097061     0.366848    Uiso  ? Hf
   Hf3        1.0     0.218982     0.546120     0.131493    Uiso  ? Hf
   Hf4        1.0     0.880577     0.543916     0.118718    Uiso  ? Hf
   Hf5        1.0     0.440677     0.435277     0.850324    Uiso  ? Hf
   Mg1        1.0     0.890940     0.537627     0.642211    Uiso  ? Mg
   Mg2        1.0     0.212362     0.538626     0.615197    Uiso  ? Mg
   Mg3        1.0     0.780142     0.432387     0.394539    Uiso  ? Mg
   Mg4        1.0     0.119719     0.764630     0.377367    Uiso  ? Mg
   Mg5        1.0     0.232270     0.874129     0.629118    Uiso  ? Mg
   N1         1.0     0.226683     0.204089     0.331512    Uiso  ? N
   N2         1.0     0.111427     0.094658     0.080022    Uiso  ? N
   N3         1.0     0.892314     0.200598     0.837227    Uiso  ? N
   N4         1.0     0.775684     0.095875     0.610332    Uiso  ? N
   N5         1.0     0.535403     0.214430     0.334973    Uiso  ? N
   N6         1.0     0.431135     0.082405     0.077669    Uiso  ? N
   N7         1.0     0.221678     0.202452     0.832569    Uiso  ? N
   N8         1.0     0.109083     0.106116     0.583824    Uiso  ? N
   N9         1.0     0.914525     0.201388     0.332395    Uiso  ? N
   N10        1.0     0.790935     0.088480     0.130593    Uiso  ? N
   N11        1.0     0.561519     0.184444     0.843607    Uiso  ? N
   N12        1.0     0.443309     0.090892     0.585131    Uiso  ? N
   N13        1.0     0.233217     0.520998     0.346311    Uiso  ? N
   N14        1.0     0.120817     0.406554     0.078317    Uiso  ? N
   N15        1.0     0.886752     0.541041     0.864019    Uiso  ? N
   N16        1.0     0.776361     0.419489     0.602256    Uiso  ? N
   N17        1.0     0.540508     0.541644     0.333511    Uiso  ? N
   N18        1.0     0.453643     0.436302     0.069855    Uiso  ? N
   N19        1.0     0.201054     0.549869     0.856490    Uiso  ? N
   N20        1.0     0.115956     0.409813     0.582825    Uiso  ? N
   N21        1.0     0.897217     0.549099     0.330545    Uiso  ? N
   N22        1.0     0.766319     0.417563     0.078391    Uiso  ? N
   N23        1.0     0.561139     0.554788     0.830130    Uiso  ? N
   N24        1.0     0.459665     0.418301     0.605354    Uiso  ? N
   N25        1.0     0.237937     0.884458     0.336453    Uiso  ? N
   N26        1.0     0.100623     0.781842     0.121515    Uiso  ? N
   N27        1.0     0.887645     0.877551     0.871555    Uiso  ? N
   N28        1.0     0.766141     0.771592     0.595063    Uiso  ? N
   N29        1.0     0.558840     0.872500     0.333309    Uiso  ? N
   N30        1.0     0.448089     0.758626     0.086865    Uiso  ? N
   N31        1.0     0.226221     0.869492     0.845621    Uiso  ? N
   N32        1.0     0.096040     0.772383     0.622175    Uiso  ? N
   N33        1.0     0.884200     0.865048     0.386475    Uiso  ? N
   N34        1.0     0.761279     0.786777     0.077278    Uiso  ? N
   N35        1.0     0.550088     0.872047     0.832157    Uiso  ? N
   N36        1.0     0.465028     0.751346     0.576921    Uiso  ? N
