
#======================================================================
# CRYSTAL DATA
#----------------------------------------------------------------------
data_VESTA_phase_1

_chemical_name_common                  'Al   Hf   Mg   N                      '
_cell_length_a                         9.838114
_cell_length_b                         9.807125
_cell_length_c                         10.023699
_cell_angle_alpha                      90.206650
_cell_angle_beta                       90.484924
_cell_angle_gamma                      60.117470
_cell_volume                           838.512215
_space_group_name_H-M_alt              'P 1'
_space_group_IT_number                 1

loop_
_space_group_symop_operation_xyz
   'x, y, z'

loop_
   _atom_site_label
   _atom_site_occupancy
   _atom_site_fract_x
   _atom_site_fract_y
   _atom_site_fract_z
   _atom_site_adp_type
   _atom_site_U_iso_or_equiv
   _atom_site_type_symbol
   Al1        1.0     0.121229     0.091491     0.320862    Uiso  ? Al
   Al2        1.0     0.219718     0.195786     0.067400    Uiso  ? Al
   Al3        1.0     0.787461     0.087752     0.808123    Uiso  ? Al
   Al4        1.0     0.901951     0.204476     0.577877    Uiso  ? Al
   Al5        1.0     0.431945     0.096611     0.332832    Uiso  ? Al
   Al6        1.0     0.113998     0.092230     0.821676    Uiso  ? Al
   Al7        1.0     0.216628     0.207186     0.574489    Uiso  ? Al
   Al8        1.0     0.892819     0.203952     0.065606    Uiso  ? Al
   Al9        1.0     0.437697     0.086732     0.812348    Uiso  ? Al
   Al10       1.0     0.555417     0.197270     0.576733    Uiso  ? Al
   Al11       1.0     0.114748     0.418208     0.326963    Uiso  ? Al
   Al12       1.0     0.787422     0.424399     0.813572    Uiso  ? Al
   Al13       1.0     0.440996     0.433792     0.393254    Uiso  ? Al
   Al14       1.0     0.552199     0.539638     0.142717    Uiso  ? Al
   Al15       1.0     0.105623     0.426683     0.815827    Uiso  ? Al
   Al16       1.0     0.564491     0.544881     0.626108    Uiso  ? Al
   Al17       1.0     0.216402     0.879810     0.079177    Uiso  ? Al
   Al18       1.0     0.775031     0.765025     0.819009    Uiso  ? Al
   Al19       1.0     0.890468     0.867091     0.579275    Uiso  ? Al
   Al20       1.0     0.446389     0.759785     0.385806    Uiso  ? Al
   Al21       1.0     0.545885     0.871107     0.139190    Uiso  ? Al
   Al22       1.0     0.102903     0.771260     0.820723    Uiso  ? Al
   Al23       1.0     0.780788     0.763987     0.327565    Uiso  ? Al
   Al24       1.0     0.891160     0.875876     0.064969    Uiso  ? Al
   Al25       1.0     0.449042     0.764713     0.889434    Uiso  ? Al
   Al26       1.0     0.558991     0.868443     0.610561    Uiso  ? Al
   Hf1        1.0     0.562921     0.187416     0.069411    Uiso  ? Hf
   Hf2        1.0     0.784992     0.092319     0.342272    Uiso  ? Hf
   Hf3        1.0     0.223284     0.541593     0.104539    Uiso  ? Hf
   Hf4        1.0     0.878559     0.541487     0.091921    Uiso  ? Hf
   Hf5        1.0     0.436815     0.434344     0.830015    Uiso  ? Hf
   Mg1        1.0     0.891789     0.541311     0.568037    Uiso  ? Mg
   Mg2        1.0     0.203178     0.548937     0.571625    Uiso  ? Mg
   Mg3        1.0     0.779517     0.425594     0.344659    Uiso  ? Mg
   Mg4        1.0     0.115616     0.767588     0.333290    Uiso  ? Mg
   Mg5        1.0     0.219665     0.878339     0.576145    Uiso  ? Mg
   N1         1.0     0.220455     0.205714     0.382168    Uiso  ? N
   N2         1.0     0.106682     0.099010     0.124990    Uiso  ? N
   N3         1.0     0.887671     0.203705     0.873739    Uiso  ? N
   N4         1.0     0.777647     0.096143     0.615636    Uiso  ? N
   N5         1.0     0.541189     0.208919     0.378339    Uiso  ? N
   N6         1.0     0.426911     0.093405     0.136372    Uiso  ? N
   N7         1.0     0.225306     0.204280     0.879194    Uiso  ? N
   N8         1.0     0.109275     0.106902     0.637974    Uiso  ? N
   N9         1.0     0.915360     0.193456     0.389242    Uiso  ? N
   N10        1.0     0.795063     0.087979     0.129195    Uiso  ? N
   N11        1.0     0.565309     0.184214     0.860169    Uiso  ? N
   N12        1.0     0.441306     0.094029     0.620796    Uiso  ? N
   N13        1.0     0.232068     0.522662     0.342721    Uiso  ? N
   N14        1.0     0.117651     0.404349     0.129902    Uiso  ? N
   N15        1.0     0.887232     0.540301     0.876058    Uiso  ? N
   N16        1.0     0.781175     0.417082     0.622201    Uiso  ? N
   N17        1.0     0.536058     0.543488     0.331383    Uiso  ? N
   N18        1.0     0.461890     0.426890     0.063681    Uiso  ? N
   N19        1.0     0.198764     0.551333     0.881403    Uiso  ? N
   N20        1.0     0.119278     0.413148     0.632286    Uiso  ? N
   N21        1.0     0.896892     0.547038     0.347798    Uiso  ? N
   N22        1.0     0.769810     0.414172     0.120799    Uiso  ? N
   N23        1.0     0.559689     0.553427     0.824261    Uiso  ? N
   N24        1.0     0.454555     0.424201     0.601643    Uiso  ? N
   N25        1.0     0.233305     0.882526     0.361719    Uiso  ? N
   N26        1.0     0.099288     0.780710     0.121268    Uiso  ? N
   N27        1.0     0.883801     0.878084     0.876158    Uiso  ? N
   N28        1.0     0.773997     0.773760     0.630380    Uiso  ? N
   N29        1.0     0.557055     0.870537     0.341053    Uiso  ? N
   N30        1.0     0.449874     0.754386     0.084090    Uiso  ? N
   N31        1.0     0.219151     0.875307     0.881857    Uiso  ? N
   N32        1.0     0.096524     0.772580     0.635409    Uiso  ? N
   N33        1.0     0.886340     0.862874     0.390492    Uiso  ? N
   N34        1.0     0.767711     0.788345     0.128383    Uiso  ? N
   N35        1.0     0.553992     0.872983     0.847710    Uiso  ? N
   N36        1.0     0.465345     0.750806     0.574173    Uiso  ? N
