
#======================================================================
# CRYSTAL DATA
#----------------------------------------------------------------------
data_VESTA_phase_1

_chemical_name_common                  'Al   Hf   Mg   N                      '
_cell_length_a                         9.843027
_cell_length_b                         9.833206
_cell_length_c                         9.921136
_cell_angle_alpha                      90.178680
_cell_angle_beta                       90.292938
_cell_angle_gamma                      60.105732
_cell_volume                           832.476169
_space_group_name_H-M_alt              'P 1'
_space_group_IT_number                 1

loop_
_space_group_symop_operation_xyz
   'x, y, z'

loop_
   _atom_site_label
   _atom_site_occupancy
   _atom_site_fract_x
   _atom_site_fract_y
   _atom_site_fract_z
   _atom_site_adp_type
   _atom_site_U_iso_or_equiv
   _atom_site_type_symbol
   Al1        1.0     0.122652     0.089943     0.312883    Uiso  ? Al
   Al2        1.0     0.221626     0.193744     0.060910    Uiso  ? Al
   Al3        1.0     0.786645     0.087927     0.802026    Uiso  ? Al
   Al4        1.0     0.902654     0.205173     0.569824    Uiso  ? Al
   Al5        1.0     0.435083     0.088248     0.320776    Uiso  ? Al
   Al6        1.0     0.113045     0.094382     0.814556    Uiso  ? Al
   Al7        1.0     0.218199     0.206338     0.567067    Uiso  ? Al
   Al8        1.0     0.893939     0.202607     0.059711    Uiso  ? Al
   Al9        1.0     0.441006     0.086195     0.807330    Uiso  ? Al
   Al10       1.0     0.553635     0.197120     0.567909    Uiso  ? Al
   Al11       1.0     0.115928     0.417286     0.320496    Uiso  ? Al
   Al12       1.0     0.787528     0.424589     0.805024    Uiso  ? Al
   Al13       1.0     0.439803     0.432901     0.385311    Uiso  ? Al
   Al14       1.0     0.552739     0.541333     0.137757    Uiso  ? Al
   Al15       1.0     0.106023     0.426220     0.808271    Uiso  ? Al
   Al16       1.0     0.564402     0.541500     0.610537    Uiso  ? Al
   Al17       1.0     0.225059     0.874851     0.064381    Uiso  ? Al
   Al18       1.0     0.774236     0.764895     0.813075    Uiso  ? Al
   Al19       1.0     0.888130     0.866092     0.571819    Uiso  ? Al
   Al20       1.0     0.441132     0.766768     0.342109    Uiso  ? Al
   Al21       1.0     0.546879     0.870274     0.061970    Uiso  ? Al
   Al22       1.0     0.102267     0.770132     0.812168    Uiso  ? Al
   Al23       1.0     0.773452     0.767766     0.316442    Uiso  ? Al
   Al24       1.0     0.890770     0.876406     0.059105    Uiso  ? Al
   Al25       1.0     0.443370     0.769568     0.808755    Uiso  ? Al
   Al26       1.0     0.560358     0.872309     0.565918    Uiso  ? Al
   Hf1        1.0     0.561427     0.191253     0.072407    Uiso  ? Hf
   Hf2        1.0     0.786641     0.091158     0.338308    Uiso  ? Hf
   Hf3        1.0     0.220995     0.544066     0.097306    Uiso  ? Hf
   Hf4        1.0     0.879163     0.539487     0.088949    Uiso  ? Hf
   Hf5        1.0     0.439870     0.431765     0.825854    Uiso  ? Hf
   Mg1        1.0     0.891368     0.544536     0.560651    Uiso  ? Mg
   Mg2        1.0     0.203537     0.548590     0.565131    Uiso  ? Mg
   Mg3        1.0     0.781227     0.424779     0.341860    Uiso  ? Mg
   Mg4        1.0     0.114944     0.768730     0.327834    Uiso  ? Mg
   Mg5        1.0     0.217462     0.880153     0.569960    Uiso  ? Mg
   N1         1.0     0.223314     0.203483     0.372497    Uiso  ? N
   N2         1.0     0.109485     0.094879     0.115061    Uiso  ? N
   N3         1.0     0.887647     0.203729     0.865526    Uiso  ? N
   N4         1.0     0.776166     0.096953     0.605831    Uiso  ? N
   N5         1.0     0.540043     0.208528     0.363812    Uiso  ? N
   N6         1.0     0.432097     0.083331     0.125801    Uiso  ? N
   N7         1.0     0.226517     0.203859     0.871065    Uiso  ? N
   N8         1.0     0.108098     0.109247     0.629989    Uiso  ? N
   N9         1.0     0.917230     0.192783     0.380002    Uiso  ? N
   N10        1.0     0.795856     0.087479     0.123158    Uiso  ? N
   N11        1.0     0.567023     0.182828     0.859536    Uiso  ? N
   N12        1.0     0.442880     0.093114     0.616820    Uiso  ? N
   N13        1.0     0.231137     0.524089     0.335075    Uiso  ? N
   N14        1.0     0.119717     0.402346     0.121945    Uiso  ? N
   N15        1.0     0.887180     0.540058     0.868801    Uiso  ? N
   N16        1.0     0.781229     0.418697     0.609889    Uiso  ? N
   N17        1.0     0.538608     0.543504     0.335956    Uiso  ? N
   N18        1.0     0.459816     0.430381     0.061561    Uiso  ? N
   N19        1.0     0.199731     0.550749     0.872078    Uiso  ? N
   N20        1.0     0.118500     0.413181     0.622305    Uiso  ? N
   N21        1.0     0.895902     0.549228     0.336604    Uiso  ? N
   N22        1.0     0.769808     0.412651     0.115948    Uiso  ? N
   N23        1.0     0.563703     0.546456     0.818449    Uiso  ? N
   N24        1.0     0.454069     0.421913     0.593257    Uiso  ? N
   N25        1.0     0.231064     0.884015     0.363175    Uiso  ? N
   N26        1.0     0.100471     0.782826     0.111785    Uiso  ? N
   N27        1.0     0.883711     0.877916     0.868451    Uiso  ? N
   N28        1.0     0.768357     0.776809     0.625722    Uiso  ? N
   N29        1.0     0.559077     0.872379     0.372371    Uiso  ? N
   N30        1.0     0.445885     0.759157     0.111392    Uiso  ? N
   N31        1.0     0.223946     0.872820     0.866989    Uiso  ? N
   N32        1.0     0.094215     0.772476     0.625432    Uiso  ? N
   N33        1.0     0.884430     0.861320     0.380805    Uiso  ? N
   N34        1.0     0.762422     0.789594     0.119098    Uiso  ? N
   N35        1.0     0.553399     0.874523     0.869364    Uiso  ? N
   N36        1.0     0.457855     0.760775     0.610795    Uiso  ? N
