
#======================================================================
# CRYSTAL DATA
#----------------------------------------------------------------------
data_VESTA_phase_1

_chemical_name_common                  'Al   Hf   Mg   N                      '
_cell_length_a                         9.805195
_cell_length_b                         9.789608
_cell_length_c                         10.025811
_cell_angle_alpha                      90.073196
_cell_angle_beta                       90.258034
_cell_angle_gamma                      59.925220
_cell_volume                           832.797198
_space_group_name_H-M_alt              'P 1'
_space_group_IT_number                 1

loop_
_space_group_symop_operation_xyz
   'x, y, z'

loop_
   _atom_site_label
   _atom_site_occupancy
   _atom_site_fract_x
   _atom_site_fract_y
   _atom_site_fract_z
   _atom_site_adp_type
   _atom_site_U_iso_or_equiv
   _atom_site_type_symbol
   Al1        1.0     0.121027     0.091549     0.312828    Uiso  ? Al
   Al2        1.0     0.221738     0.193346     0.058593    Uiso  ? Al
   Al3        1.0     0.787106     0.088335     0.799001    Uiso  ? Al
   Al4        1.0     0.898437     0.208925     0.569472    Uiso  ? Al
   Al5        1.0     0.434599     0.087433     0.320735    Uiso  ? Al
   Al6        1.0     0.113250     0.093332     0.811379    Uiso  ? Al
   Al7        1.0     0.217017     0.206312     0.565888    Uiso  ? Al
   Al8        1.0     0.895316     0.201863     0.056260    Uiso  ? Al
   Al9        1.0     0.440512     0.085566     0.804615    Uiso  ? Al
   Al10       1.0     0.552203     0.197726     0.566419    Uiso  ? Al
   Al11       1.0     0.114752     0.417361     0.318233    Uiso  ? Al
   Al12       1.0     0.782258     0.428560     0.806022    Uiso  ? Al
   Al13       1.0     0.440430     0.431662     0.366742    Uiso  ? Al
   Al14       1.0     0.561851     0.543342     0.056779    Uiso  ? Al
   Al15       1.0     0.106118     0.426344     0.805866    Uiso  ? Al
   Al16       1.0     0.561432     0.544584     0.563307    Uiso  ? Al
   Al17       1.0     0.222847     0.876983     0.064258    Uiso  ? Al
   Al18       1.0     0.773881     0.765505     0.810231    Uiso  ? Al
   Al19       1.0     0.888461     0.865882     0.570935    Uiso  ? Al
   Al20       1.0     0.442975     0.761940     0.313697    Uiso  ? Al
   Al21       1.0     0.548207     0.872352     0.062367    Uiso  ? Al
   Al22       1.0     0.104290     0.769893     0.810099    Uiso  ? Al
   Al23       1.0     0.773078     0.767677     0.316058    Uiso  ? Al
   Al24       1.0     0.891486     0.877323     0.056484    Uiso  ? Al
   Al25       1.0     0.445756     0.767576     0.809301    Uiso  ? Al
   Al26       1.0     0.557651     0.868223     0.563133    Uiso  ? Al
   Hf1        1.0     0.562367     0.188542     0.067176    Uiso  ? Hf
   Hf2        1.0     0.786108     0.091965     0.335919    Uiso  ? Hf
   Hf3        1.0     0.222693     0.543048     0.094534    Uiso  ? Hf
   Hf4        1.0     0.882573     0.541657     0.085880    Uiso  ? Hf
   Hf5        1.0     0.440993     0.432687     0.812916    Uiso  ? Hf
   Mg1        1.0     0.887750     0.542055     0.559026    Uiso  ? Mg
   Mg2        1.0     0.204702     0.547548     0.559608    Uiso  ? Mg
   Mg3        1.0     0.774240     0.427573     0.322266    Uiso  ? Mg
   Mg4        1.0     0.114147     0.769570     0.324473    Uiso  ? Mg
   Mg5        1.0     0.223920     0.875907     0.564159    Uiso  ? Mg
   N1         1.0     0.222315     0.204159     0.372993    Uiso  ? N
   N2         1.0     0.109145     0.096059     0.115867    Uiso  ? N
   N3         1.0     0.887688     0.203531     0.864905    Uiso  ? N
   N4         1.0     0.775742     0.096903     0.605649    Uiso  ? N
   N5         1.0     0.539666     0.207413     0.366444    Uiso  ? N
   N6         1.0     0.431295     0.083764     0.127196    Uiso  ? N
   N7         1.0     0.225943     0.203383     0.870187    Uiso  ? N
   N8         1.0     0.107262     0.107589     0.628056    Uiso  ? N
   N9         1.0     0.913414     0.197831     0.380350    Uiso  ? N
   N10        1.0     0.796374     0.088396     0.122520    Uiso  ? N
   N11        1.0     0.565122     0.185880     0.856754    Uiso  ? N
   N12        1.0     0.442273     0.091051     0.615912    Uiso  ? N
   N13        1.0     0.228626     0.525528     0.333327    Uiso  ? N
   N14        1.0     0.121672     0.401316     0.121609    Uiso  ? N
   N15        1.0     0.887417     0.541493     0.868656    Uiso  ? N
   N16        1.0     0.772031     0.421891     0.618967    Uiso  ? N
   N17        1.0     0.540870     0.547812     0.373789    Uiso  ? N
   N18        1.0     0.462718     0.425255     0.081416    Uiso  ? N
   N19        1.0     0.204265     0.547877     0.872173    Uiso  ? N
   N20        1.0     0.116887     0.414145     0.621808    Uiso  ? N
   N21        1.0     0.894466     0.548002     0.334112    Uiso  ? N
   N22        1.0     0.771432     0.414688     0.110305    Uiso  ? N
   N23        1.0     0.563713     0.549079     0.865928    Uiso  ? N
   N24        1.0     0.453058     0.421592     0.600409    Uiso  ? N
   N25        1.0     0.234352     0.882233     0.358026    Uiso  ? N
   N26        1.0     0.100850     0.783006     0.110919    Uiso  ? N
   N27        1.0     0.884275     0.877763     0.867401    Uiso  ? N
   N28        1.0     0.766982     0.776931     0.624425    Uiso  ? N
   N29        1.0     0.557119     0.869337     0.370124    Uiso  ? N
   N30        1.0     0.449422     0.756289     0.117453    Uiso  ? N
   N31        1.0     0.225706     0.872089     0.870068    Uiso  ? N
   N32        1.0     0.096245     0.771963     0.625299    Uiso  ? N
   N33        1.0     0.884214     0.861468     0.381555    Uiso  ? N
   N34        1.0     0.763198     0.791952     0.119767    Uiso  ? N
   N35        1.0     0.553814     0.874976     0.872581    Uiso  ? N
   N36        1.0     0.461157     0.754682     0.624135    Uiso  ? N
