
#======================================================================
# CRYSTAL DATA
#----------------------------------------------------------------------
data_VESTA_phase_1

_chemical_name_common                  'Al   Hf   Mg   N                      '
_cell_length_a                         9.831220
_cell_length_b                         9.807454
_cell_length_c                         10.053061
_cell_angle_alpha                      90.098640
_cell_angle_beta                       90.330887
_cell_angle_gamma                      60.117603
_cell_volume                           840.424044
_space_group_name_H-M_alt              'P 1'
_space_group_IT_number                 1

loop_
_space_group_symop_operation_xyz
   'x, y, z'

loop_
   _atom_site_label
   _atom_site_occupancy
   _atom_site_fract_x
   _atom_site_fract_y
   _atom_site_fract_z
   _atom_site_adp_type
   _atom_site_U_iso_or_equiv
   _atom_site_type_symbol
   Al1        1.0     0.122707     0.090584     0.320430    Uiso  ? Al
   Al2        1.0     0.220227     0.195712     0.066185    Uiso  ? Al
   Al3        1.0     0.787145     0.087729     0.808674    Uiso  ? Al
   Al4        1.0     0.901691     0.203843     0.577262    Uiso  ? Al
   Al5        1.0     0.435173     0.093373     0.345244    Uiso  ? Al
   Al6        1.0     0.112480     0.092612     0.820914    Uiso  ? Al
   Al7        1.0     0.214845     0.208192     0.575338    Uiso  ? Al
   Al8        1.0     0.893081     0.203659     0.065701    Uiso  ? Al
   Al9        1.0     0.434662     0.091691     0.812530    Uiso  ? Al
   Al10       1.0     0.556663     0.197638     0.577936    Uiso  ? Al
   Al11       1.0     0.115771     0.417040     0.325862    Uiso  ? Al
   Al12       1.0     0.787107     0.424042     0.813242    Uiso  ? Al
   Al13       1.0     0.441232     0.434283     0.392942    Uiso  ? Al
   Al14       1.0     0.551185     0.542046     0.142068    Uiso  ? Al
   Al15       1.0     0.103772     0.427967     0.814946    Uiso  ? Al
   Al16       1.0     0.564528     0.544177     0.625987    Uiso  ? Al
   Al17       1.0     0.217124     0.880299     0.077495    Uiso  ? Al
   Al18       1.0     0.779745     0.762427     0.818963    Uiso  ? Al
   Al19       1.0     0.890409     0.866269     0.578987    Uiso  ? Al
   Al20       1.0     0.448507     0.760216     0.388557    Uiso  ? Al
   Al21       1.0     0.544673     0.872947     0.144464    Uiso  ? Al
   Al22       1.0     0.102681     0.771595     0.819954    Uiso  ? Al
   Al23       1.0     0.781452     0.763100     0.327230    Uiso  ? Al
   Al24       1.0     0.891395     0.875749     0.065373    Uiso  ? Al
   Al25       1.0     0.448585     0.764835     0.887907    Uiso  ? Al
   Al26       1.0     0.557820     0.865111     0.632386    Uiso  ? Al
   Hf1        1.0     0.562215     0.189915     0.070834    Uiso  ? Hf
   Hf2        1.0     0.786318     0.091090     0.341426    Uiso  ? Hf
   Hf3        1.0     0.222108     0.542428     0.103928    Uiso  ? Hf
   Hf4        1.0     0.878251     0.541074     0.092249    Uiso  ? Hf
   Hf5        1.0     0.435715     0.435415     0.830251    Uiso  ? Hf
   Mg1        1.0     0.890387     0.541557     0.566159    Uiso  ? Mg
   Mg2        1.0     0.202625     0.549057     0.571142    Uiso  ? Mg
   Mg3        1.0     0.779528     0.424544     0.342765    Uiso  ? Mg
   Mg4        1.0     0.117325     0.767272     0.332787    Uiso  ? Mg
   Mg5        1.0     0.219994     0.878069     0.575791    Uiso  ? Mg
   N1         1.0     0.220718     0.205315     0.383083    Uiso  ? N
   N2         1.0     0.107238     0.098827     0.124836    Uiso  ? N
   N3         1.0     0.886954     0.203730     0.874330    Uiso  ? N
   N4         1.0     0.778370     0.095357     0.616834    Uiso  ? N
   N5         1.0     0.542892     0.208863     0.379580    Uiso  ? N
   N6         1.0     0.428242     0.092983     0.130884    Uiso  ? N
   N7         1.0     0.222394     0.205792     0.877825    Uiso  ? N
   N8         1.0     0.108553     0.106515     0.637886    Uiso  ? N
   N9         1.0     0.916060     0.192608     0.388983    Uiso  ? N
   N10        1.0     0.795498     0.087429     0.129356    Uiso  ? N
   N11        1.0     0.564222     0.184990     0.861147    Uiso  ? N
   N12        1.0     0.440927     0.094756     0.618658    Uiso  ? N
   N13        1.0     0.232463     0.522146     0.342058    Uiso  ? N
   N14        1.0     0.117683     0.403821     0.129614    Uiso  ? N
   N15        1.0     0.886343     0.540076     0.876788    Uiso  ? N
   N16        1.0     0.781308     0.416107     0.622463    Uiso  ? N
   N17        1.0     0.535660     0.544880     0.330702    Uiso  ? N
   N18        1.0     0.460120     0.430284     0.062698    Uiso  ? N
   N19        1.0     0.197184     0.551972     0.881135    Uiso  ? N
   N20        1.0     0.117395     0.414322     0.632035    Uiso  ? N
   N21        1.0     0.897189     0.546007     0.346571    Uiso  ? N
   N22        1.0     0.769149     0.413760     0.120857    Uiso  ? N
   N23        1.0     0.559395     0.553484     0.823750    Uiso  ? N
   N24        1.0     0.454236     0.424556     0.601816    Uiso  ? N
   N25        1.0     0.235086     0.882061     0.362695    Uiso  ? N
   N26        1.0     0.100032     0.781441     0.121309    Uiso  ? N
   N27        1.0     0.883818     0.878225     0.877024    Uiso  ? N
   N28        1.0     0.775861     0.771887     0.631271    Uiso  ? N
   N29        1.0     0.557417     0.869399     0.336900    Uiso  ? N
   N30        1.0     0.451714     0.756406     0.080917    Uiso  ? N
   N31        1.0     0.218718     0.875570     0.881130    Uiso  ? N
   N32        1.0     0.096600     0.772559     0.635320    Uiso  ? N
   N33        1.0     0.887071     0.861813     0.390385    Uiso  ? N
   N34        1.0     0.767867     0.787754     0.127020    Uiso  ? N
   N35        1.0     0.551289     0.872191     0.831883    Uiso  ? N
   N36        1.0     0.466563     0.750414     0.575207    Uiso  ? N
