
#======================================================================
# CRYSTAL DATA
#----------------------------------------------------------------------
data_VESTA_phase_1

_chemical_name_common                  'Al   Hf   Mg   N                      '
_cell_length_a                         9.772719
_cell_length_b                         9.772462
_cell_length_c                         10.050998
_cell_angle_alpha                      90.017517
_cell_angle_beta                       90.116531
_cell_angle_gamma                      59.982632
_cell_volume                           831.155229
_space_group_name_H-M_alt              'P 1'
_space_group_IT_number                 1

loop_
_space_group_symop_operation_xyz
   'x, y, z'

loop_
   _atom_site_label
   _atom_site_occupancy
   _atom_site_fract_x
   _atom_site_fract_y
   _atom_site_fract_z
   _atom_site_adp_type
   _atom_site_U_iso_or_equiv
   _atom_site_type_symbol
   Al1        1.0     0.119414     0.092543     0.398003    Uiso  ? Al
   Al2        1.0     0.222110     0.193786     0.149475    Uiso  ? Al
   Al3        1.0     0.787984     0.087128     0.888477    Uiso  ? Al
   Al4        1.0     0.894394     0.208477     0.650633    Uiso  ? Al
   Al5        1.0     0.439009     0.089951     0.400605    Uiso  ? Al
   Al6        1.0     0.114840     0.090789     0.894454    Uiso  ? Al
   Al7        1.0     0.217443     0.205818     0.641796    Uiso  ? Al
   Al8        1.0     0.898781     0.199445     0.141255    Uiso  ? Al
   Al9        1.0     0.438296     0.083720     0.889216    Uiso  ? Al
   Al10       1.0     0.557401     0.193305     0.647862    Uiso  ? Al
   Al11       1.0     0.114650     0.421889     0.402959    Uiso  ? Al
   Al12       1.0     0.779000     0.425798     0.888180    Uiso  ? Al
   Al13       1.0     0.442199     0.432608     0.411859    Uiso  ? Al
   Al14       1.0     0.554711     0.542506     0.151229    Uiso  ? Al
   Al15       1.0     0.109417     0.421161     0.888513    Uiso  ? Al
   Al16       1.0     0.567204     0.543271     0.639842    Uiso  ? Al
   Al17       1.0     0.224251     0.879760     0.145676    Uiso  ? Al
   Al18       1.0     0.770873     0.769158     0.891065    Uiso  ? Al
   Al19       1.0     0.889175     0.868762     0.650804    Uiso  ? Al
   Al20       1.0     0.444387     0.761774     0.395143    Uiso  ? Al
   Al21       1.0     0.549960     0.871154     0.149124    Uiso  ? Al
   Al22       1.0     0.104331     0.773822     0.888683    Uiso  ? Al
   Al23       1.0     0.777482     0.762610     0.399522    Uiso  ? Al
   Al24       1.0     0.887631     0.875924     0.141934    Uiso  ? Al
   Al25       1.0     0.443880     0.767136     0.896612    Uiso  ? Al
   Al26       1.0     0.556892     0.868871     0.641577    Uiso  ? Al
   Hf1        1.0     0.555965     0.199237     0.133166    Uiso  ? Hf
   Hf2        1.0     0.786056     0.091944     0.400877    Uiso  ? Hf
   Hf3        1.0     0.222365     0.543768     0.138961    Uiso  ? Hf
   Hf4        1.0     0.883268     0.541289     0.128038    Uiso  ? Hf
   Hf5        1.0     0.443191     0.433077     0.856806    Uiso  ? Hf
   Mg1        1.0     0.888169     0.540286     0.644800    Uiso  ? Mg
   Mg2        1.0     0.204618     0.548732     0.636482    Uiso  ? Mg
   Mg3        1.0     0.781222     0.429185     0.399623    Uiso  ? Mg
   Mg4        1.0     0.114767     0.764018     0.399305    Uiso  ? Mg
   Mg5        1.0     0.223957     0.872856     0.642890    Uiso  ? Mg
   N1         1.0     0.226017     0.203497     0.337143    Uiso  ? N
   N2         1.0     0.112117     0.095884     0.084773    Uiso  ? N
   N3         1.0     0.891939     0.202960     0.843356    Uiso  ? N
   N4         1.0     0.776707     0.095352     0.608010    Uiso  ? N
   N5         1.0     0.543784     0.211666     0.343524    Uiso  ? N
   N6         1.0     0.433440     0.082784     0.082153    Uiso  ? N
   N7         1.0     0.221967     0.203192     0.835649    Uiso  ? N
   N8         1.0     0.103937     0.107206     0.585432    Uiso  ? N
   N9         1.0     0.908193     0.195760     0.327680    Uiso  ? N
   N10        1.0     0.792073     0.089480     0.084066    Uiso  ? N
   N11        1.0     0.562624     0.183661     0.848007    Uiso  ? N
   N12        1.0     0.443424     0.092023     0.590601    Uiso  ? N
   N13        1.0     0.234364     0.520568     0.344388    Uiso  ? N
   N14        1.0     0.124887     0.404820     0.082841    Uiso  ? N
   N15        1.0     0.886694     0.541683     0.870184    Uiso  ? N
   N16        1.0     0.776132     0.417439     0.601673    Uiso  ? N
   N17        1.0     0.539347     0.542633     0.337949    Uiso  ? N
   N18        1.0     0.455677     0.433328     0.074543    Uiso  ? N
   N19        1.0     0.201404     0.550296     0.861315    Uiso  ? N
   N20        1.0     0.116816     0.412098     0.586643    Uiso  ? N
   N21        1.0     0.898724     0.548370     0.334578    Uiso  ? N
   N22        1.0     0.766998     0.416518     0.085824    Uiso  ? N
   N23        1.0     0.564000     0.554209     0.834894    Uiso  ? N
   N24        1.0     0.457618     0.419289     0.613742    Uiso  ? N
   N25        1.0     0.233203     0.881763     0.333056    Uiso  ? N
   N26        1.0     0.101404     0.781500     0.087181    Uiso  ? N
   N27        1.0     0.885495     0.872724     0.843106    Uiso  ? N
   N28        1.0     0.768778     0.779177     0.587885    Uiso  ? N
   N29        1.0     0.557007     0.872849     0.337647    Uiso  ? N
   N30        1.0     0.449357     0.757364     0.089286    Uiso  ? N
   N31        1.0     0.225901     0.872116     0.853521    Uiso  ? N
   N32        1.0     0.092018     0.776211     0.597567    Uiso  ? N
   N33        1.0     0.878893     0.869113     0.326952    Uiso  ? N
   N34        1.0     0.762539     0.785558     0.082803    Uiso  ? N
   N35        1.0     0.553790     0.871308     0.835027    Uiso  ? N
   N36        1.0     0.461374     0.753547     0.581962    Uiso  ? N
