
#======================================================================
# CRYSTAL DATA
#----------------------------------------------------------------------
data_VESTA_phase_1

_chemical_name_common                  'Al   Hf   Mg   N '
_cell_length_a                         9.830719
_cell_length_b                         9.812853
_cell_length_c                         10.014477
_cell_angle_alpha                      90.116226
_cell_angle_beta                       90.320297
_cell_angle_gamma                      60.050858
_cell_volume                           837.056642
_space_group_name_H-M_alt              'P 1'
_space_group_IT_number                 1

loop_
_space_group_symop_operation_xyz
   'x, y, z'

loop_
   _atom_site_label
   _atom_site_occupancy
   _atom_site_fract_x
   _atom_site_fract_y
   _atom_site_fract_z
   _atom_site_adp_type
   _atom_site_U_iso_or_equiv
   _atom_site_type_symbol
   Al1        1.0     0.122087     0.091548     0.321365    Uiso  ? Al
   Al2        1.0     0.221261     0.194393     0.068042    Uiso  ? Al
   Al3        1.0     0.786727     0.087750     0.809169    Uiso  ? Al
   Al4        1.0     0.901929     0.204914     0.578237    Uiso  ? Al
   Al5        1.0     0.435476     0.090073     0.328617    Uiso  ? Al
   Al6        1.0     0.113318     0.092817     0.821722    Uiso  ? Al
   Al7        1.0     0.218443     0.205849     0.575120    Uiso  ? Al
   Al8        1.0     0.893185     0.203918     0.066230    Uiso  ? Al
   Al9        1.0     0.440737     0.083496     0.813553    Uiso  ? Al
   Al10       1.0     0.554430     0.196863     0.575980    Uiso  ? Al
   Al11       1.0     0.116035     0.417403     0.327862    Uiso  ? Al
   Al12       1.0     0.787777     0.424275     0.813915    Uiso  ? Al
   Al13       1.0     0.441200     0.433912     0.392877    Uiso  ? Al
   Al14       1.0     0.551662     0.542566     0.143347    Uiso  ? Al
   Al15       1.0     0.105374     0.426027     0.816217    Uiso  ? Al
   Al16       1.0     0.564071     0.545233     0.626065    Uiso  ? Al
   Al17       1.0     0.217294     0.879481     0.080130    Uiso  ? Al
   Al18       1.0     0.773169     0.765290     0.820431    Uiso  ? Al
   Al19       1.0     0.888575     0.866555     0.580247    Uiso  ? Al
   Al20       1.0     0.445630     0.760197     0.387037    Uiso  ? Al
   Al21       1.0     0.550816     0.874679     0.075070    Uiso  ? Al
   Al22       1.0     0.101440     0.770757     0.820585    Uiso  ? Al
   Al23       1.0     0.775247     0.767771     0.324609    Uiso  ? Al
   Al24       1.0     0.890621     0.876677     0.065925    Uiso  ? Al
   Al25       1.0     0.444168     0.761339     0.884086    Uiso  ? Al
   Al26       1.0     0.562770     0.871495     0.571041    Uiso  ? Al
   Hf1        1.0     0.562176     0.191396     0.074647    Uiso  ? Hf
   Hf2        1.0     0.786279     0.091440     0.344025    Uiso  ? Hf
   Hf3        1.0     0.222462     0.542922     0.104813    Uiso  ? Hf
   Hf4        1.0     0.880020     0.539955     0.095686    Uiso  ? Hf
   Hf5        1.0     0.437072     0.432172     0.830181    Uiso  ? Hf
   Mg1        1.0     0.890749     0.543291     0.568566    Uiso  ? Mg
   Mg2        1.0     0.203238     0.548578     0.571822    Uiso  ? Mg
   Mg3        1.0     0.779523     0.425768     0.345941    Uiso  ? Mg
   Mg4        1.0     0.115244     0.767668     0.334525    Uiso  ? Mg
   Mg5        1.0     0.218840     0.878426     0.577634    Uiso  ? Mg
   N1         1.0     0.223357     0.204033     0.381900    Uiso  ? N
   N2         1.0     0.107136     0.098783     0.125242    Uiso  ? N
   N3         1.0     0.887249     0.203741     0.874110    Uiso  ? N
   N4         1.0     0.776819     0.096420     0.615771    Uiso  ? N
   N5         1.0     0.540889     0.209068     0.375603    Uiso  ? N
   N6         1.0     0.431410     0.086636     0.135034    Uiso  ? N
   N7         1.0     0.226346     0.202787     0.879534    Uiso  ? N
   N8         1.0     0.109021     0.107283     0.638120    Uiso  ? N
   N9         1.0     0.915939     0.193719     0.389673    Uiso  ? N
   N10        1.0     0.795530     0.088238     0.130484    Uiso  ? N
   N11        1.0     0.565835     0.183250     0.864662    Uiso  ? N
   N12        1.0     0.443396     0.091397     0.624915    Uiso  ? N
   N13        1.0     0.231997     0.523135     0.343091    Uiso  ? N
   N14        1.0     0.120214     0.402483     0.130585    Uiso  ? N
   N15        1.0     0.886636     0.540325     0.877842    Uiso  ? N
   N16        1.0     0.781282     0.417649     0.622028    Uiso  ? N
   N17        1.0     0.536128     0.544893     0.332534    Uiso  ? N
   N18        1.0     0.460792     0.430129     0.064743    Uiso  ? N
   N19        1.0     0.198639     0.550692     0.881408    Uiso  ? N
   N20        1.0     0.118912     0.412778     0.632103    Uiso  ? N
   N21        1.0     0.896138     0.548678     0.345325    Uiso  ? N
   N22        1.0     0.769839     0.413960     0.121660    Uiso  ? N
   N23        1.0     0.559890     0.551408     0.823833    Uiso  ? N
   N24        1.0     0.454696     0.423150     0.601597    Uiso  ? N
   N25        1.0     0.233231     0.882585     0.362048    Uiso  ? N
   N26        1.0     0.098635     0.781708     0.121924    Uiso  ? N
   N27        1.0     0.882967     0.877862     0.877124    Uiso  ? N
   N28        1.0     0.768867     0.776389     0.634685    Uiso  ? N
   N29        1.0     0.561112     0.874733     0.375510    Uiso  ? N
   N30        1.0     0.448438     0.754003     0.082282    Uiso  ? N
   N31        1.0     0.217121     0.875531     0.880645    Uiso  ? N
   N32        1.0     0.095033     0.772244     0.635313    Uiso  ? N
   N33        1.0     0.885504     0.861729     0.390946    Uiso  ? N
   N34        1.0     0.764780     0.789625     0.129025    Uiso  ? N
   N35        1.0     0.555564     0.875633     0.880912    Uiso  ? N
   N36        1.0     0.462965     0.752290     0.579772    Uiso  ? N
