
#======================================================================
# CRYSTAL DATA
#----------------------------------------------------------------------
data_VESTA_phase_1

_chemical_name_common                  'Al   Hf   Mg   N                      '
_cell_length_a                         9.850092
_cell_length_b                         9.832991
_cell_length_c                         9.939931
_cell_angle_alpha                      90.142334
_cell_angle_beta                       90.277954
_cell_angle_gamma                      60.075306
_cell_volume                           834.379937
_space_group_name_H-M_alt              'P 1'
_space_group_IT_number                 1

loop_
_space_group_symop_operation_xyz
   'x, y, z'

loop_
   _atom_site_label
   _atom_site_occupancy
   _atom_site_fract_x
   _atom_site_fract_y
   _atom_site_fract_z
   _atom_site_adp_type
   _atom_site_U_iso_or_equiv
   _atom_site_type_symbol
   Al1        1.0     0.123095     0.089827     0.312990    Uiso  ? Al
   Al2        1.0     0.221451     0.193908     0.060467    Uiso  ? Al
   Al3        1.0     0.786403     0.088004     0.801663    Uiso  ? Al
   Al4        1.0     0.902360     0.205358     0.569402    Uiso  ? Al
   Al5        1.0     0.435282     0.087958     0.320576    Uiso  ? Al
   Al6        1.0     0.112489     0.094631     0.813824    Uiso  ? Al
   Al7        1.0     0.218288     0.206333     0.566667    Uiso  ? Al
   Al8        1.0     0.893086     0.203593     0.059285    Uiso  ? Al
   Al9        1.0     0.440891     0.085630     0.806339    Uiso  ? Al
   Al10       1.0     0.553708     0.197461     0.567005    Uiso  ? Al
   Al11       1.0     0.116009     0.417184     0.320350    Uiso  ? Al
   Al12       1.0     0.788318     0.424142     0.805042    Uiso  ? Al
   Al13       1.0     0.440447     0.433971     0.383929    Uiso  ? Al
   Al14       1.0     0.550806     0.544587     0.135867    Uiso  ? Al
   Al15       1.0     0.105787     0.426186     0.808012    Uiso  ? Al
   Al16       1.0     0.564436     0.543240     0.615878    Uiso  ? Al
   Al17       1.0     0.219686     0.877678     0.066677    Uiso  ? Al
   Al18       1.0     0.774518     0.764974     0.812584    Uiso  ? Al
   Al19       1.0     0.888359     0.866092     0.571339    Uiso  ? Al
   Al20       1.0     0.444387     0.761490     0.382987    Uiso  ? Al
   Al21       1.0     0.549728     0.872979     0.063411    Uiso  ? Al
   Al22       1.0     0.101229     0.770359     0.811683    Uiso  ? Al
   Al23       1.0     0.773743     0.767905     0.316573    Uiso  ? Al
   Al24       1.0     0.890492     0.876662     0.058727    Uiso  ? Al
   Al25       1.0     0.444515     0.762626     0.862097    Uiso  ? Al
   Al26       1.0     0.562567     0.872382     0.566511    Uiso  ? Al
   Hf1        1.0     0.561307     0.192053     0.071746    Uiso  ? Hf
   Hf2        1.0     0.786756     0.091115     0.337789    Uiso  ? Hf
   Hf3        1.0     0.221358     0.543733     0.097352    Uiso  ? Hf
   Hf4        1.0     0.879665     0.539285     0.088978    Uiso  ? Hf
   Hf5        1.0     0.438806     0.431166     0.824519    Uiso  ? Hf
   Mg1        1.0     0.891183     0.543998     0.560289    Uiso  ? Mg
   Mg2        1.0     0.203885     0.548260     0.564359    Uiso  ? Mg
   Mg3        1.0     0.779475     0.425761     0.340440    Uiso  ? Mg
   Mg4        1.0     0.115685     0.768491     0.327725    Uiso  ? Mg
   Mg5        1.0     0.216884     0.880073     0.573141    Uiso  ? Mg
   N1         1.0     0.223467     0.203510     0.372542    Uiso  ? N
   N2         1.0     0.108315     0.096511     0.115400    Uiso  ? N
   N3         1.0     0.887119     0.204058     0.865444    Uiso  ? N
   N4         1.0     0.776192     0.096797     0.605799    Uiso  ? N
   N5         1.0     0.540206     0.209211     0.363590    Uiso  ? N
   N6         1.0     0.431714     0.084114     0.125822    Uiso  ? N
   N7         1.0     0.226470     0.203432     0.870858    Uiso  ? N
   N8         1.0     0.108017     0.109402     0.629489    Uiso  ? N
   N9         1.0     0.916893     0.193210     0.379817    Uiso  ? N
   N10        1.0     0.795631     0.087817     0.122776    Uiso  ? N
   N11        1.0     0.566599     0.183043     0.859174    Uiso  ? N
   N12        1.0     0.443055     0.093010     0.616408    Uiso  ? N
   N13        1.0     0.231372     0.523709     0.334829    Uiso  ? N
   N14        1.0     0.120133     0.402202     0.121884    Uiso  ? N
   N15        1.0     0.887048     0.540136     0.868929    Uiso  ? N
   N16        1.0     0.781316     0.418193     0.610842    Uiso  ? N
   N17        1.0     0.535930     0.546478     0.328468    Uiso  ? N
   N18        1.0     0.459734     0.430781     0.059531    Uiso  ? N
   N19        1.0     0.199566     0.550593     0.871961    Uiso  ? N
   N20        1.0     0.118662     0.413117     0.622418    Uiso  ? N
   N21        1.0     0.895922     0.548897     0.336358    Uiso  ? N
   N22        1.0     0.769017     0.413809     0.114589    Uiso  ? N
   N23        1.0     0.562222     0.548308     0.815336    Uiso  ? N
   N24        1.0     0.454727     0.422279     0.592901    Uiso  ? N
   N25        1.0     0.233176     0.882846     0.358636    Uiso  ? N
   N26        1.0     0.099444     0.782403     0.112425    Uiso  ? N
   N27        1.0     0.883421     0.877974     0.868473    Uiso  ? N
   N28        1.0     0.769545     0.776149     0.625831    Uiso  ? N
   N29        1.0     0.560417     0.873691     0.370109    Uiso  ? N
   N30        1.0     0.447963     0.753589     0.071226    Uiso  ? N
   N31        1.0     0.217756     0.875626     0.867164    Uiso  ? N
   N32        1.0     0.094118     0.772021     0.625333    Uiso  ? N
   N33        1.0     0.885120     0.861200     0.380813    Uiso  ? N
   N34        1.0     0.763417     0.789331     0.119468    Uiso  ? N
   N35        1.0     0.555677     0.876054     0.868670    Uiso  ? N
   N36        1.0     0.461317     0.754561     0.581205    Uiso  ? N
