
#======================================================================
# CRYSTAL DATA
#----------------------------------------------------------------------
data_VESTA_phase_1

_chemical_name_common                  'Al   Hf   Mg   N                      '
_cell_length_a                         9.831880
_cell_length_b                         9.824065
_cell_length_c                         9.942863
_cell_angle_alpha                      90.105019
_cell_angle_beta                       90.322227
_cell_angle_gamma                      60.086514
_cell_volume                           832.416537
_space_group_name_H-M_alt              'P 1'
_space_group_IT_number                 1

loop_
_space_group_symop_operation_xyz
   'x, y, z'

loop_
   _atom_site_label
   _atom_site_occupancy
   _atom_site_fract_x
   _atom_site_fract_y
   _atom_site_fract_z
   _atom_site_adp_type
   _atom_site_U_iso_or_equiv
   _atom_site_type_symbol
   Al1        1.0     0.121542     0.091272     0.312559    Uiso  ? Al
   Al2        1.0     0.221437     0.193916     0.060142    Uiso  ? Al
   Al3        1.0     0.787146     0.087743     0.801254    Uiso  ? Al
   Al4        1.0     0.902353     0.204817     0.570170    Uiso  ? Al
   Al5        1.0     0.434540     0.089518     0.320942    Uiso  ? Al
   Al6        1.0     0.114285     0.093030     0.813996    Uiso  ? Al
   Al7        1.0     0.217766     0.206458     0.566979    Uiso  ? Al
   Al8        1.0     0.894328     0.202090     0.058266    Uiso  ? Al
   Al9        1.0     0.441186     0.084926     0.806401    Uiso  ? Al
   Al10       1.0     0.553492     0.196605     0.567979    Uiso  ? Al
   Al11       1.0     0.115411     0.418011     0.320103    Uiso  ? Al
   Al12       1.0     0.785207     0.426013     0.803444    Uiso  ? Al
   Al13       1.0     0.438860     0.432610     0.384028    Uiso  ? Al
   Al14       1.0     0.555812     0.536174     0.137651    Uiso  ? Al
   Al15       1.0     0.106313     0.426207     0.807930    Uiso  ? Al
   Al16       1.0     0.562528     0.543660     0.597741    Uiso  ? Al
   Al17       1.0     0.223788     0.875654     0.065464    Uiso  ? Al
   Al18       1.0     0.773409     0.765106     0.812245    Uiso  ? Al
   Al19       1.0     0.887828     0.866839     0.571978    Uiso  ? Al
   Al20       1.0     0.438991     0.770519     0.320008    Uiso  ? Al
   Al21       1.0     0.547683     0.870665     0.062891    Uiso  ? Al
   Al22       1.0     0.103620     0.770322     0.811779    Uiso  ? Al
   Al23       1.0     0.773327     0.768129     0.316308    Uiso  ? Al
   Al24       1.0     0.891102     0.876211     0.058095    Uiso  ? Al
   Al25       1.0     0.444980     0.767841     0.807415    Uiso  ? Al
   Al26       1.0     0.558234     0.871126     0.562835    Uiso  ? Al
   Hf1        1.0     0.561770     0.189670     0.069357    Uiso  ? Hf
   Hf2        1.0     0.785849     0.091852     0.337187    Uiso  ? Hf
   Hf3        1.0     0.220967     0.543629     0.095925    Uiso  ? Hf
   Hf4        1.0     0.879252     0.539595     0.087635    Uiso  ? Hf
   Hf5        1.0     0.440942     0.432465     0.822758    Uiso  ? Hf
   Mg1        1.0     0.890756     0.545300     0.560769    Uiso  ? Mg
   Mg2        1.0     0.202540     0.549595     0.564441    Uiso  ? Mg
   Mg3        1.0     0.782898     0.424410     0.341783    Uiso  ? Mg
   Mg4        1.0     0.114054     0.769120     0.327030    Uiso  ? Mg
   Mg5        1.0     0.221261     0.878603     0.565641    Uiso  ? Mg
   N1         1.0     0.222496     0.204349     0.372622    Uiso  ? N
   N2         1.0     0.109245     0.095407     0.114989    Uiso  ? N
   N3         1.0     0.888104     0.203659     0.864623    Uiso  ? N
   N4         1.0     0.776004     0.097252     0.606102    Uiso  ? N
   N5         1.0     0.539678     0.208411     0.365248    Uiso  ? N
   N6         1.0     0.431627     0.083523     0.126188    Uiso  ? N
   N7         1.0     0.226835     0.203601     0.870761    Uiso  ? N
   N8         1.0     0.108820     0.107735     0.629598    Uiso  ? N
   N9         1.0     0.916905     0.192602     0.380789    Uiso  ? N
   N10        1.0     0.795858     0.087339     0.122378    Uiso  ? N
   N11        1.0     0.567063     0.182871     0.857477    Uiso  ? N
   N12        1.0     0.442588     0.092117     0.616235    Uiso  ? N
   N13        1.0     0.230189     0.524879     0.334667    Uiso  ? N
   N14        1.0     0.119403     0.402345     0.121710    Uiso  ? N
   N15        1.0     0.887090     0.539966     0.868229    Uiso  ? N
   N16        1.0     0.779455     0.419659     0.609083    Uiso  ? N
   N17        1.0     0.539337     0.544059     0.339550    Uiso  ? N
   N18        1.0     0.460306     0.428361     0.064475    Uiso  ? N
   N19        1.0     0.200675     0.550654     0.871875    Uiso  ? N
   N20        1.0     0.118188     0.413468     0.622429    Uiso  ? N
   N21        1.0     0.895924     0.549823     0.336837    Uiso  ? N
   N22        1.0     0.771879     0.411028     0.117430    Uiso  ? N
   N23        1.0     0.564255     0.546182     0.825603    Uiso  ? N
   N24        1.0     0.453346     0.422575     0.592460    Uiso  ? N
   N25        1.0     0.231639     0.884042     0.359683    Uiso  ? N
   N26        1.0     0.100527     0.782539     0.111779    Uiso  ? N
   N27        1.0     0.884219     0.877459     0.867817    Uiso  ? N
   N28        1.0     0.766569     0.778096     0.625044    Uiso  ? N
   N29        1.0     0.557659     0.872222     0.369802    Uiso  ? N
   N30        1.0     0.447097     0.759154     0.120302    Uiso  ? N
   N31        1.0     0.226288     0.871637     0.869743    Uiso  ? N
   N32        1.0     0.094941     0.773756     0.625193    Uiso  ? N
   N33        1.0     0.883761     0.862160     0.381258    Uiso  ? N
   N34        1.0     0.763083     0.789578     0.119211    Uiso  ? N
   N35        1.0     0.553207     0.873786     0.871803    Uiso  ? N
   N36        1.0     0.457819     0.761257     0.616326    Uiso  ? N
