
#======================================================================
# CRYSTAL DATA
#----------------------------------------------------------------------
data_VESTA_phase_1

_chemical_name_common                  'Al   Hf   Mg   N                      '
_cell_length_a                         9.832609
_cell_length_b                         9.819954
_cell_length_c                         9.936320
_cell_angle_alpha                      90.074516
_cell_angle_beta                       90.302071
_cell_angle_gamma                      60.015152
_cell_volume                           830.986903
_space_group_name_H-M_alt              'P 1'
_space_group_IT_number                 1

loop_
_space_group_symop_operation_xyz
   'x, y, z'

loop_
   _atom_site_label
   _atom_site_occupancy
   _atom_site_fract_x
   _atom_site_fract_y
   _atom_site_fract_z
   _atom_site_adp_type
   _atom_site_U_iso_or_equiv
   _atom_site_type_symbol
   Al1        1.0     0.121623     0.091032     0.313676    Uiso  ? Al
   Al2        1.0     0.221444     0.193606     0.060396    Uiso  ? Al
   Al3        1.0     0.787137     0.088192     0.801054    Uiso  ? Al
   Al4        1.0     0.900414     0.207470     0.571242    Uiso  ? Al
   Al5        1.0     0.434537     0.088280     0.321951    Uiso  ? Al
   Al6        1.0     0.113870     0.093362     0.814053    Uiso  ? Al
   Al7        1.0     0.217487     0.206304     0.567165    Uiso  ? Al
   Al8        1.0     0.894717     0.201553     0.058402    Uiso  ? Al
   Al9        1.0     0.440773     0.085270     0.806508    Uiso  ? Al
   Al10       1.0     0.552834     0.196957     0.568869    Uiso  ? Al
   Al11       1.0     0.115037     0.417847     0.321069    Uiso  ? Al
   Al12       1.0     0.780769     0.429371     0.805588    Uiso  ? Al
   Al13       1.0     0.438766     0.431758     0.378482    Uiso  ? Al
   Al14       1.0     0.560529     0.541272     0.076860    Uiso  ? Al
   Al15       1.0     0.106460     0.426035     0.807634    Uiso  ? Al
   Al16       1.0     0.562072     0.545429     0.563049    Uiso  ? Al
   Al17       1.0     0.222720     0.876443     0.065969    Uiso  ? Al
   Al18       1.0     0.773664     0.765404     0.812433    Uiso  ? Al
   Al19       1.0     0.887982     0.866566     0.572146    Uiso  ? Al
   Al20       1.0     0.441568     0.764964     0.317923    Uiso  ? Al
   Al21       1.0     0.547891     0.871441     0.063519    Uiso  ? Al
   Al22       1.0     0.104045     0.770369     0.811820    Uiso  ? Al
   Al23       1.0     0.773058     0.767981     0.317256    Uiso  ? Al
   Al24       1.0     0.891154     0.876716     0.058546    Uiso  ? Al
   Al25       1.0     0.447267     0.765138     0.809970    Uiso  ? Al
   Al26       1.0     0.558056     0.869366     0.564338    Uiso  ? Al
   Hf1        1.0     0.561863     0.188376     0.069664    Uiso  ? Hf
   Hf2        1.0     0.785720     0.092385     0.338442    Uiso  ? Hf
   Hf3        1.0     0.220831     0.543459     0.096516    Uiso  ? Hf
   Hf4        1.0     0.881131     0.540139     0.088035    Uiso  ? Hf
   Hf5        1.0     0.442270     0.433522     0.818629    Uiso  ? Hf
   Mg1        1.0     0.889107     0.544072     0.561403    Uiso  ? Mg
   Mg2        1.0     0.203182     0.549107     0.564316    Uiso  ? Mg
   Mg3        1.0     0.779214     0.425501     0.332425    Uiso  ? Mg
   Mg4        1.0     0.114187     0.769532     0.327764    Uiso  ? Mg
   Mg5        1.0     0.223086     0.877342     0.566770    Uiso  ? Mg
   N1         1.0     0.222489     0.204142     0.372963    Uiso  ? N
   N2         1.0     0.109083     0.095584     0.115619    Uiso  ? N
   N3         1.0     0.887358     0.204254     0.865097    Uiso  ? N
   N4         1.0     0.775853     0.097194     0.605861    Uiso  ? N
   N5         1.0     0.539292     0.207957     0.366005    Uiso  ? N
   N6         1.0     0.431234     0.083015     0.127000    Uiso  ? N
   N7         1.0     0.226530     0.203644     0.870952    Uiso  ? N
   N8         1.0     0.108149     0.107921     0.629501    Uiso  ? N
   N9         1.0     0.915909     0.194704     0.381315    Uiso  ? N
   N10        1.0     0.795891     0.087687     0.123117    Uiso  ? N
   N11        1.0     0.566009     0.184850     0.857084    Uiso  ? N
   N12        1.0     0.442349     0.091317     0.616397    Uiso  ? N
   N13        1.0     0.229191     0.525419     0.335026    Uiso  ? N
   N14        1.0     0.120063     0.401788     0.122238    Uiso  ? N
   N15        1.0     0.887353     0.540579     0.868714    Uiso  ? N
   N16        1.0     0.773412     0.422060     0.615052    Uiso  ? N
   N17        1.0     0.540803     0.546969     0.368511    Uiso  ? N
   N18        1.0     0.459244     0.425196     0.073480    Uiso  ? N
   N19        1.0     0.203375     0.549043     0.871445    Uiso  ? N
   N20        1.0     0.117406     0.413692     0.621968    Uiso  ? N
   N21        1.0     0.895441     0.549185     0.336713    Uiso  ? N
   N22        1.0     0.772312     0.411816     0.117420    Uiso  ? N
   N23        1.0     0.565117     0.548639     0.866674    Uiso  ? N
   N24        1.0     0.453370     0.422220     0.597617    Uiso  ? N
   N25        1.0     0.233450     0.883035     0.359743    Uiso  ? N
   N26        1.0     0.100534     0.782711     0.112008    Uiso  ? N
   N27        1.0     0.884316     0.877688     0.868056    Uiso  ? N
   N28        1.0     0.766841     0.777826     0.625182    Uiso  ? N
   N29        1.0     0.557342     0.870775     0.370633    Uiso  ? N
   N30        1.0     0.447856     0.757884     0.120917    Uiso  ? N
   N31        1.0     0.226533     0.871567     0.870259    Uiso  ? N
   N32        1.0     0.095222     0.773608     0.625261    Uiso  ? N
   N33        1.0     0.883767     0.862125     0.381289    Uiso  ? N
   N34        1.0     0.763155     0.790094     0.119692    Uiso  ? N
   N35        1.0     0.553482     0.874386     0.872515    Uiso  ? N
   N36        1.0     0.461388     0.755089     0.622007    Uiso  ? N
