
#======================================================================
# CRYSTAL DATA
#----------------------------------------------------------------------
data_VESTA_phase_1

_chemical_name_common                  'Al   Hf   Mg   N                      '
_cell_length_a                         9.903137
_cell_length_b                         9.870274
_cell_length_c                         9.856433
_cell_angle_alpha                      90.100563
_cell_angle_beta                       89.823029
_cell_angle_gamma                      59.984962
_cell_volume                           834.221417
_space_group_name_H-M_alt              'P 1'
_space_group_IT_number                 1

loop_
_space_group_symop_operation_xyz
   'x, y, z'

loop_
   _atom_site_label
   _atom_site_occupancy
   _atom_site_fract_x
   _atom_site_fract_y
   _atom_site_fract_z
   _atom_site_adp_type
   _atom_site_U_iso_or_equiv
   _atom_site_type_symbol
   Al1        1.0     0.125723     0.092961     0.375653    Uiso  ? Al
   Al2        1.0     0.218035     0.194788     0.132369    Uiso  ? Al
   Al3        1.0     0.788720     0.087310     0.808808    Uiso  ? Al
   Al4        1.0     0.897616     0.206931     0.578837    Uiso  ? Al
   Al5        1.0     0.440657     0.091288     0.382277    Uiso  ? Al
   Al6        1.0     0.115073     0.088247     0.828016    Uiso  ? Al
   Al7        1.0     0.224391     0.207921     0.629756    Uiso  ? Al
   Al8        1.0     0.895369     0.202241     0.059922    Uiso  ? Al
   Al9        1.0     0.436115     0.083790     0.877150    Uiso  ? Al
   Al10       1.0     0.554522     0.195222     0.627289    Uiso  ? Al
   Al11       1.0     0.113413     0.421501     0.385701    Uiso  ? Al
   Al12       1.0     0.781489     0.425936     0.819167    Uiso  ? Al
   Al13       1.0     0.442752     0.428270     0.392362    Uiso  ? Al
   Al14       1.0     0.553412     0.542889     0.138606    Uiso  ? Al
   Al15       1.0     0.109225     0.422538     0.874198    Uiso  ? Al
   Al16       1.0     0.562886     0.544881     0.622637    Uiso  ? Al
   Al17       1.0     0.219233     0.882144     0.137027    Uiso  ? Al
   Al18       1.0     0.767765     0.768942     0.869441    Uiso  ? Al
   Al19       1.0     0.885297     0.870351     0.575047    Uiso  ? Al
   Al20       1.0     0.448189     0.761186     0.380649    Uiso  ? Al
   Al21       1.0     0.549778     0.871550     0.133068    Uiso  ? Al
   Al22       1.0     0.102798     0.771115     0.808262    Uiso  ? Al
   Al23       1.0     0.772100     0.759373     0.389010    Uiso  ? Al
   Al24       1.0     0.893529     0.878589     0.061126    Uiso  ? Al
   Al25       1.0     0.438403     0.768247     0.885655    Uiso  ? Al
   Al26       1.0     0.554598     0.869610     0.631146    Uiso  ? Al
   Hf1        1.0     0.554612     0.200033     0.103848    Uiso  ? Hf
   Hf2        1.0     0.785835     0.093837     0.343408    Uiso  ? Hf
   Hf3        1.0     0.218327     0.545622     0.123268    Uiso  ? Hf
   Hf4        1.0     0.879301     0.541624     0.108875    Uiso  ? Hf
   Hf5        1.0     0.440933     0.436586     0.843852    Uiso  ? Hf
   Mg1        1.0     0.894609     0.542150     0.627190    Uiso  ? Mg
   Mg2        1.0     0.213357     0.537573     0.608685    Uiso  ? Mg
   Mg3        1.0     0.777494     0.434757     0.368100    Uiso  ? Mg
   Mg4        1.0     0.117789     0.761400     0.369422    Uiso  ? Mg
   Mg5        1.0     0.234612     0.866448     0.613859    Uiso  ? Mg
   N1         1.0     0.227843     0.203867     0.326294    Uiso  ? N
   N2         1.0     0.108166     0.095460     0.091950    Uiso  ? N
   N3         1.0     0.887022     0.203142     0.861627    Uiso  ? N
   N4         1.0     0.776338     0.095912     0.609482    Uiso  ? N
   N5         1.0     0.537605     0.213343     0.324065    Uiso  ? N
   N6         1.0     0.430936     0.083029     0.071611    Uiso  ? N
   N7         1.0     0.225541     0.206492     0.824893    Uiso  ? N
   N8         1.0     0.112017     0.103091     0.609968    Uiso  ? N
   N9         1.0     0.911463     0.199802     0.385340    Uiso  ? N
   N10        1.0     0.794565     0.088954     0.121804    Uiso  ? N
   N11        1.0     0.562408     0.185346     0.840624    Uiso  ? N
   N12        1.0     0.445471     0.091381     0.576862    Uiso  ? N
   N13        1.0     0.234282     0.519036     0.337402    Uiso  ? N
   N14        1.0     0.120611     0.406227     0.070858    Uiso  ? N
   N15        1.0     0.887019     0.540833     0.854874    Uiso  ? N
   N16        1.0     0.778234     0.418903     0.617215    Uiso  ? N
   N17        1.0     0.536473     0.543424     0.331147    Uiso  ? N
   N18        1.0     0.453031     0.437201     0.062895    Uiso  ? N
   N19        1.0     0.201225     0.550457     0.848059    Uiso  ? N
   N20        1.0     0.117354     0.409558     0.572707    Uiso  ? N
   N21        1.0     0.898435     0.550635     0.324548    Uiso  ? N
   N22        1.0     0.766738     0.416441     0.102426    Uiso  ? N
   N23        1.0     0.558702     0.557181     0.821954    Uiso  ? N
   N24        1.0     0.460629     0.416819     0.597130    Uiso  ? N
   N25        1.0     0.236732     0.881287     0.334978    Uiso  ? N
   N26        1.0     0.099471     0.780904     0.116615    Uiso  ? N
   N27        1.0     0.887707     0.878048     0.863846    Uiso  ? N
   N28        1.0     0.764611     0.774152     0.586743    Uiso  ? N
   N29        1.0     0.557950     0.872552     0.325337    Uiso  ? N
   N30        1.0     0.445917     0.759036     0.081411    Uiso  ? N
   N31        1.0     0.226457     0.867227     0.836237    Uiso  ? N
   N32        1.0     0.094297     0.770731     0.612562    Uiso  ? N
   N33        1.0     0.882299     0.866062     0.378627    Uiso  ? N
   N34        1.0     0.759947     0.787048     0.069256    Uiso  ? N
   N35        1.0     0.548895     0.872969     0.825232    Uiso  ? N
   N36        1.0     0.467007     0.751458     0.568850    Uiso  ? N
