
#======================================================================
# CRYSTAL DATA
#----------------------------------------------------------------------
data_VESTA_phase_1

_chemical_name_common                  'Al   Hf   Mg   N                      '
_cell_length_a                         9.837326
_cell_length_b                         9.829203
_cell_length_c                         9.933064
_cell_angle_alpha                      90.170380
_cell_angle_beta                       90.302742
_cell_angle_gamma                      60.112011
_cell_volume                           832.706939
_space_group_name_H-M_alt              'P 1'
_space_group_IT_number                 1

loop_
_space_group_symop_operation_xyz
   'x, y, z'

loop_
   _atom_site_label
   _atom_site_occupancy
   _atom_site_fract_x
   _atom_site_fract_y
   _atom_site_fract_z
   _atom_site_adp_type
   _atom_site_U_iso_or_equiv
   _atom_site_type_symbol
   Al1        1.0     0.122161     0.090518     0.313083    Uiso  ? Al
   Al2        1.0     0.221608     0.193850     0.060791    Uiso  ? Al
   Al3        1.0     0.786793     0.087748     0.801929    Uiso  ? Al
   Al4        1.0     0.902633     0.205032     0.570154    Uiso  ? Al
   Al5        1.0     0.435006     0.088789     0.321152    Uiso  ? Al
   Al6        1.0     0.113653     0.093682     0.814509    Uiso  ? Al
   Al7        1.0     0.218202     0.206221     0.567278    Uiso  ? Al
   Al8        1.0     0.894232     0.202249     0.059364    Uiso  ? Al
   Al9        1.0     0.441210     0.085511     0.807268    Uiso  ? Al
   Al10       1.0     0.553619     0.196961     0.568099    Uiso  ? Al
   Al11       1.0     0.115871     0.417437     0.320628    Uiso  ? Al
   Al12       1.0     0.787274     0.424640     0.805031    Uiso  ? Al
   Al13       1.0     0.439786     0.433238     0.385510    Uiso  ? Al
   Al14       1.0     0.554223     0.538523     0.137740    Uiso  ? Al
   Al15       1.0     0.106047     0.426211     0.808305    Uiso  ? Al
   Al16       1.0     0.563683     0.542734     0.609672    Uiso  ? Al
   Al17       1.0     0.224206     0.875471     0.065201    Uiso  ? Al
   Al18       1.0     0.773776     0.764876     0.812940    Uiso  ? Al
   Al19       1.0     0.887977     0.866250     0.572117    Uiso  ? Al
   Al20       1.0     0.439708     0.768832     0.326815    Uiso  ? Al
   Al21       1.0     0.547252     0.870681     0.062786    Uiso  ? Al
   Al22       1.0     0.102761     0.770126     0.812240    Uiso  ? Al
   Al23       1.0     0.773351     0.767857     0.316629    Uiso  ? Al
   Al24       1.0     0.890804     0.876339     0.058921    Uiso  ? Al
   Al25       1.0     0.443561     0.769702     0.807467    Uiso  ? Al
   Al26       1.0     0.559084     0.871483     0.564337    Uiso  ? Al
   Hf1        1.0     0.561531     0.190966     0.071834    Uiso  ? Hf
   Hf2        1.0     0.786482     0.091298     0.338240    Uiso  ? Hf
   Hf3        1.0     0.220989     0.543973     0.097252    Uiso  ? Hf
   Hf4        1.0     0.879411     0.539443     0.088844    Uiso  ? Hf
   Hf5        1.0     0.439968     0.431734     0.825404    Uiso  ? Hf
   Mg1        1.0     0.891168     0.544793     0.560873    Uiso  ? Mg
   Mg2        1.0     0.203361     0.548850     0.565282    Uiso  ? Mg
   Mg3        1.0     0.781078     0.425109     0.342491    Uiso  ? Mg
   Mg4        1.0     0.114674     0.768749     0.327983    Uiso  ? Mg
   Mg5        1.0     0.219690     0.879098     0.567942    Uiso  ? Mg
   N1         1.0     0.223109     0.203763     0.372805    Uiso  ? N
   N2         1.0     0.109417     0.095171     0.115321    Uiso  ? N
   N3         1.0     0.888035     0.203352     0.865469    Uiso  ? N
   N4         1.0     0.776141     0.097011     0.606131    Uiso  ? N
   N5         1.0     0.539991     0.208656     0.364454    Uiso  ? N
   N6         1.0     0.431943     0.083611     0.126187    Uiso  ? N
   N7         1.0     0.226649     0.203733     0.871163    Uiso  ? N
   N8         1.0     0.108506     0.108423     0.630047    Uiso  ? N
   N9         1.0     0.916960     0.193025     0.380472    Uiso  ? N
   N10        1.0     0.795892     0.087410     0.123211    Uiso  ? N
   N11        1.0     0.567109     0.182545     0.859393    Uiso  ? N
   N12        1.0     0.442932     0.092633     0.616852    Uiso  ? N
   N13        1.0     0.231058     0.524195     0.335146    Uiso  ? N
   N14        1.0     0.119792     0.402273     0.122129    Uiso  ? N
   N15        1.0     0.887199     0.540020     0.868925    Uiso  ? N
   N16        1.0     0.780763     0.418991     0.610074    Uiso  ? N
   N17        1.0     0.538582     0.543529     0.335428    Uiso  ? N
   N18        1.0     0.459797     0.430096     0.061455    Uiso  ? N
   N19        1.0     0.199762     0.550778     0.872310    Uiso  ? N
   N20        1.0     0.118426     0.413200     0.622556    Uiso  ? N
   N21        1.0     0.895906     0.549315     0.336706    Uiso  ? N
   N22        1.0     0.770601     0.412066     0.115800    Uiso  ? N
   N23        1.0     0.563858     0.546251     0.820260    Uiso  ? N
   N24        1.0     0.453971     0.422204     0.593407    Uiso  ? N
   N25        1.0     0.231364     0.884027     0.361886    Uiso  ? N
   N26        1.0     0.100430     0.782738     0.112050    Uiso  ? N
   N27        1.0     0.883845     0.877698     0.868445    Uiso  ? N
   N28        1.0     0.767363     0.777338     0.625632    Uiso  ? N
   N29        1.0     0.558299     0.872166     0.371161    Uiso  ? N
   N30        1.0     0.445992     0.760190     0.118711    Uiso  ? N
   N31        1.0     0.225201     0.872128     0.868824    Uiso  ? N
   N32        1.0     0.094532     0.772989     0.625592    Uiso  ? N
   N33        1.0     0.884236     0.861486     0.381249    Uiso  ? N
   N34        1.0     0.762675     0.789521     0.119381    Uiso  ? N
   N35        1.0     0.553120     0.874022     0.871145    Uiso  ? N
   N36        1.0     0.457493     0.761634     0.614853    Uiso  ? N
