
#======================================================================
# CRYSTAL DATA
#----------------------------------------------------------------------
data_VESTA_phase_1

_chemical_name_common                  'Al   Hf   Mg   N '
_cell_length_a                         9.861715
_cell_length_b                         9.844441
_cell_length_c                         9.964731
_cell_angle_alpha                      90.186554
_cell_angle_beta                       90.187889
_cell_angle_gamma                      60.101753
_cell_volume                           838.650576
_space_group_name_H-M_alt              'P 1'
_space_group_IT_number                 1

loop_
_space_group_symop_operation_xyz
   'x, y, z'

loop_
   _atom_site_label
   _atom_site_occupancy
   _atom_site_fract_x
   _atom_site_fract_y
   _atom_site_fract_z
   _atom_site_adp_type
   _atom_site_U_iso_or_equiv
   _atom_site_type_symbol
   Al1        1.0     0.123546     0.091719     0.319434    Uiso  ? Al
   Al2        1.0     0.214493     0.198006     0.064452    Uiso  ? Al
   Al3        1.0     0.789174     0.088574     0.809900    Uiso  ? Al
   Al4        1.0     0.904268     0.203961     0.576553    Uiso  ? Al
   Al5        1.0     0.442585     0.087782     0.387732    Uiso  ? Al
   Al6        1.0     0.112412     0.093131     0.819959    Uiso  ? Al
   Al7        1.0     0.217006     0.206234     0.575653    Uiso  ? Al
   Al8        1.0     0.890786     0.204106     0.067025    Uiso  ? Al
   Al9        1.0     0.440792     0.082824     0.874921    Uiso  ? Al
   Al10       1.0     0.554105     0.195430     0.628706    Uiso  ? Al
   Al11       1.0     0.117553     0.417820     0.328037    Uiso  ? Al
   Al12       1.0     0.786396     0.424586     0.815786    Uiso  ? Al
   Al13       1.0     0.442770     0.429718     0.391147    Uiso  ? Al
   Al14       1.0     0.551363     0.544184     0.140775    Uiso  ? Al
   Al15       1.0     0.104659     0.427068     0.816221    Uiso  ? Al
   Al16       1.0     0.564095     0.542860     0.623160    Uiso  ? Al
   Al17       1.0     0.217723     0.880932     0.078502    Uiso  ? Al
   Al18       1.0     0.771157     0.765875     0.873845    Uiso  ? Al
   Al19       1.0     0.893131     0.865643     0.579103    Uiso  ? Al
   Al20       1.0     0.448043     0.761057     0.384250    Uiso  ? Al
   Al21       1.0     0.550459     0.871270     0.137148    Uiso  ? Al
   Al22       1.0     0.103367     0.771185     0.818317    Uiso  ? Al
   Al23       1.0     0.771595     0.762332     0.390843    Uiso  ? Al
   Al24       1.0     0.889047     0.882296     0.064513    Uiso  ? Al
   Al25       1.0     0.447088     0.763796     0.884452    Uiso  ? Al
   Al26       1.0     0.558174     0.866636     0.633610    Uiso  ? Al
   Hf1        1.0     0.553179     0.201251     0.112412    Uiso  ? Hf
   Hf2        1.0     0.784862     0.092595     0.353056    Uiso  ? Hf
   Hf3        1.0     0.219157     0.547250     0.104520    Uiso  ? Hf
   Hf4        1.0     0.879697     0.541137     0.105431    Uiso  ? Hf
   Hf5        1.0     0.436472     0.436728     0.839380    Uiso  ? Hf
   Mg1        1.0     0.895313     0.533780     0.582934    Uiso  ? Mg
   Mg2        1.0     0.207023     0.546752     0.570598    Uiso  ? Mg
   Mg3        1.0     0.778025     0.425905     0.347129    Uiso  ? Mg
   Mg4        1.0     0.116774     0.769123     0.333341    Uiso  ? Mg
   Mg5        1.0     0.222181     0.876866     0.574565    Uiso  ? Mg
   N1         1.0     0.221725     0.205441     0.378454    Uiso  ? N
   N2         1.0     0.105803     0.099671     0.123752    Uiso  ? N
   N3         1.0     0.886663     0.203760     0.873398    Uiso  ? N
   N4         1.0     0.778835     0.094799     0.610547    Uiso  ? N
   N5         1.0     0.534896     0.213840     0.327386    Uiso  ? N
   N6         1.0     0.436576     0.079397     0.072481    Uiso  ? N
   N7         1.0     0.215931     0.208234     0.874373    Uiso  ? N
   N8         1.0     0.110113     0.105184     0.635468    Uiso  ? N
   N9         1.0     0.917340     0.194098     0.387008    Uiso  ? N
   N10        1.0     0.793546     0.089347     0.131028    Uiso  ? N
   N11        1.0     0.561080     0.186917     0.835905    Uiso  ? N
   N12        1.0     0.449291     0.087182     0.581791    Uiso  ? N
   N13        1.0     0.231683     0.524953     0.343403    Uiso  ? N
   N14        1.0     0.122781     0.402719     0.129895    Uiso  ? N
   N15        1.0     0.888197     0.537032     0.875237    Uiso  ? N
   N16        1.0     0.781097     0.414225     0.621816    Uiso  ? N
   N17        1.0     0.535081     0.544608     0.330810    Uiso  ? N
   N18        1.0     0.457513     0.434864     0.060232    Uiso  ? N
   N19        1.0     0.196332     0.552916     0.880132    Uiso  ? N
   N20        1.0     0.123039     0.411408     0.631076    Uiso  ? N
   N21        1.0     0.894606     0.550128     0.338673    Uiso  ? N
   N22        1.0     0.768211     0.414812     0.119603    Uiso  ? N
   N23        1.0     0.559486     0.553909     0.821797    Uiso  ? N
   N24        1.0     0.458523     0.418143     0.596506    Uiso  ? N
   N25        1.0     0.235856     0.882915     0.359011    Uiso  ? N
   N26        1.0     0.097485     0.784601     0.119346    Uiso  ? N
   N27        1.0     0.885548     0.880736     0.870635    Uiso  ? N
   N28        1.0     0.768297     0.772097     0.587300    Uiso  ? N
   N29        1.0     0.558135     0.872967     0.326972    Uiso  ? N
   N30        1.0     0.451399     0.756427     0.079284    Uiso  ? N
   N31        1.0     0.219195     0.875844     0.878884    Uiso  ? N
   N32        1.0     0.098651     0.770723     0.632128    Uiso  ? N
   N33        1.0     0.888962     0.863016     0.384173    Uiso  ? N
   N34        1.0     0.760702     0.787277     0.074963    Uiso  ? N
   N35        1.0     0.552602     0.871038     0.825866    Uiso  ? N
   N36        1.0     0.467719     0.750220     0.573263    Uiso  ? N
