
#======================================================================
# CRYSTAL DATA
#----------------------------------------------------------------------
data_VESTA_phase_1

_chemical_name_common                  'Al   Hf   Mg   N                      '
_cell_length_a                         9.897913
_cell_length_b                         9.868327
_cell_length_c                         9.864817
_cell_angle_alpha                      90.004929
_cell_angle_beta                       90.054276
_cell_angle_gamma                      60.123894
_cell_volume                           835.501854
_space_group_name_H-M_alt              'P 1'
_space_group_IT_number                 1

loop_
_space_group_symop_operation_xyz
   'x, y, z'

loop_
   _atom_site_label
   _atom_site_occupancy
   _atom_site_fract_x
   _atom_site_fract_y
   _atom_site_fract_z
   _atom_site_adp_type
   _atom_site_U_iso_or_equiv
   _atom_site_type_symbol
   Al1        1.0     0.120886     0.090940     0.316762    Uiso  ? Al
   Al2        1.0     0.221618     0.197216     0.116467    Uiso  ? Al
   Al3        1.0     0.789201     0.087795     0.808570    Uiso  ? Al
   Al4        1.0     0.904776     0.205050     0.576098    Uiso  ? Al
   Al5        1.0     0.436610     0.090919     0.382712    Uiso  ? Al
   Al6        1.0     0.112523     0.090111     0.823206    Uiso  ? Al
   Al7        1.0     0.222521     0.205240     0.626842    Uiso  ? Al
   Al8        1.0     0.890180     0.204317     0.065056    Uiso  ? Al
   Al9        1.0     0.440040     0.082733     0.875806    Uiso  ? Al
   Al10       1.0     0.553594     0.195402     0.626746    Uiso  ? Al
   Al11       1.0     0.114819     0.419657     0.386045    Uiso  ? Al
   Al12       1.0     0.782861     0.423753     0.817523    Uiso  ? Al
   Al13       1.0     0.440503     0.429671     0.393465    Uiso  ? Al
   Al14       1.0     0.553837     0.541942     0.142001    Uiso  ? Al
   Al15       1.0     0.107581     0.425058     0.872427    Uiso  ? Al
   Al16       1.0     0.562442     0.544258     0.621292    Uiso  ? Al
   Al17       1.0     0.218076     0.877547     0.081521    Uiso  ? Al
   Al18       1.0     0.769261     0.768282     0.869711    Uiso  ? Al
   Al19       1.0     0.890565     0.867913     0.577760    Uiso  ? Al
   Al20       1.0     0.447646     0.761276     0.381095    Uiso  ? Al
   Al21       1.0     0.551216     0.869795     0.135330    Uiso  ? Al
   Al22       1.0     0.103945     0.774102     0.815539    Uiso  ? Al
   Al23       1.0     0.773197     0.759194     0.391609    Uiso  ? Al
   Al24       1.0     0.889947     0.879747     0.063827    Uiso  ? Al
   Al25       1.0     0.446532     0.764176     0.884137    Uiso  ? Al
   Al26       1.0     0.554961     0.868611     0.631175    Uiso  ? Al
   Hf1        1.0     0.555619     0.199203     0.110810    Uiso  ? Hf
   Hf2        1.0     0.784945     0.093715     0.353124    Uiso  ? Hf
   Hf3        1.0     0.220329     0.542794     0.119319    Uiso  ? Hf
   Hf4        1.0     0.878758     0.542312     0.112249    Uiso  ? Hf
   Hf5        1.0     0.442240     0.434141     0.843668    Uiso  ? Hf
   Mg1        1.0     0.893949     0.541643     0.626166    Uiso  ? Mg
   Mg2        1.0     0.211342     0.544682     0.606035    Uiso  ? Mg
   Mg3        1.0     0.779022     0.431693     0.366282    Uiso  ? Mg
   Mg4        1.0     0.115628     0.766070     0.341888    Uiso  ? Mg
   Mg5        1.0     0.222093     0.878755     0.571679    Uiso  ? Mg
   N1         1.0     0.227631     0.205744     0.322428    Uiso  ? N
   N2         1.0     0.103355     0.097502     0.115782    Uiso  ? N
   N3         1.0     0.886165     0.203352     0.869859    Uiso  ? N
   N4         1.0     0.776832     0.096253     0.607594    Uiso  ? N
   N5         1.0     0.536712     0.213490     0.328289    Uiso  ? N
   N6         1.0     0.435483     0.079866     0.070510    Uiso  ? N
   N7         1.0     0.225371     0.205919     0.837463    Uiso  ? N
   N8         1.0     0.108094     0.102867     0.634219    Uiso  ? N
   N9         1.0     0.917827     0.195577     0.384805    Uiso  ? N
   N10        1.0     0.794412     0.087733     0.128544    Uiso  ? N
   N11        1.0     0.563727     0.184241     0.837135    Uiso  ? N
   N12        1.0     0.443709     0.090612     0.578178    Uiso  ? N
   N13        1.0     0.232892     0.520416     0.335517    Uiso  ? N
   N14        1.0     0.117358     0.409511     0.069914    Uiso  ? N
   N15        1.0     0.885785     0.541047     0.854438    Uiso  ? N
   N16        1.0     0.778821     0.416313     0.616896    Uiso  ? N
   N17        1.0     0.536864     0.542801     0.333958    Uiso  ? N
   N18        1.0     0.455982     0.434497     0.063627    Uiso  ? N
   N19        1.0     0.202658     0.552124     0.855031    Uiso  ? N
   N20        1.0     0.118976     0.409939     0.575661    Uiso  ? N
   N21        1.0     0.898333     0.550850     0.327586    Uiso  ? N
   N22        1.0     0.767312     0.415897     0.110676    Uiso  ? N
   N23        1.0     0.559772     0.555151     0.821279    Uiso  ? N
   N24        1.0     0.458774     0.417477     0.597765    Uiso  ? N
   N25        1.0     0.235694     0.881555     0.352643    Uiso  ? N
   N26        1.0     0.097824     0.779424     0.117616    Uiso  ? N
   N27        1.0     0.886903     0.879853     0.867559    Uiso  ? N
   N28        1.0     0.766005     0.774623     0.588808    Uiso  ? N
   N29        1.0     0.559102     0.871988     0.327030    Uiso  ? N
   N30        1.0     0.451655     0.755091     0.080645    Uiso  ? N
   N31        1.0     0.220469     0.873891     0.878533    Uiso  ? N
   N32        1.0     0.095848     0.776293     0.625904    Uiso  ? N
   N33        1.0     0.885858     0.864002     0.381556    Uiso  ? N
   N34        1.0     0.759943     0.786013     0.070626    Uiso  ? N
   N35        1.0     0.550839     0.872203     0.824860    Uiso  ? N
   N36        1.0     0.465110     0.752027     0.572293    Uiso  ? N
