
#======================================================================
# CRYSTAL DATA
#----------------------------------------------------------------------
data_VESTA_phase_1

_chemical_name_common                  'Al   Hf   Mg   N                      '
_cell_length_a                         9.839524
_cell_length_b                         9.808956
_cell_length_c                         10.010169
_cell_angle_alpha                      90.222504
_cell_angle_beta                       90.489906
_cell_angle_gamma                      60.104069
_cell_volume                           837.543736
_space_group_name_H-M_alt              'P 1'
_space_group_IT_number                 1

loop_
_space_group_symop_operation_xyz
   'x, y, z'

loop_
   _atom_site_label
   _atom_site_occupancy
   _atom_site_fract_x
   _atom_site_fract_y
   _atom_site_fract_z
   _atom_site_adp_type
   _atom_site_U_iso_or_equiv
   _atom_site_type_symbol
   Al1        1.0     0.121086     0.091708     0.320919    Uiso  ? Al
   Al2        1.0     0.219841     0.195593     0.067352    Uiso  ? Al
   Al3        1.0     0.787507     0.087789     0.808184    Uiso  ? Al
   Al4        1.0     0.901936     0.204544     0.577968    Uiso  ? Al
   Al5        1.0     0.431837     0.096952     0.332234    Uiso  ? Al
   Al6        1.0     0.114199     0.092188     0.821871    Uiso  ? Al
   Al7        1.0     0.216706     0.206998     0.574790    Uiso  ? Al
   Al8        1.0     0.892783     0.203902     0.065645    Uiso  ? Al
   Al9        1.0     0.439750     0.083095     0.812180    Uiso  ? Al
   Al10       1.0     0.555393     0.197485     0.577409    Uiso  ? Al
   Al11       1.0     0.114722     0.418194     0.327285    Uiso  ? Al
   Al12       1.0     0.787460     0.424500     0.813720    Uiso  ? Al
   Al13       1.0     0.441040     0.433498     0.393540    Uiso  ? Al
   Al14       1.0     0.552333     0.538956     0.142912    Uiso  ? Al
   Al15       1.0     0.105784     0.426532     0.816024    Uiso  ? Al
   Al16       1.0     0.564474     0.545482     0.626303    Uiso  ? Al
   Al17       1.0     0.216120     0.879666     0.079823    Uiso  ? Al
   Al18       1.0     0.771610     0.766838     0.819239    Uiso  ? Al
   Al19       1.0     0.890297     0.867191     0.579745    Uiso  ? Al
   Al20       1.0     0.445262     0.758717     0.384353    Uiso  ? Al
   Al21       1.0     0.546699     0.872006     0.127200    Uiso  ? Al
   Al22       1.0     0.102730     0.771189     0.820970    Uiso  ? Al
   Al23       1.0     0.781037     0.764097     0.326951    Uiso  ? Al
   Al24       1.0     0.891034     0.875901     0.064911    Uiso  ? Al
   Al25       1.0     0.449014     0.764693     0.890126    Uiso  ? Al
   Al26       1.0     0.561032     0.870078     0.586004    Uiso  ? Al
   Hf1        1.0     0.562882     0.186992     0.068727    Uiso  ? Hf
   Hf2        1.0     0.784832     0.092358     0.342567    Uiso  ? Hf
   Hf3        1.0     0.223368     0.541496     0.104634    Uiso  ? Hf
   Hf4        1.0     0.878774     0.541221     0.091943    Uiso  ? Hf
   Hf5        1.0     0.436855     0.434442     0.829962    Uiso  ? Hf
   Mg1        1.0     0.891770     0.541460     0.568586    Uiso  ? Mg
   Mg2        1.0     0.203205     0.548936     0.571712    Uiso  ? Mg
   Mg3        1.0     0.779653     0.425559     0.345023    Uiso  ? Mg
   Mg4        1.0     0.115288     0.767588     0.333537    Uiso  ? Mg
   Mg5        1.0     0.219810     0.878291     0.576487    Uiso  ? Mg
   N1         1.0     0.220484     0.205678     0.382333    Uiso  ? N
   N2         1.0     0.106623     0.099063     0.124956    Uiso  ? N
   N3         1.0     0.887740     0.203713     0.873683    Uiso  ? N
   N4         1.0     0.777745     0.096212     0.615510    Uiso  ? N
   N5         1.0     0.541083     0.208998     0.378684    Uiso  ? N
   N6         1.0     0.426920     0.093156     0.137822    Uiso  ? N
   N7         1.0     0.226011     0.203820     0.878975    Uiso  ? N
   N8         1.0     0.109209     0.106908     0.637959    Uiso  ? N
   N9         1.0     0.915291     0.193467     0.389129    Uiso  ? N
   N10        1.0     0.794746     0.088091     0.129085    Uiso  ? N
   N11        1.0     0.565285     0.184505     0.859277    Uiso  ? N
   N12        1.0     0.442321     0.092215     0.620833    Uiso  ? N
   N13        1.0     0.232086     0.522653     0.342834    Uiso  ? N
   N14        1.0     0.117798     0.404188     0.129904    Uiso  ? N
   N15        1.0     0.887097     0.540583     0.875915    Uiso  ? N
   N16        1.0     0.781107     0.417207     0.622101    Uiso  ? N
   N17        1.0     0.536383     0.542719     0.331591    Uiso  ? N
   N18        1.0     0.462096     0.426266     0.063776    Uiso  ? N
   N19        1.0     0.198840     0.551262     0.881463    Uiso  ? N
   N20        1.0     0.119423     0.413093     0.632219    Uiso  ? N
   N21        1.0     0.896842     0.547126     0.348024    Uiso  ? N
   N22        1.0     0.769925     0.414158     0.120794    Uiso  ? N
   N23        1.0     0.559733     0.553777     0.824511    Uiso  ? N
   N24        1.0     0.454484     0.424399     0.601804    Uiso  ? N
   N25        1.0     0.232776     0.882692     0.361393    Uiso  ? N
   N26        1.0     0.098921     0.780622     0.121329    Uiso  ? N
   N27        1.0     0.883562     0.878012     0.875971    Uiso  ? N
   N28        1.0     0.771564     0.775252     0.630698    Uiso  ? N
   N29        1.0     0.558099     0.871782     0.350520    Uiso  ? N
   N30        1.0     0.448601     0.753475     0.086289    Uiso  ? N
   N31        1.0     0.219280     0.875177     0.882022    Uiso  ? N
   N32        1.0     0.096418     0.772528     0.635414    Uiso  ? N
   N33        1.0     0.886342     0.862862     0.390795    Uiso  ? N
   N34        1.0     0.767952     0.788211     0.130195    Uiso  ? N
   N35        1.0     0.555536     0.874860     0.865818    Uiso  ? N
   N36        1.0     0.464909     0.750992     0.574187    Uiso  ? N
