
#======================================================================
# CRYSTAL DATA
#----------------------------------------------------------------------
data_VESTA_phase_1

_chemical_name_common                  'Al   Hf   Mg   N                      '
_cell_length_a                         9.840796
_cell_length_b                         9.823006
_cell_length_c                         9.979655
_cell_angle_alpha                      90.121544
_cell_angle_beta                       90.291130
_cell_angle_gamma                      60.064411
_cell_volume                           835.981511
_space_group_name_H-M_alt              'P 1'
_space_group_IT_number                 1

loop_
_space_group_symop_operation_xyz
   'x, y, z'

loop_
   _atom_site_label
   _atom_site_occupancy
   _atom_site_fract_x
   _atom_site_fract_y
   _atom_site_fract_z
   _atom_site_adp_type
   _atom_site_U_iso_or_equiv
   _atom_site_type_symbol
   Al1        1.0     0.122457     0.090911     0.313051    Uiso  ? Al
   Al2        1.0     0.221292     0.194201     0.059982    Uiso  ? Al
   Al3        1.0     0.786464     0.087859     0.801223    Uiso  ? Al
   Al4        1.0     0.902115     0.205158     0.569710    Uiso  ? Al
   Al5        1.0     0.435328     0.089146     0.320413    Uiso  ? Al
   Al6        1.0     0.113013     0.093509     0.813598    Uiso  ? Al
   Al7        1.0     0.218409     0.206039     0.566771    Uiso  ? Al
   Al8        1.0     0.892984     0.203847     0.058471    Uiso  ? Al
   Al9        1.0     0.440938     0.084220     0.805824    Uiso  ? Al
   Al10       1.0     0.554023     0.197205     0.567193    Uiso  ? Al
   Al11       1.0     0.116008     0.417304     0.319987    Uiso  ? Al
   Al12       1.0     0.788013     0.424212     0.805396    Uiso  ? Al
   Al13       1.0     0.440808     0.434115     0.384109    Uiso  ? Al
   Al14       1.0     0.551254     0.543418     0.135250    Uiso  ? Al
   Al15       1.0     0.105573     0.426057     0.807895    Uiso  ? Al
   Al16       1.0     0.564121     0.544608     0.617213    Uiso  ? Al
   Al17       1.0     0.217766     0.879009     0.069866    Uiso  ? Al
   Al18       1.0     0.773722     0.765078     0.812343    Uiso  ? Al
   Al19       1.0     0.888467     0.866326     0.571666    Uiso  ? Al
   Al20       1.0     0.445116     0.760722     0.380562    Uiso  ? Al
   Al21       1.0     0.550581     0.874116     0.065519    Uiso  ? Al
   Al22       1.0     0.101366     0.770576     0.811945    Uiso  ? Al
   Al23       1.0     0.774624     0.767834     0.316421    Uiso  ? Al
   Al24       1.0     0.890430     0.876756     0.058069    Uiso  ? Al
   Al25       1.0     0.444449     0.761403     0.872258    Uiso  ? Al
   Al26       1.0     0.562684     0.871752     0.564283    Uiso  ? Al
   Hf1        1.0     0.561614     0.191977     0.069166    Uiso  ? Hf
   Hf2        1.0     0.786551     0.091279     0.336781    Uiso  ? Hf
   Hf3        1.0     0.221776     0.543414     0.096897    Uiso  ? Hf
   Hf4        1.0     0.879936     0.539544     0.088209    Uiso  ? Hf
   Hf5        1.0     0.437889     0.431565     0.823091    Uiso  ? Hf
   Mg1        1.0     0.890905     0.543622     0.560282    Uiso  ? Mg
   Mg2        1.0     0.203622     0.548404     0.563951    Uiso  ? Mg
   Mg3        1.0     0.779176     0.425966     0.339078    Uiso  ? Mg
   Mg4        1.0     0.115466     0.768063     0.327093    Uiso  ? Mg
   Mg5        1.0     0.218361     0.878995     0.571168    Uiso  ? Mg
   N1         1.0     0.223405     0.203815     0.373135    Uiso  ? N
   N2         1.0     0.107437     0.098007     0.116239    Uiso  ? N
   N3         1.0     0.887156     0.203837     0.865552    Uiso  ? N
   N4         1.0     0.776432     0.096624     0.606582    Uiso  ? N
   N5         1.0     0.540509     0.209301     0.365301    Uiso  ? N
   N6         1.0     0.431427     0.085555     0.126307    Uiso  ? N
   N7         1.0     0.226425     0.203015     0.870975    Uiso  ? N
   N8         1.0     0.108595     0.108173     0.629621    Uiso  ? N
   N9         1.0     0.916297     0.193646     0.380649    Uiso  ? N
   N10        1.0     0.795505     0.088081     0.122508    Uiso  ? N
   N11        1.0     0.566193     0.183045     0.857960    Uiso  ? N
   N12        1.0     0.443319     0.092064     0.616501    Uiso  ? N
   N13        1.0     0.231651     0.523437     0.334789    Uiso  ? N
   N14        1.0     0.120235     0.402299     0.122110    Uiso  ? N
   N15        1.0     0.886883     0.540166     0.869265    Uiso  ? N
   N16        1.0     0.781177     0.417950     0.612430    Uiso  ? N
   N17        1.0     0.535823     0.545756     0.325619    Uiso  ? N
   N18        1.0     0.460054     0.430671     0.057742    Uiso  ? N
   N19        1.0     0.199086     0.550604     0.872471    Uiso  ? N
   N20        1.0     0.118768     0.412937     0.623067    Uiso  ? N
   N21        1.0     0.895983     0.548744     0.336617    Uiso  ? N
   N22        1.0     0.769351     0.413953     0.113703    Uiso  ? N
   N23        1.0     0.560805     0.550158     0.815596    Uiso  ? N
   N24        1.0     0.454783     0.422763     0.593095    Uiso  ? N
   N25        1.0     0.233270     0.882757     0.355541    Uiso  ? N
   N26        1.0     0.098754     0.782082     0.113199    Uiso  ? N
   N27        1.0     0.883177     0.877868     0.868576    Uiso  ? N
   N28        1.0     0.769137     0.776269     0.626102    Uiso  ? N
   N29        1.0     0.560854     0.874367     0.368214    Uiso  ? N
   N30        1.0     0.448195     0.753855     0.072462    Uiso  ? N
   N31        1.0     0.217361     0.875506     0.870276    Uiso  ? N
   N32        1.0     0.094646     0.772203     0.626128    Uiso  ? N
   N33        1.0     0.885361     0.861454     0.381813    Uiso  ? N
   N34        1.0     0.764304     0.789378     0.120162    Uiso  ? N
   N35        1.0     0.555657     0.875612     0.871047    Uiso  ? N
   N36        1.0     0.462467     0.752998     0.574661    Uiso  ? N
