
#======================================================================
# CRYSTAL DATA
#----------------------------------------------------------------------
data_VESTA_phase_1

_chemical_name_common                  'Al   Hf   Mg   N                      '
_cell_length_a                         9.834955
_cell_length_b                         9.823160
_cell_length_c                         9.928978
_cell_angle_alpha                      90.078285
_cell_angle_beta                       90.309494
_cell_angle_gamma                      60.031502
_cell_volume                           830.978358
_space_group_name_H-M_alt              'P 1'
_space_group_IT_number                 1

loop_
_space_group_symop_operation_xyz
   'x, y, z'

loop_
   _atom_site_label
   _atom_site_occupancy
   _atom_site_fract_x
   _atom_site_fract_y
   _atom_site_fract_z
   _atom_site_adp_type
   _atom_site_U_iso_or_equiv
   _atom_site_type_symbol
   Al1        1.0     0.121623     0.091048     0.313473    Uiso  ? Al
   Al2        1.0     0.221410     0.193666     0.060340    Uiso  ? Al
   Al3        1.0     0.787127     0.088180     0.801180    Uiso  ? Al
   Al4        1.0     0.900856     0.206905     0.571120    Uiso  ? Al
   Al5        1.0     0.434519     0.088596     0.321742    Uiso  ? Al
   Al6        1.0     0.113964     0.093359     0.814135    Uiso  ? Al
   Al7        1.0     0.217553     0.206356     0.567174    Uiso  ? Al
   Al8        1.0     0.894672     0.201481     0.058266    Uiso  ? Al
   Al9        1.0     0.440861     0.085284     0.806567    Uiso  ? Al
   Al10       1.0     0.552972     0.196902     0.568786    Uiso  ? Al
   Al11       1.0     0.115044     0.417970     0.320940    Uiso  ? Al
   Al12       1.0     0.780349     0.429459     0.804668    Uiso  ? Al
   Al13       1.0     0.438311     0.431438     0.379559    Uiso  ? Al
   Al14       1.0     0.559280     0.539986     0.094135    Uiso  ? Al
   Al15       1.0     0.106573     0.426059     0.807712    Uiso  ? Al
   Al16       1.0     0.562075     0.545191     0.564183    Uiso  ? Al
   Al17       1.0     0.222724     0.876366     0.065700    Uiso  ? Al
   Al18       1.0     0.773565     0.765351     0.812447    Uiso  ? Al
   Al19       1.0     0.887964     0.866630     0.572185    Uiso  ? Al
   Al20       1.0     0.440682     0.767053     0.319081    Uiso  ? Al
   Al21       1.0     0.547903     0.871218     0.063186    Uiso  ? Al
   Al22       1.0     0.104037     0.770363     0.811880    Uiso  ? Al
   Al23       1.0     0.773182     0.767984     0.317109    Uiso  ? Al
   Al24       1.0     0.891133     0.876650     0.058469    Uiso  ? Al
   Al25       1.0     0.447504     0.764467     0.809099    Uiso  ? Al
   Al26       1.0     0.558145     0.869818     0.564168    Uiso  ? Al
   Hf1        1.0     0.561832     0.188414     0.069600    Uiso  ? Hf
   Hf2        1.0     0.785756     0.092206     0.338343    Uiso  ? Hf
   Hf3        1.0     0.220321     0.543625     0.096068    Uiso  ? Hf
   Hf4        1.0     0.880648     0.540052     0.087564    Uiso  ? Hf
   Hf5        1.0     0.442645     0.433874     0.819245    Uiso  ? Hf
   Mg1        1.0     0.889533     0.544411     0.561456    Uiso  ? Mg
   Mg2        1.0     0.203016     0.549266     0.564444    Uiso  ? Mg
   Mg3        1.0     0.781394     0.424558     0.334774    Uiso  ? Mg
   Mg4        1.0     0.114131     0.769453     0.327731    Uiso  ? Mg
   Mg5        1.0     0.222608     0.877714     0.566822    Uiso  ? Mg
   N1         1.0     0.222480     0.204202     0.372769    Uiso  ? N
   N2         1.0     0.109112     0.095507     0.115403    Uiso  ? N
   N3         1.0     0.887447     0.204324     0.864855    Uiso  ? N
   N4         1.0     0.775887     0.097204     0.605801    Uiso  ? N
   N5         1.0     0.539388     0.207869     0.365641    Uiso  ? N
   N6         1.0     0.431316     0.082934     0.126708    Uiso  ? N
   N7         1.0     0.226627     0.203689     0.870880    Uiso  ? N
   N8         1.0     0.108297     0.107961     0.629509    Uiso  ? N
   N9         1.0     0.916381     0.193836     0.381217    Uiso  ? N
   N10        1.0     0.795821     0.087615     0.122918    Uiso  ? N
   N11        1.0     0.566366     0.184596     0.857081    Uiso  ? N
   N12        1.0     0.442390     0.091523     0.616322    Uiso  ? N
   N13        1.0     0.229127     0.525459     0.334913    Uiso  ? N
   N14        1.0     0.119639     0.401953     0.122042    Uiso  ? N
   N15        1.0     0.887343     0.540347     0.868388    Uiso  ? N
   N16        1.0     0.774306     0.421809     0.613011    Uiso  ? N
   N17        1.0     0.540916     0.546384     0.363688    Uiso  ? N
   N18        1.0     0.458953     0.425452     0.072949    Uiso  ? N
   N19        1.0     0.202967     0.549491     0.871488    Uiso  ? N
   N20        1.0     0.117633     0.413635     0.621951    Uiso  ? N
   N21        1.0     0.895650     0.549471     0.336863    Uiso  ? N
   N22        1.0     0.772920     0.411045     0.118613    Uiso  ? N
   N23        1.0     0.564980     0.548074     0.860020    Uiso  ? N
   N24        1.0     0.453459     0.422426     0.595803    Uiso  ? N
   N25        1.0     0.232832     0.883380     0.359929    Uiso  ? N
   N26        1.0     0.100508     0.782734     0.112004    Uiso  ? N
   N27        1.0     0.884309     0.877650     0.867959    Uiso  ? N
   N28        1.0     0.766809     0.777938     0.625109    Uiso  ? N
   N29        1.0     0.557486     0.871272     0.370485    Uiso  ? N
   N30        1.0     0.447325     0.758780     0.121693    Uiso  ? N
   N31        1.0     0.226635     0.871568     0.870017    Uiso  ? N
   N32        1.0     0.095140     0.773672     0.625173    Uiso  ? N
   N33        1.0     0.883775     0.862120     0.381192    Uiso  ? N
   N34        1.0     0.763172     0.789847     0.119494    Uiso  ? N
   N35        1.0     0.553326     0.874231     0.872169    Uiso  ? N
   N36        1.0     0.460958     0.755874     0.620102    Uiso  ? N
