
#======================================================================
# CRYSTAL DATA
#----------------------------------------------------------------------
data_VESTA_phase_1

_chemical_name_common                  'Al   Hf   Mg   N                      '
_cell_length_a                         9.870440
_cell_length_b                         9.833309
_cell_length_c                         9.987309
_cell_angle_alpha                      90.174316
_cell_angle_beta                       90.060089
_cell_angle_gamma                      60.009800
_cell_volume                           839.568406
_space_group_name_H-M_alt              'P 1'
_space_group_IT_number                 1

loop_
_space_group_symop_operation_xyz
   'x, y, z'

loop_
   _atom_site_label
   _atom_site_occupancy
   _atom_site_fract_x
   _atom_site_fract_y
   _atom_site_fract_z
   _atom_site_adp_type
   _atom_site_U_iso_or_equiv
   _atom_site_type_symbol
   Al1        1.0     0.119035     0.090674     0.319420    Uiso  ? Al
   Al2        1.0     0.222798     0.198389     0.131029    Uiso  ? Al
   Al3        1.0     0.789681     0.088089     0.807673    Uiso  ? Al
   Al4        1.0     0.903573     0.205779     0.575690    Uiso  ? Al
   Al5        1.0     0.437359     0.090752     0.384796    Uiso  ? Al
   Al6        1.0     0.112307     0.089683     0.821377    Uiso  ? Al
   Al7        1.0     0.222105     0.206649     0.632456    Uiso  ? Al
   Al8        1.0     0.891843     0.204467     0.064278    Uiso  ? Al
   Al9        1.0     0.438197     0.084677     0.876949    Uiso  ? Al
   Al10       1.0     0.553767     0.195318     0.627532    Uiso  ? Al
   Al11       1.0     0.114673     0.419604     0.385216    Uiso  ? Al
   Al12       1.0     0.783077     0.424320     0.816582    Uiso  ? Al
   Al13       1.0     0.440949     0.429480     0.393838    Uiso  ? Al
   Al14       1.0     0.553255     0.542883     0.141484    Uiso  ? Al
   Al15       1.0     0.108991     0.423638     0.876028    Uiso  ? Al
   Al16       1.0     0.562314     0.544351     0.622972    Uiso  ? Al
   Al17       1.0     0.218681     0.878066     0.090070    Uiso  ? Al
   Al18       1.0     0.767980     0.769463     0.871355    Uiso  ? Al
   Al19       1.0     0.889463     0.868127     0.576176    Uiso  ? Al
   Al20       1.0     0.448359     0.760484     0.380824    Uiso  ? Al
   Al21       1.0     0.550279     0.871646     0.135456    Uiso  ? Al
   Al22       1.0     0.103822     0.774068     0.813476    Uiso  ? Al
   Al23       1.0     0.772860     0.758447     0.390936    Uiso  ? Al
   Al24       1.0     0.891114     0.880288     0.061399    Uiso  ? Al
   Al25       1.0     0.444187     0.766387     0.886157    Uiso  ? Al
   Al26       1.0     0.554499     0.868851     0.631336    Uiso  ? Al
   Hf1        1.0     0.555546     0.199331     0.111234    Uiso  ? Hf
   Hf2        1.0     0.785363     0.093359     0.350042    Uiso  ? Hf
   Hf3        1.0     0.221006     0.542188     0.121665    Uiso  ? Hf
   Hf4        1.0     0.879239     0.543398     0.110195    Uiso  ? Hf
   Hf5        1.0     0.442595     0.434479     0.845649    Uiso  ? Hf
   Mg1        1.0     0.894943     0.540827     0.626893    Uiso  ? Mg
   Mg2        1.0     0.211729     0.540121     0.611229    Uiso  ? Mg
   Mg3        1.0     0.779481     0.431570     0.357098    Uiso  ? Mg
   Mg4        1.0     0.116123     0.762628     0.345760    Uiso  ? Mg
   Mg5        1.0     0.223323     0.876428     0.574435    Uiso  ? Mg
   N1         1.0     0.228828     0.204779     0.321605    Uiso  ? N
   N2         1.0     0.103179     0.099269     0.120152    Uiso  ? N
   N3         1.0     0.886543     0.204028     0.871569    Uiso  ? N
   N4         1.0     0.777347     0.095803     0.609159    Uiso  ? N
   N5         1.0     0.536803     0.212764     0.325961    Uiso  ? N
   N6         1.0     0.432520     0.082275     0.069261    Uiso  ? N
   N7         1.0     0.226564     0.208119     0.827997    Uiso  ? N
   N8         1.0     0.107487     0.101984     0.634218    Uiso  ? N
   N9         1.0     0.916311     0.197014     0.387078    Uiso  ? N
   N10        1.0     0.795351     0.088145     0.128685    Uiso  ? N
   N11        1.0     0.563692     0.184402     0.836089    Uiso  ? N
   N12        1.0     0.443486     0.091018     0.576768    Uiso  ? N
   N13        1.0     0.234298     0.517790     0.333009    Uiso  ? N
   N14        1.0     0.119910     0.406814     0.069182    Uiso  ? N
   N15        1.0     0.886511     0.541238     0.855853    Uiso  ? N
   N16        1.0     0.779093     0.416244     0.620820    Uiso  ? N
   N17        1.0     0.536353     0.542560     0.330982    Uiso  ? N
   N18        1.0     0.456259     0.434955     0.062078    Uiso  ? N
   N19        1.0     0.202342     0.551236     0.851590    Uiso  ? N
   N20        1.0     0.118319     0.408030     0.570314    Uiso  ? N
   N21        1.0     0.899600     0.551173     0.322688    Uiso  ? N
   N22        1.0     0.767978     0.416324     0.112809    Uiso  ? N
   N23        1.0     0.558531     0.557221     0.820894    Uiso  ? N
   N24        1.0     0.459282     0.417428     0.595883    Uiso  ? N
   N25        1.0     0.236087     0.879336     0.348411    Uiso  ? N
   N26        1.0     0.097553     0.779046     0.119383    Uiso  ? N
   N27        1.0     0.887173     0.879942     0.867723    Uiso  ? N
   N28        1.0     0.765346     0.773438     0.585521    Uiso  ? N
   N29        1.0     0.558622     0.872323     0.325157    Uiso  ? N
   N30        1.0     0.451638     0.756124     0.080239    Uiso  ? N
   N31        1.0     0.219007     0.874645     0.879157    Uiso  ? N
   N32        1.0     0.095749     0.774002     0.625112    Uiso  ? N
   N33        1.0     0.885335     0.864176     0.382723    Uiso  ? N
   N34        1.0     0.758619     0.788429     0.069031    Uiso  ? N
   N35        1.0     0.549569     0.873341     0.823649    Uiso  ? N
   N36        1.0     0.465556     0.751529     0.569580    Uiso  ? N
