
#======================================================================
# CRYSTAL DATA
#----------------------------------------------------------------------
data_VESTA_phase_1

_chemical_name_common                  'Al   Hf   Mg   N                      '
_cell_length_a                         9.835257
_cell_length_b                         9.825476
_cell_length_c                         9.926702
_cell_angle_alpha                      90.084435
_cell_angle_beta                       90.315720
_cell_angle_gamma                      60.058495
_cell_volume                           831.234377
_space_group_name_H-M_alt              'P 1'
_space_group_IT_number                 1

loop_
_space_group_symop_operation_xyz
   'x, y, z'

loop_
   _atom_site_label
   _atom_site_occupancy
   _atom_site_fract_x
   _atom_site_fract_y
   _atom_site_fract_z
   _atom_site_adp_type
   _atom_site_U_iso_or_equiv
   _atom_site_type_symbol
   Al1        1.0     0.121593     0.091118     0.313053    Uiso  ? Al
   Al2        1.0     0.221375     0.193793     0.060291    Uiso  ? Al
   Al3        1.0     0.787095     0.088105     0.801378    Uiso  ? Al
   Al4        1.0     0.901594     0.205856     0.570822    Uiso  ? Al
   Al5        1.0     0.434492     0.089091     0.321304    Uiso  ? Al
   Al6        1.0     0.114086     0.093312     0.814256    Uiso  ? Al
   Al7        1.0     0.217639     0.206426     0.567175    Uiso  ? Al
   Al8        1.0     0.894320     0.201863     0.058219    Uiso  ? Al
   Al9        1.0     0.441010     0.085262     0.806686    Uiso  ? Al
   Al10       1.0     0.553246     0.196687     0.568548    Uiso  ? Al
   Al11       1.0     0.115120     0.418096     0.320541    Uiso  ? Al
   Al12       1.0     0.781015     0.428831     0.803405    Uiso  ? Al
   Al13       1.0     0.437735     0.431003     0.381521    Uiso  ? Al
   Al14       1.0     0.557030     0.537486     0.126075    Uiso  ? Al
   Al15       1.0     0.106643     0.426117     0.807880    Uiso  ? Al
   Al16       1.0     0.562126     0.544462     0.572193    Uiso  ? Al
   Al17       1.0     0.223266     0.875898     0.065445    Uiso  ? Al
   Al18       1.0     0.773446     0.765258     0.812475    Uiso  ? Al
   Al19       1.0     0.887932     0.866724     0.572221    Uiso  ? Al
   Al20       1.0     0.439153     0.770630     0.320324    Uiso  ? Al
   Al21       1.0     0.547821     0.870700     0.062910    Uiso  ? Al
   Al22       1.0     0.103966     0.770332     0.811962    Uiso  ? Al
   Al23       1.0     0.773375     0.768010     0.316753    Uiso  ? Al
   Al24       1.0     0.891103     0.876503     0.058356    Uiso  ? Al
   Al25       1.0     0.447160     0.764614     0.807795    Uiso  ? Al
   Al26       1.0     0.558290     0.870557     0.563775    Uiso  ? Al
   Hf1        1.0     0.561668     0.189112     0.069450    Uiso  ? Hf
   Hf2        1.0     0.785850     0.091876     0.337948    Uiso  ? Hf
   Hf3        1.0     0.220241     0.543721     0.095403    Uiso  ? Hf
   Hf4        1.0     0.879661     0.539856     0.087097    Uiso  ? Hf
   Hf5        1.0     0.442788     0.434017     0.820509    Uiso  ? Hf
   Mg1        1.0     0.890197     0.544918     0.561369    Uiso  ? Mg
   Mg2        1.0     0.202680     0.549509     0.564562    Uiso  ? Mg
   Mg3        1.0     0.784496     0.423232     0.338391    Uiso  ? Mg
   Mg4        1.0     0.114016     0.769322     0.327490    Uiso  ? Mg
   Mg5        1.0     0.221812     0.878294     0.566700    Uiso  ? Mg
   N1         1.0     0.222474     0.204276     0.372621    Uiso  ? N
   N2         1.0     0.109147     0.095388     0.115153    Uiso  ? N
   N3         1.0     0.887611     0.204337     0.864577    Uiso  ? N
   N4         1.0     0.775926     0.097237     0.605843    Uiso  ? N
   N5         1.0     0.539580     0.207810     0.365232    Uiso  ? N
   N6         1.0     0.431489     0.083001     0.126359    Uiso  ? N
   N7         1.0     0.226732     0.203718     0.870822    Uiso  ? N
   N8         1.0     0.108512     0.107964     0.629595    Uiso  ? N
   N9         1.0     0.916948     0.192685     0.381089    Uiso  ? N
   N10        1.0     0.795726     0.087522     0.122672    Uiso  ? N
   N11        1.0     0.566835     0.184036     0.857150    Uiso  ? N
   N12        1.0     0.442458     0.091829     0.616298    Uiso  ? N
   N13        1.0     0.229228     0.525448     0.334794    Uiso  ? N
   N14        1.0     0.119207     0.402220     0.121833    Uiso  ? N
   N15        1.0     0.887255     0.540049     0.868017    Uiso  ? N
   N16        1.0     0.776326     0.421050     0.609961    Uiso  ? N
   N17        1.0     0.540789     0.545090     0.352357    Uiso  ? N
   N18        1.0     0.459572     0.426902     0.070891    Uiso  ? N
   N19        1.0     0.202120     0.550155     0.871591    Uiso  ? N
   N20        1.0     0.117948     0.413541     0.622076    Uiso  ? N
   N21        1.0     0.895884     0.549835     0.337081    Uiso  ? N
   N22        1.0     0.772626     0.410762     0.119335    Uiso  ? N
   N23        1.0     0.564613     0.547166     0.843738    Uiso  ? N
   N24        1.0     0.453486     0.422651     0.592805    Uiso  ? N
   N25        1.0     0.231924     0.883854     0.360186    Uiso  ? N
   N26        1.0     0.100519     0.782703     0.111985    Uiso  ? N
   N27        1.0     0.884294     0.877589     0.867867    Uiso  ? N
   N28        1.0     0.766739     0.778055     0.625078    Uiso  ? N
   N29        1.0     0.557707     0.871954     0.370292    Uiso  ? N
   N30        1.0     0.447164     0.759050     0.122113    Uiso  ? N
   N31        1.0     0.226705     0.871572     0.869706    Uiso  ? N
   N32        1.0     0.095045     0.773733     0.625136    Uiso  ? N
   N33        1.0     0.883792     0.862093     0.381190    Uiso  ? N
   N34        1.0     0.763177     0.789563     0.119310    Uiso  ? N
   N35        1.0     0.553133     0.873985     0.871780    Uiso  ? N
   N36        1.0     0.459860     0.757812     0.617162    Uiso  ? N
