
#======================================================================
# CRYSTAL DATA
#----------------------------------------------------------------------
data_VESTA_phase_1

_chemical_name_common                  'Al   Hf   Mg   N                      '
_cell_length_a                         9.833201
_cell_length_b                         9.805535
_cell_length_c                         10.013324
_cell_angle_alpha                      90.214722
_cell_angle_beta                       90.173386
_cell_angle_gamma                      59.859821
_cell_volume                           834.942396
_space_group_name_H-M_alt              'P 1'
_space_group_IT_number                 1

loop_
_space_group_symop_operation_xyz
   'x, y, z'

loop_
   _atom_site_label
   _atom_site_occupancy
   _atom_site_fract_x
   _atom_site_fract_y
   _atom_site_fract_z
   _atom_site_adp_type
   _atom_site_U_iso_or_equiv
   _atom_site_type_symbol
   Al1        1.0     0.119352     0.095960     0.391295    Uiso  ? Al
   Al2        1.0     0.221440     0.194905     0.141403    Uiso  ? Al
   Al3        1.0     0.786224     0.093259     0.878616    Uiso  ? Al
   Al4        1.0     0.894196     0.208637     0.643746    Uiso  ? Al
   Al5        1.0     0.438644     0.090507     0.392835    Uiso  ? Al
   Al6        1.0     0.115830     0.087511     0.887763    Uiso  ? Al
   Al7        1.0     0.216882     0.205170     0.636379    Uiso  ? Al
   Al8        1.0     0.900916     0.200526     0.134078    Uiso  ? Al
   Al9        1.0     0.436329     0.084129     0.882911    Uiso  ? Al
   Al10       1.0     0.557557     0.192684     0.642591    Uiso  ? Al
   Al11       1.0     0.112772     0.420963     0.396780    Uiso  ? Al
   Al12       1.0     0.778163     0.426538     0.882432    Uiso  ? Al
   Al13       1.0     0.444338     0.430871     0.405148    Uiso  ? Al
   Al14       1.0     0.554689     0.542732     0.143506    Uiso  ? Al
   Al15       1.0     0.109635     0.422305     0.881457    Uiso  ? Al
   Al16       1.0     0.568331     0.541224     0.633970    Uiso  ? Al
   Al17       1.0     0.223749     0.879032     0.145674    Uiso  ? Al
   Al18       1.0     0.768397     0.767432     0.878775    Uiso  ? Al
   Al19       1.0     0.882937     0.870999     0.594183    Uiso  ? Al
   Al20       1.0     0.447684     0.760505     0.388841    Uiso  ? Al
   Al21       1.0     0.549832     0.871641     0.142150    Uiso  ? Al
   Al22       1.0     0.102895     0.771095     0.813076    Uiso  ? Al
   Al23       1.0     0.773479     0.760272     0.396608    Uiso  ? Al
   Al24       1.0     0.897447     0.872621     0.069231    Uiso  ? Al
   Al25       1.0     0.440359     0.767626     0.891237    Uiso  ? Al
   Al26       1.0     0.554691     0.868255     0.637514    Uiso  ? Al
   Hf1        1.0     0.555292     0.199035     0.121724    Uiso  ? Hf
   Hf2        1.0     0.779196     0.103675     0.388823    Uiso  ? Hf
   Hf3        1.0     0.222326     0.544349     0.141288    Uiso  ? Hf
   Hf4        1.0     0.883010     0.543594     0.120742    Uiso  ? Hf
   Hf5        1.0     0.440149     0.435864     0.852462    Uiso  ? Hf
   Mg1        1.0     0.888382     0.535753     0.641642    Uiso  ? Mg
   Mg2        1.0     0.212760     0.535812     0.619178    Uiso  ? Mg
   Mg3        1.0     0.782140     0.429865     0.391900    Uiso  ? Mg
   Mg4        1.0     0.117532     0.766545     0.389889    Uiso  ? Mg
   Mg5        1.0     0.230930     0.877094     0.629616    Uiso  ? Mg
   N1         1.0     0.226221     0.204338     0.329940    Uiso  ? N
   N2         1.0     0.114042     0.093755     0.078510    Uiso  ? N
   N3         1.0     0.892611     0.203921     0.836566    Uiso  ? N
   N4         1.0     0.775020     0.098153     0.600778    Uiso  ? N
   N5         1.0     0.538764     0.212842     0.332196    Uiso  ? N
   N6         1.0     0.432316     0.082883     0.075575    Uiso  ? N
   N7         1.0     0.221133     0.202701     0.830077    Uiso  ? N
   N8         1.0     0.102596     0.108668     0.579081    Uiso  ? N
   N9         1.0     0.912123     0.197699     0.320115    Uiso  ? N
   N10        1.0     0.791335     0.094462     0.079176    Uiso  ? N
   N11        1.0     0.561387     0.184961     0.843173    Uiso  ? N
   N12        1.0     0.443732     0.091430     0.584558    Uiso  ? N
   N13        1.0     0.233508     0.521592     0.350674    Uiso  ? N
   N14        1.0     0.124115     0.407408     0.076848    Uiso  ? N
   N15        1.0     0.886639     0.540642     0.863689    Uiso  ? N
   N16        1.0     0.775677     0.416099     0.594419    Uiso  ? N
   N17        1.0     0.539877     0.541411     0.331124    Uiso  ? N
   N18        1.0     0.453785     0.435091     0.069373    Uiso  ? N
   N19        1.0     0.201006     0.548605     0.846691    Uiso  ? N
   N20        1.0     0.113562     0.409773     0.580365    Uiso  ? N
   N21        1.0     0.898086     0.549434     0.328323    Uiso  ? N
   N22        1.0     0.767353     0.418175     0.079425    Uiso  ? N
   N23        1.0     0.563282     0.554102     0.829170    Uiso  ? N
   N24        1.0     0.460854     0.416593     0.605955    Uiso  ? N
   N25        1.0     0.236848     0.883810     0.335155    Uiso  ? N
   N26        1.0     0.104236     0.778802     0.117432    Uiso  ? N
   N27        1.0     0.888754     0.872712     0.867234    Uiso  ? N
   N28        1.0     0.765681     0.770919     0.590011    Uiso  ? N
   N29        1.0     0.557689     0.872324     0.331630    Uiso  ? N
   N30        1.0     0.447978     0.758608     0.084616    Uiso  ? N
   N31        1.0     0.225622     0.870659     0.842163    Uiso  ? N
   N32        1.0     0.095619     0.772618     0.618826    Uiso  ? N
   N33        1.0     0.879708     0.871256     0.378283    Uiso  ? N
   N34        1.0     0.760776     0.786546     0.076696    Uiso  ? N
   N35        1.0     0.550465     0.871933     0.830005    Uiso  ? N
   N36        1.0     0.464194     0.750592     0.575557    Uiso  ? N
