# generated using pymatgen
data_Gd5Al31N36
_symmetry_space_group_name_H-M   'P 1'
_cell_length_a   9.74652385
_cell_length_b   9.71784502
_cell_length_c   10.39187865
_cell_angle_alpha   89.77706560
_cell_angle_beta   89.52788534
_cell_angle_gamma   60.27002880
_symmetry_Int_Tables_number   1
_chemical_formula_structural   Gd5Al31N36
_chemical_formula_sum   'Gd5 Al31 N36'
_cell_volume   854.68277871
_cell_formula_units_Z   1
loop_
 _symmetry_equiv_pos_site_id
 _symmetry_equiv_pos_as_xyz
  1  'x, y, z'
loop_
 _atom_site_type_symbol
 _atom_site_label
 _atom_site_symmetry_multiplicity
 _atom_site_fract_x
 _atom_site_fract_y
 _atom_site_fract_z
 _atom_site_occupancy
  Al  Al0  1  0.11741876  0.09496775  0.30988348  1
  Al  Al1  1  0.22152250  0.20265804  0.06047302  1
  Al  Al2  1  0.77822093  0.09343152  0.81980961  1
  Al  Al3  1  0.43690518  0.10039863  0.30349943  1
  Al  Al4  1  0.55618652  0.19880504  0.06005143  1
  Al  Al5  1  0.12189819  0.08666876  0.81513195  1
  Al  Al6  1  0.23330402  0.19858041  0.56213691  1
  Al  Al7  1  0.76007441  0.10504834  0.32081622  1
  Al  Al8  1  0.89392805  0.20311761  0.12951669  1
  Al  Al9  1  0.45112159  0.09606826  0.81039813  1
  Al  Al10  1  0.54151122  0.21038693  0.55371656  1
  Al  Al11  1  0.11104152  0.42314554  0.31746953  1
  Al  Al12  1  0.79878994  0.40971983  0.87857588  1
  Al  Al13  1  0.87073785  0.54600454  0.62515509  1
  Al  Al14  1  0.43361293  0.42407159  0.31290722  1
  Al  Al15  1  0.11740292  0.42050479  0.79713600  1
  Al  Al16  1  0.22768661  0.53395056  0.56304190  1
  Al  Al17  1  0.77348487  0.43816428  0.36949987  1
  Al  Al18  1  0.89302939  0.53283034  0.13043800  1
  Al  Al19  1  0.45641337  0.41638525  0.79722924  1
  Al  Al20  1  0.54189146  0.54488758  0.54076140  1
  Al  Al21  1  0.11139507  0.76593459  0.31809274  1
  Al  Al22  1  0.20900422  0.88833521  0.06659336  1
  Al  Al23  1  0.79292653  0.75910688  0.88496939  1
  Al  Al24  1  0.43150894  0.77795191  0.30908822  1
  Al  Al25  1  0.54996048  0.88551953  0.06357840  1
  Al  Al26  1  0.12014604  0.75838891  0.80315437  1
  Al  Al27  1  0.23725569  0.86672705  0.55443235  1
  Al  Al28  1  0.76907101  0.75625602  0.37055433  1
  Al  Al29  1  0.88080197  0.87668401  0.13852081  1
  Al  Al30  1  0.54152353  0.88068902  0.54508415  1
  Gd  Gd31  1  0.90057506  0.20672141  0.59082876  1
  Gd  Gd32  1  0.21018403  0.54577865  0.05519510  1
  Gd  Gd33  1  0.56081641  0.53572297  0.08643648  1
  Gd  Gd34  1  0.89171792  0.86278224  0.59075190  1
  Gd  Gd35  1  0.45147344  0.75862669  0.80400683  1
  N  N36  1  0.22079666  0.20502886  0.37514007  1
  N  N37  1  0.11566525  0.09643855  0.12593334  1
  N  N38  1  0.89777719  0.19899110  0.82258577  1
  N  N39  1  0.74480732  0.11302521  0.60490665  1
  N  N40  1  0.54214938  0.20860677  0.36998020  1
  N  N41  1  0.44157791  0.09817689  0.11910037  1
  N  N42  1  0.22576393  0.20573996  0.87178337  1
  N  N43  1  0.16398249  0.06459566  0.63273486  1
  N  N44  1  0.88393546  0.21289662  0.32967138  1
  N  N45  1  0.76858968  0.09987805  0.12444481  1
  N  N46  1  0.55860785  0.20417718  0.87040478  1
  N  N47  1  0.44682185  0.09337797  0.62070957  1
  N  N48  1  0.21341524  0.54322116  0.37193481  1
  N  N49  1  0.11218547  0.40547671  0.13403672  1
  N  N50  1  0.88374433  0.54233253  0.81392183  1
  N  N51  1  0.76007622  0.45679431  0.55052358  1
  N  N52  1  0.54168696  0.54549026  0.34660087  1
  N  N53  1  0.44602754  0.39849529  0.13474533  1
  N  N54  1  0.22848781  0.53119744  0.83799635  1
  N  N55  1  0.10977556  0.42253148  0.61092476  1
  N  N56  1  0.87864798  0.54475282  0.31352458  1
  N  N57  1  0.82051334  0.40463569  0.06216777  1
  N  N58  1  0.57334664  0.50647349  0.86423766  1
  N  N59  1  0.44586690  0.42540308  0.60800625  1
  N  N60  1  0.21382503  0.88131677  0.37178942  1
  N  N61  1  0.10032572  0.79060270  0.13831242  1
  N  N62  1  0.89549977  0.86703210  0.82435759  1
  N  N63  1  0.75899223  0.74517002  0.55352137  1
  N  N64  1  0.54210781  0.88554431  0.35859035  1
  N  N65  1  0.42466574  0.79792181  0.12349277  1
  N  N66  1  0.20066723  0.87877921  0.88502855  1
  N  N67  1  0.15528623  0.74363137  0.62071040  1
  N  N68  1  0.87780965  0.87428451  0.33682976  1
  N  N69  1  0.79095530  0.75261678  0.07492072  1
  N  N70  1  0.56874466  0.88907421  0.88006839  1
  N  N71  1  0.45119708  0.75639022  0.58693097  1
