# generated using pymatgen
data_Gd5Al31N36
_symmetry_space_group_name_H-M   'P 1'
_cell_length_a   9.69166034
_cell_length_b   9.69040271
_cell_length_c   10.29508051
_cell_angle_alpha   89.59655202
_cell_angle_beta   89.68734765
_cell_angle_gamma   59.85673195
_symmetry_Int_Tables_number   1
_chemical_formula_structural   Gd5Al31N36
_chemical_formula_sum   'Gd5 Al31 N36'
_cell_volume   836.10296632
_cell_formula_units_Z   1
loop_
 _symmetry_equiv_pos_site_id
 _symmetry_equiv_pos_as_xyz
  1  'x, y, z'
loop_
 _atom_site_type_symbol
 _atom_site_label
 _atom_site_symmetry_multiplicity
 _atom_site_fract_x
 _atom_site_fract_y
 _atom_site_fract_z
 _atom_site_occupancy
  Al  Al0  1  0.11808060  0.09414489  0.40048278  1
  Al  Al1  1  0.22281435  0.20132538  0.15440909  1
  Al  Al2  1  0.77350955  0.09681412  0.92512708  1
  Al  Al3  1  0.44275274  0.09808179  0.40591231  1
  Al  Al4  1  0.55515132  0.19841324  0.15662003  1
  Al  Al5  1  0.10620780  0.09811490  0.91721592  1
  Al  Al6  1  0.22965043  0.20087549  0.65542502  1
  Al  Al7  1  0.77181728  0.09785375  0.39560062  1
  Al  Al8  1  0.89448287  0.20292363  0.15663989  1
  Al  Al9  1  0.44928867  0.09642955  0.90533653  1
  Al  Al10  1  0.54962995  0.20439278  0.65618278  1
  Al  Al11  1  0.11104977  0.42590726  0.41475833  1
  Al  Al12  1  0.78315505  0.42325295  0.91209468  1
  Al  Al13  1  0.88326178  0.54111532  0.65718469  1
  Al  Al14  1  0.44318166  0.42421723  0.42387370  1
  Al  Al15  1  0.10733613  0.42386931  0.89969797  1
  Al  Al16  1  0.22476327  0.53752633  0.65821091  1
  Al  Al17  1  0.78132971  0.42940451  0.41234118  1
  Al  Al18  1  0.89202104  0.53183313  0.15719885  1
  Al  Al19  1  0.45152407  0.41474674  0.89396313  1
  Al  Al20  1  0.55830007  0.53451997  0.64966392  1
  Al  Al21  1  0.11710599  0.75865478  0.40932714  1
  Al  Al22  1  0.21870119  0.88317973  0.16410956  1
  Al  Al23  1  0.77915840  0.76228155  0.91733318  1
  Al  Al24  1  0.44280258  0.76559052  0.41969304  1
  Al  Al25  1  0.55202920  0.87886801  0.16294868  1
  Al  Al26  1  0.10137976  0.77386629  0.91168370  1
  Al  Al27  1  0.22358720  0.87390924  0.64944588  1
  Al  Al28  1  0.77681908  0.75690637  0.40018736  1
  Al  Al29  1  0.88745946  0.87598621  0.15816373  1
  Al  Al30  1  0.55667011  0.87590426  0.65004464  1
  Gd  Gd31  1  0.89478587  0.19956432  0.66088794  1
  Gd  Gd32  1  0.21769434  0.53422935  0.15165715  1
  Gd  Gd33  1  0.55441620  0.53621038  0.16613302  1
  Gd  Gd34  1  0.88422424  0.86759688  0.65938828  1
  Gd  Gd35  1  0.43945019  0.76726031  0.88898624  1
  N  N36  1  0.22373591  0.20969573  0.34344589  1
  N  N37  1  0.11348909  0.09459155  0.10437608  1
  N  N38  1  0.88735612  0.20377969  0.88002432  1
  N  N39  1  0.74871181  0.10804172  0.57645708  1
  N  N40  1  0.54824945  0.21204310  0.34348333  1
  N  N41  1  0.44539707  0.09301143  0.09593782  1
  N  N42  1  0.22468001  0.19968827  0.84544250  1
  N  N43  1  0.14333158  0.08207254  0.58194388  1
  N  N44  1  0.89049242  0.20722066  0.34965368  1
  N  N45  1  0.77486506  0.09615392  0.11233898  1
  N  N46  1  0.56188155  0.19760352  0.84304170  1
  N  N47  1  0.44383119  0.09674480  0.59365449  1
  N  N48  1  0.22455582  0.53476793  0.37112132  1
  N  N49  1  0.09748553  0.40933011  0.08319314  1
  N  N50  1  0.88460494  0.54322074  0.84624480  1
  N  N51  1  0.77243116  0.44562109  0.59393941  1
  N  N52  1  0.55274116  0.53988091  0.38453784  1
  N  N53  1  0.45967897  0.39641568  0.07492042  1
  N  N54  1  0.21773171  0.54385917  0.85184208  1
  N  N55  1  0.10875211  0.42718563  0.60449760  1
  N  N56  1  0.89353140  0.53506652  0.34505097  1
  N  N57  1  0.79857240  0.41764139  0.09630952  1
  N  N58  1  0.57464191  0.50766487  0.83878180  1
  N  N59  1  0.44324527  0.42339266  0.60900098  1
  N  N60  1  0.22507317  0.87070645  0.35073731  1
  N  N61  1  0.10190865  0.79140096  0.09608694  1
  N  N62  1  0.88307135  0.87645810  0.87920258  1
  N  N63  1  0.76398492  0.74598505  0.58252254  1
  N  N64  1  0.55271256  0.87535473  0.35108379  1
  N  N65  1  0.43062660  0.79000021  0.10609388  1
  N  N66  1  0.18076036  0.89764104  0.83215477  1
  N  N67  1  0.13777391  0.74909531  0.59149990  1
  N  N68  1  0.89204438  0.86842924  0.34995644  1
  N  N69  1  0.77712036  0.75782877  0.10645841  1
  N  N70  1  0.57651956  0.88701763  0.83531739  1
  N  N71  1  0.44535398  0.76301856  0.61267155  1
