# generated using pymatgen
data_Gd5Al31N36
_symmetry_space_group_name_H-M   'P 1'
_cell_length_a   9.69179570
_cell_length_b   9.70717719
_cell_length_c   10.51321365
_cell_angle_alpha   89.55657036
_cell_angle_beta   89.26969469
_cell_angle_gamma   60.02995536
_symmetry_Int_Tables_number   1
_chemical_formula_structural   Gd5Al31N36
_chemical_formula_sum   'Gd5 Al31 N36'
_cell_volume   856.75868917
_cell_formula_units_Z   1
loop_
 _symmetry_equiv_pos_site_id
 _symmetry_equiv_pos_as_xyz
  1  'x, y, z'
loop_
 _atom_site_type_symbol
 _atom_site_label
 _atom_site_symmetry_multiplicity
 _atom_site_fract_x
 _atom_site_fract_y
 _atom_site_fract_z
 _atom_site_occupancy
  Al  Al0  1  0.11186783  0.09802593  0.30796635  1
  Al  Al1  1  0.22088984  0.20415640  0.05579826  1
  Al  Al2  1  0.79596308  0.08204178  0.89379031  1
  Al  Al3  1  0.43364338  0.10226251  0.30075775  1
  Al  Al4  1  0.54996265  0.20170635  0.05902666  1
  Al  Al5  1  0.12729244  0.08158710  0.81698377  1
  Al  Al6  1  0.23157714  0.19505419  0.56277996  1
  Al  Al7  1  0.76469167  0.10178418  0.36823875  1
  Al  Al8  1  0.89127451  0.20272053  0.12869947  1
  Al  Al9  1  0.45700507  0.09193225  0.80992042  1
  Al  Al10  1  0.53583988  0.21271508  0.54723559  1
  Al  Al11  1  0.10647713  0.43008581  0.35126312  1
  Al  Al12  1  0.80247169  0.40924404  0.88745453  1
  Al  Al13  1  0.87192323  0.54501505  0.62213693  1
  Al  Al14  1  0.43180698  0.42541698  0.31105039  1
  Al  Al15  1  0.11991803  0.41738823  0.79948528  1
  Al  Al16  1  0.22777512  0.53926107  0.56762206  1
  Al  Al17  1  0.77646381  0.43195138  0.36727289  1
  Al  Al18  1  0.89815312  0.53164626  0.13418345  1
  Al  Al19  1  0.46276715  0.41062514  0.79705317  1
  Al  Al20  1  0.54189738  0.54689637  0.53550082  1
  Al  Al21  1  0.10654740  0.77076712  0.31805252  1
  Al  Al22  1  0.21004410  0.88942272  0.06801486  1
  Al  Al23  1  0.79693739  0.75242787  0.89412119  1
  Al  Al24  1  0.42929778  0.77979868  0.30870226  1
  Al  Al25  1  0.55047764  0.88481362  0.06489020  1
  Al  Al26  1  0.12544312  0.75520504  0.80480564  1
  Al  Al27  1  0.22855858  0.87149967  0.55291697  1
  Al  Al28  1  0.77115767  0.75893999  0.36959227  1
  Al  Al29  1  0.87858319  0.88084428  0.13961909  1
  Al  Al30  1  0.54079445  0.87865961  0.54060470  1
  Gd  Gd31  1  0.88142744  0.21529339  0.62132133  1
  Gd  Gd32  1  0.21312620  0.55040848  0.05058787  1
  Gd  Gd33  1  0.55805477  0.53907778  0.08662748  1
  Gd  Gd34  1  0.87339614  0.87238557  0.62117865  1
  Gd  Gd35  1  0.45925903  0.75342751  0.80119177  1
  N  N36  1  0.21732538  0.20513507  0.37697415  1
  N  N37  1  0.11590488  0.09851820  0.12455010  1
  N  N38  1  0.90122173  0.19371334  0.83842618  1
  N  N39  1  0.75332822  0.10876145  0.54635290  1
  N  N40  1  0.53260584  0.21247164  0.36548290  1
  N  N41  1  0.44070046  0.09796340  0.11824430  1
  N  N42  1  0.23109403  0.19891530  0.86656537  1
  N  N43  1  0.15111869  0.07032217  0.63202879  1
  N  N44  1  0.87757230  0.21191217  0.31723362  1
  N  N45  1  0.77932471  0.09333211  0.07695556  1
  N  N46  1  0.56126219  0.20086436  0.86915549  1
  N  N47  1  0.45046938  0.08944446  0.62073963  1
  N  N48  1  0.21320176  0.54876230  0.37802839  1
  N  N49  1  0.11149111  0.41173893  0.10985043  1
  N  N50  1  0.88556385  0.53926971  0.81113028  1
  N  N51  1  0.76296483  0.45489091  0.54613324  1
  N  N52  1  0.54113094  0.54651464  0.34602847  1
  N  N53  1  0.44788224  0.39793751  0.13564810  1
  N  N54  1  0.23247555  0.52785330  0.83237072  1
  N  N55  1  0.10990528  0.42340519  0.60320989  1
  N  N56  1  0.88393207  0.54195519  0.31622673  1
  N  N57  1  0.81782940  0.40861545  0.06736407  1
  N  N58  1  0.57743330  0.50266145  0.86544319  1
  N  N59  1  0.45115778  0.42401494  0.60916207  1
  N  N60  1  0.21042787  0.88436121  0.37241051  1
  N  N61  1  0.10109228  0.79265950  0.14003660  1
  N  N62  1  0.90063336  0.86353545  0.83998259  1
  N  N63  1  0.76152399  0.74497268  0.55034785  1
  N  N64  1  0.54088487  0.88617993  0.35818400  1
  N  N65  1  0.42423196  0.79999951  0.12634492  1
  N  N66  1  0.20817248  0.87303467  0.88589272  1
  N  N67  1  0.14211274  0.75185138  0.62189131  1
  N  N68  1  0.87237196  0.87902245  0.32682846  1
  N  N69  1  0.78892782  0.75250873  0.07945720  1
  N  N70  1  0.57253085  0.88487737  0.88164790  1
  N  N71  1  0.44622521  0.75831410  0.58599608  1
