# generated using pymatgen
data_Gd5Al31N36
_symmetry_space_group_name_H-M   'P 1'
_cell_length_a   9.70148774
_cell_length_b   9.72198145
_cell_length_c   10.57310730
_cell_angle_alpha   89.57091693
_cell_angle_beta   89.72533157
_cell_angle_gamma   59.71642971
_symmetry_Int_Tables_number   1
_chemical_formula_structural   Gd5Al31N36
_chemical_formula_sum   'Gd5 Al31 N36'
_cell_volume   861.12429376
_cell_formula_units_Z   1
loop_
 _symmetry_equiv_pos_site_id
 _symmetry_equiv_pos_as_xyz
  1  'x, y, z'
loop_
 _atom_site_type_symbol
 _atom_site_label
 _atom_site_symmetry_multiplicity
 _atom_site_fract_x
 _atom_site_fract_y
 _atom_site_fract_z
 _atom_site_occupancy
  Al  Al0  1  0.11072375  0.10285282  0.39367715  1
  Al  Al1  1  0.21382714  0.20501810  0.15004402  1
  Al  Al2  1  0.77885705  0.09521530  0.91808464  1
  Al  Al3  1  0.44135625  0.09551344  0.32955844  1
  Al  Al4  1  0.56078245  0.19485791  0.15091481  1
  Al  Al5  1  0.10792317  0.10448946  0.91446099  1
  Al  Al6  1  0.22550833  0.20354501  0.65146689  1
  Al  Al7  1  0.77135257  0.09845093  0.39274942  1
  Al  Al8  1  0.89803833  0.19687732  0.15531519  1
  Al  Al9  1  0.45306627  0.09339065  0.83963129  1
  Al  Al10  1  0.55276115  0.21119074  0.64681202  1
  Al  Al11  1  0.10851456  0.42623260  0.41431970  1
  Al  Al12  1  0.79068468  0.41934932  0.91598046  1
  Al  Al13  1  0.87974356  0.54427620  0.64953125  1
  Al  Al14  1  0.43826607  0.42000510  0.40796023  1
  Al  Al15  1  0.10898763  0.42459005  0.89339064  1
  Al  Al16  1  0.22695344  0.53871814  0.65127249  1
  Al  Al17  1  0.78513096  0.42838135  0.39286555  1
  Al  Al18  1  0.89461204  0.52992851  0.15331550  1
  Al  Al19  1  0.45023758  0.41337793  0.89713137  1
  Al  Al20  1  0.54903118  0.55131031  0.56353736  1
  Al  Al21  1  0.10970730  0.75695921  0.40319766  1
  Al  Al22  1  0.22071319  0.87895115  0.08774272  1
  Al  Al23  1  0.78972774  0.75782707  0.92029674  1
  Al  Al24  1  0.43326818  0.77775854  0.32895278  1
  Al  Al25  1  0.55116899  0.88231999  0.09084856  1
  Al  Al26  1  0.10627420  0.76326077  0.91218612  1
  Al  Al27  1  0.23477637  0.86917997  0.56419676  1
  Al  Al28  1  0.78113622  0.75514926  0.39264512  1
  Al  Al29  1  0.88813493  0.87350376  0.15713041  1
  Al  Al30  1  0.54466741  0.88133490  0.56342582  1
  Gd  Gd31  1  0.88761154  0.21106047  0.65365652  1
  Gd  Gd32  1  0.21311523  0.52763915  0.15537262  1
  Gd  Gd33  1  0.55554793  0.52634575  0.12864313  1
  Gd  Gd34  1  0.88155241  0.87053140  0.65535021  1
  Gd  Gd35  1  0.45402726  0.75892715  0.82729103  1
  N  N36  1  0.21199263  0.21806484  0.33740067  1
  N  N37  1  0.11035953  0.09853679  0.09922033  1
  N  N38  1  0.89203404  0.20275591  0.86850227  1
  N  N39  1  0.75129412  0.10976983  0.56856509  1
  N  N40  1  0.55290872  0.21302926  0.33555352  1
  N  N41  1  0.44260944  0.09151041  0.14600122  1
  N  N42  1  0.22007507  0.20437749  0.83852513  1
  N  N43  1  0.13658712  0.09162886  0.57581661  1
  N  N44  1  0.88830635  0.20641959  0.34123393  1
  N  N45  1  0.77833026  0.09289390  0.10231565  1
  N  N46  1  0.56942984  0.20222030  0.83222811  1
  N  N47  1  0.45063094  0.08806417  0.63727060  1
  N  N48  1  0.21901689  0.53475398  0.36864939  1
  N  N49  1  0.09612393  0.40875592  0.07230030  1
  N  N50  1  0.88234133  0.54438228  0.83848229  1
  N  N51  1  0.77068967  0.45151218  0.57295733  1
  N  N52  1  0.54802856  0.54361603  0.37135302  1
  N  N53  1  0.44576519  0.38547150  0.07163658  1
  N  N54  1  0.22139833  0.54053932  0.84117859  1
  N  N55  1  0.10829286  0.42797918  0.59911086  1
  N  N56  1  0.89546648  0.53613438  0.33669443  1
  N  N57  1  0.81032441  0.40800344  0.09774952  1
  N  N58  1  0.57150660  0.51362870  0.89554777  1
  N  N59  1  0.44448014  0.42738520  0.59073827  1
  N  N60  1  0.21791881  0.87513325  0.37951414  1
  N  N61  1  0.09905114  0.77884768  0.09606782  1
  N  N62  1  0.88820870  0.87386121  0.87007708  1
  N  N63  1  0.76891350  0.74613069  0.57413703  1
  N  N64  1  0.54802440  0.88071121  0.38194494  1
  N  N65  1  0.42973371  0.79156928  0.14816286  1
  N  N66  1  0.20770736  0.88274711  0.90022771  1
  N  N67  1  0.13300230  0.74986033  0.58590796  1
  N  N68  1  0.88811849  0.87144141  0.34339187  1
  N  N69  1  0.78774438  0.75129746  0.10470790  1
  N  N70  1  0.56639882  0.89174744  0.91084536  1
  N  N71  1  0.44647318  0.76318161  0.61145369  1
