# generated using pymatgen
data_Gd5Al31N36
_symmetry_space_group_name_H-M   'P 1'
_cell_length_a   9.68818853
_cell_length_b   9.71003751
_cell_length_c   10.54541118
_cell_angle_alpha   89.48475954
_cell_angle_beta   89.09822565
_cell_angle_gamma   60.00446449
_symmetry_Int_Tables_number   1
_chemical_formula_structural   Gd5Al31N36
_chemical_formula_sum   'Gd5 Al31 N36'
_cell_volume   859.05904745
_cell_formula_units_Z   1
loop_
 _symmetry_equiv_pos_site_id
 _symmetry_equiv_pos_as_xyz
  1  'x, y, z'
loop_
 _atom_site_type_symbol
 _atom_site_label
 _atom_site_symmetry_multiplicity
 _atom_site_fract_x
 _atom_site_fract_y
 _atom_site_fract_z
 _atom_site_occupancy
  Al  Al0  1  0.11228448  0.09834902  0.31413317  1
  Al  Al1  1  0.22488357  0.19700743  0.05882694  1
  Al  Al2  1  0.79544602  0.08192173  0.89861872  1
  Al  Al3  1  0.43430577  0.10189069  0.30714344  1
  Al  Al4  1  0.54984309  0.20159495  0.06352660  1
  Al  Al5  1  0.12716757  0.08016571  0.82101354  1
  Al  Al6  1  0.23157624  0.19516326  0.56799060  1
  Al  Al7  1  0.76481246  0.10163308  0.37494422  1
  Al  Al8  1  0.88990769  0.20251772  0.13522364  1
  Al  Al9  1  0.45693858  0.09083453  0.81408261  1
  Al  Al10  1  0.53594951  0.21268736  0.55347466  1
  Al  Al11  1  0.10212096  0.43338392  0.39034517  1
  Al  Al12  1  0.79974041  0.40867446  0.89292041  1
  Al  Al13  1  0.87877111  0.54197851  0.62840951  1
  Al  Al14  1  0.43367907  0.42493297  0.31767000  1
  Al  Al15  1  0.11112649  0.41919895  0.86874088  1
  Al  Al16  1  0.22797198  0.54020769  0.57153321  1
  Al  Al17  1  0.77923492  0.43157981  0.37115906  1
  Al  Al18  1  0.89998880  0.53050274  0.13392892  1
  Al  Al19  1  0.45923028  0.41133485  0.80404269  1
  Al  Al20  1  0.54371991  0.54663134  0.54071798  1
  Al  Al21  1  0.10625385  0.77297846  0.32318168  1
  Al  Al22  1  0.20919556  0.89237953  0.07314825  1
  Al  Al23  1  0.79578513  0.75337814  0.89891424  1
  Al  Al24  1  0.42978727  0.77996201  0.31457900  1
  Al  Al25  1  0.55040232  0.88490933  0.07015658  1
  Al  Al26  1  0.12501172  0.75324337  0.81190643  1
  Al  Al27  1  0.22906808  0.87116857  0.55871015  1
  Al  Al28  1  0.77396454  0.75636840  0.37376263  1
  Al  Al29  1  0.87668425  0.88279251  0.14536111  1
  Al  Al30  1  0.54281729  0.87733280  0.54532642  1
  Gd  Gd31  1  0.88043372  0.21649063  0.62704049  1
  Gd  Gd32  1  0.21658953  0.55582741  0.06356301  1
  Gd  Gd33  1  0.55724453  0.53971352  0.09266916  1
  Gd  Gd34  1  0.87462828  0.87120798  0.62624936  1
  Gd  Gd35  1  0.45855640  0.75322322  0.80629509  1
  N  N36  1  0.21908408  0.20365594  0.37945094  1
  N  N37  1  0.11494396  0.10119174  0.13147681  1
  N  N38  1  0.90073998  0.19364822  0.84360266  1
  N  N39  1  0.75385861  0.10830591  0.55247589  1
  N  N40  1  0.53308054  0.21228411  0.37219513  1
  N  N41  1  0.44006803  0.09881855  0.12453078  1
  N  N42  1  0.23651031  0.18803379  0.87216113  1
  N  N43  1  0.15018426  0.07088483  0.63675368  1
  N  N44  1  0.87758970  0.21125418  0.32266548  1
  N  N45  1  0.77856718  0.09377488  0.08136721  1
  N  N46  1  0.56023218  0.20049201  0.87458236  1
  N  N47  1  0.45047874  0.08904712  0.62569062  1
  N  N48  1  0.21505145  0.55118104  0.37844691  1
  N  N49  1  0.09857613  0.41858924  0.05643381  1
  N  N50  1  0.88717616  0.53665635  0.81684872  1
  N  N51  1  0.76535582  0.45537139  0.54994750  1
  N  N52  1  0.54324839  0.54638276  0.35126439  1
  N  N53  1  0.44964885  0.39558829  0.14298272  1
  N  N54  1  0.23165836  0.52821998  0.84570729  1
  N  N55  1  0.10401449  0.42949048  0.57747456  1
  N  N56  1  0.89335137  0.53699928  0.31537255  1
  N  N57  1  0.81504458  0.40828756  0.07383608  1
  N  N58  1  0.57539549  0.50277566  0.87182973  1
  N  N59  1  0.45033746  0.42451530  0.61554066  1
  N  N60  1  0.21072282  0.88472717  0.37869195  1
  N  N61  1  0.09797370  0.79921762  0.14608912  1
  N  N62  1  0.89938262  0.86395836  0.84436727  1
  N  N63  1  0.76396039  0.74275258  0.55466055  1
  N  N64  1  0.54319800  0.88450700  0.36316689  1
  N  N65  1  0.42320038  0.80118988  0.13227640  1
  N  N66  1  0.20726463  0.87255077  0.89180294  1
  N  N67  1  0.14385538  0.75044839  0.62918688  1
  N  N68  1  0.87204487  0.87943819  0.33205508  1
  N  N69  1  0.78829048  0.75351293  0.08422807  1
  N  N70  1  0.57221581  0.88398058  0.88709435  1
  N  N71  1  0.44699219  0.75815936  0.59138781  1
