# generated using pymatgen
data_Gd5Al31N36
_symmetry_space_group_name_H-M   'P 1'
_cell_length_a   9.71340207
_cell_length_b   9.74351621
_cell_length_c   10.55310994
_cell_angle_alpha   89.67391278
_cell_angle_beta   89.61081354
_cell_angle_gamma   60.11936149
_symmetry_Int_Tables_number   1
_chemical_formula_structural   Gd5Al31N36
_chemical_formula_sum   'Gd5 Al31 N36'
_cell_volume   865.97970524
_cell_formula_units_Z   1
loop_
 _symmetry_equiv_pos_site_id
 _symmetry_equiv_pos_as_xyz
  1  'x, y, z'
loop_
 _atom_site_type_symbol
 _atom_site_label
 _atom_site_symmetry_multiplicity
 _atom_site_fract_x
 _atom_site_fract_y
 _atom_site_fract_z
 _atom_site_occupancy
  Al  Al0  1  0.11127667  0.10089249  0.39863603  1
  Al  Al1  1  0.21547891  0.20900811  0.15276039  1
  Al  Al2  1  0.78307990  0.08698746  0.91715767  1
  Al  Al3  1  0.44095086  0.09302704  0.32991339  1
  Al  Al4  1  0.56433163  0.19335364  0.15628915  1
  Al  Al5  1  0.11015095  0.09845050  0.91655127  1
  Al  Al6  1  0.22548590  0.20212745  0.65028290  1
  Al  Al7  1  0.76617347  0.10243896  0.39677585  1
  Al  Al8  1  0.89962185  0.19546474  0.15590310  1
  Al  Al9  1  0.45610694  0.08538373  0.83290759  1
  Al  Al10  1  0.55145591  0.21139514  0.64500280  1
  Al  Al11  1  0.11119609  0.43155253  0.40528803  1
  Al  Al12  1  0.79801372  0.41099535  0.91720273  1
  Al  Al13  1  0.87922405  0.54051264  0.64753367  1
  Al  Al14  1  0.43278309  0.42824158  0.33999302  1
  Al  Al15  1  0.10850528  0.41358461  0.89410757  1
  Al  Al16  1  0.23040663  0.53110415  0.65418528  1
  Al  Al17  1  0.78468457  0.42652550  0.39208104  1
  Al  Al18  1  0.89946315  0.52865531  0.15537201  1
  Al  Al19  1  0.45983538  0.41190979  0.86469734  1
  Al  Al20  1  0.54407899  0.54365583  0.55964825  1
  Al  Al21  1  0.10590520  0.76992011  0.33519121  1
  Al  Al22  1  0.21447655  0.88621947  0.09583638  1
  Al  Al23  1  0.79339372  0.75410717  0.91678589  1
  Al  Al24  1  0.43093492  0.77835829  0.33434943  1
  Al  Al25  1  0.54818836  0.88671282  0.08845025  1
  Al  Al26  1  0.11634681  0.76609174  0.83833652  1
  Al  Al27  1  0.23216544  0.86284990  0.57151743  1
  Al  Al28  1  0.77574434  0.75353187  0.39544567  1
  Al  Al29  1  0.87363199  0.88385426  0.16400413  1
  Al  Al30  1  0.54217104  0.87730737  0.56619944  1
  Gd  Gd31  1  0.88766697  0.21223983  0.65477631  1
  Gd  Gd32  1  0.20454052  0.55744003  0.10082482  1
  Gd  Gd33  1  0.56140763  0.54338036  0.11868351  1
  Gd  Gd34  1  0.87714004  0.87141252  0.63995229  1
  Gd  Gd35  1  0.45354971  0.75412628  0.82526108  1
  N  N36  1  0.21240727  0.21590641  0.33972915  1
  N  N37  1  0.11117120  0.10396712  0.09828315  1
  N  N38  1  0.89532603  0.19599422  0.86967386  1
  N  N39  1  0.74921013  0.11523482  0.57187364  1
  N  N40  1  0.55396101  0.20483044  0.34206757  1
  N  N41  1  0.44409569  0.09359692  0.14443909  1
  N  N42  1  0.22080226  0.19805705  0.83739514  1
  N  N43  1  0.13759604  0.08761619  0.57996133  1
  N  N44  1  0.88939079  0.20359512  0.34237680  1
  N  N45  1  0.77579279  0.09383086  0.09967869  1
  N  N46  1  0.57211105  0.19482115  0.83891129  1
  N  N47  1  0.45321477  0.08221930  0.64463858  1
  N  N48  1  0.21059749  0.54526861  0.34948502  1
  N  N49  1  0.09929895  0.40861504  0.07506692  1
  N  N50  1  0.88629710  0.53670111  0.83782302  1
  N  N51  1  0.76750893  0.44956646  0.57181294  1
  N  N52  1  0.54783961  0.54305483  0.36811734  1
  N  N53  1  0.45008171  0.40275413  0.13303493  1
  N  N54  1  0.22748555  0.52744843  0.85670499  1
  N  N55  1  0.11011146  0.42846149  0.59608656  1
  N  N56  1  0.89265793  0.53691646  0.33739096  1
  N  N57  1  0.81684238  0.40491084  0.09816331  1
  N  N58  1  0.57645923  0.50838471  0.89715702  1
  N  N59  1  0.44564308  0.42927390  0.62016201  1
  N  N60  1  0.21655827  0.87107960  0.39182090  1
  N  N61  1  0.08932946  0.80985348  0.15990938  1
  N  N62  1  0.89295282  0.86787878  0.86163329  1
  N  N63  1  0.76425506  0.74140104  0.57667342  1
  N  N64  1  0.54429014  0.88168557  0.38591338  1
  N  N65  1  0.42287910  0.80417925  0.15465870  1
  N  N66  1  0.20915680  0.87221866  0.91258367  1
  N  N67  1  0.14425618  0.75327303  0.65639961  1
  N  N68  1  0.87319295  0.87782538  0.35366941  1
  N  N69  1  0.78939214  0.75087032  0.10231291  1
  N  N70  1  0.56836181  0.88492668  0.90753937  1
  N  N71  1  0.44699616  0.75733838  0.61053727  1
