# generated using pymatgen
data_Gd5Al31N36
_symmetry_space_group_name_H-M   'P 1'
_cell_length_a   9.74207995
_cell_length_b   9.70795632
_cell_length_c   10.38169246
_cell_angle_alpha   89.80011447
_cell_angle_beta   89.60707552
_cell_angle_gamma   60.23580657
_symmetry_Int_Tables_number   1
_chemical_formula_structural   Gd5Al31N36
_chemical_formula_sum   'Gd5 Al31 N36'
_cell_volume   852.30518163
_cell_formula_units_Z   1
loop_
 _symmetry_equiv_pos_site_id
 _symmetry_equiv_pos_as_xyz
  1  'x, y, z'
loop_
 _atom_site_type_symbol
 _atom_site_label
 _atom_site_symmetry_multiplicity
 _atom_site_fract_x
 _atom_site_fract_y
 _atom_site_fract_z
 _atom_site_occupancy
  Al  Al0  1  0.11811150  0.09474556  0.30944156  1
  Al  Al1  1  0.22250845  0.20255399  0.06046253  1
  Al  Al2  1  0.77085998  0.09964465  0.81646153  1
  Al  Al3  1  0.43980511  0.09982629  0.30554461  1
  Al  Al4  1  0.55535094  0.19904234  0.05936145  1
  Al  Al5  1  0.11906501  0.08923429  0.81407035  1
  Al  Al6  1  0.23109676  0.19964711  0.56155220  1
  Al  Al7  1  0.76585575  0.09458932  0.30663865  1
  Al  Al8  1  0.89612457  0.20402247  0.12629866  1
  Al  Al9  1  0.44846277  0.09747354  0.81042294  1
  Al  Al10  1  0.54427071  0.20728727  0.55862940  1
  Al  Al11  1  0.11237488  0.42358595  0.31742696  1
  Al  Al12  1  0.79830098  0.40956257  0.87737251  1
  Al  Al13  1  0.87249829  0.54316861  0.62456544  1
  Al  Al14  1  0.43802285  0.42162880  0.31712942  1
  Al  Al15  1  0.11719253  0.42117546  0.79782755  1
  Al  Al16  1  0.22624533  0.53567234  0.56262897  1
  Al  Al17  1  0.77496708  0.43741545  0.36869221  1
  Al  Al18  1  0.89363687  0.53474417  0.13036412  1
  Al  Al19  1  0.45436083  0.41746133  0.79771685  1
  Al  Al20  1  0.54305860  0.54463992  0.54095321  1
  Al  Al21  1  0.10273961  0.77109812  0.31398124  1
  Al  Al22  1  0.21157086  0.88833704  0.06635091  1
  Al  Al23  1  0.78809153  0.75477710  0.88293438  1
  Al  Al24  1  0.43192658  0.77757973  0.31022407  1
  Al  Al25  1  0.55055302  0.88514002  0.06416107  1
  Al  Al26  1  0.11871579  0.75990166  0.80824330  1
  Al  Al27  1  0.23471665  0.86690591  0.55396018  1
  Al  Al28  1  0.77186504  0.75864596  0.37000011  1
  Al  Al29  1  0.88988798  0.88030916  0.07231772  1
  Al  Al30  1  0.54141919  0.87996696  0.54565526  1
  Gd  Gd31  1  0.89609233  0.20011050  0.58611106  1
  Gd  Gd32  1  0.21700089  0.54115107  0.05813284  1
  Gd  Gd33  1  0.56260594  0.53497798  0.08735342  1
  Gd  Gd34  1  0.88981815  0.86560979  0.58478565  1
  Gd  Gd35  1  0.44943493  0.75879109  0.80364337  1
  N  N36  1  0.22209569  0.20511108  0.37469982  1
  N  N37  1  0.11722045  0.09638220  0.12554671  1
  N  N38  1  0.89705803  0.20015333  0.82220761  1
  N  N39  1  0.73708062  0.11117283  0.63607291  1
  N  N40  1  0.55177820  0.20317592  0.37355047  1
  N  N41  1  0.44258353  0.09784172  0.12052504  1
  N  N42  1  0.22441358  0.20651861  0.87154475  1
  N  N43  1  0.15841212  0.06735472  0.63060396  1
  N  N44  1  0.88356014  0.21139891  0.32733228  1
  N  N45  1  0.77190291  0.09731288  0.11766820  1
  N  N46  1  0.55209150  0.20777409  0.87343428  1
  N  N47  1  0.44422712  0.09315256  0.62050582  1
  N  N48  1  0.21431653  0.54431540  0.37086688  1
  N  N49  1  0.11289213  0.40575445  0.13376223  1
  N  N50  1  0.88327001  0.54193861  0.81246694  1
  N  N51  1  0.76261617  0.45213578  0.55105080  1
  N  N52  1  0.54361637  0.54559974  0.34782109  1
  N  N53  1  0.45182013  0.39485231  0.13949294  1
  N  N54  1  0.22732432  0.53229101  0.84036186  1
  N  N55  1  0.11014471  0.42336088  0.61107729  1
  N  N56  1  0.87974867  0.54559844  0.31411919  1
  N  N57  1  0.82147618  0.40613222  0.06129664  1
  N  N58  1  0.57224650  0.50669197  0.86486229  1
  N  N59  1  0.44539961  0.42597936  0.60730021  1
  N  N60  1  0.21318640  0.88042161  0.37044540  1
  N  N61  1  0.09748023  0.79218758  0.13293205  1
  N  N62  1  0.89675081  0.87042629  0.85696097  1
  N  N63  1  0.75911871  0.74444463  0.55711374  1
  N  N64  1  0.54400901  0.88452143  0.35944204  1
  N  N65  1  0.42564709  0.79726484  0.12428791  1
  N  N66  1  0.20084269  0.88124849  0.88506382  1
  N  N67  1  0.15070359  0.74597459  0.62581137  1
  N  N68  1  0.88138322  0.87781689  0.35739392  1
  N  N69  1  0.78864242  0.75168116  0.07219567  1
  N  N70  1  0.56595233  0.88996869  0.87906638  1
  N  N71  1  0.44925327  0.75675375  0.58630546  1
