# generated using pymatgen
data_Gd5Al31N36
_symmetry_space_group_name_H-M   'P 1'
_cell_length_a   9.74417653
_cell_length_b   9.71654812
_cell_length_c   10.39977869
_cell_angle_alpha   89.78486814
_cell_angle_beta   89.48735294
_cell_angle_gamma   60.26204791
_symmetry_Int_Tables_number   1
_chemical_formula_structural   Gd5Al31N36
_chemical_formula_sum   'Gd5 Al31 N36'
_cell_volume   854.93894039
_cell_formula_units_Z   1
loop_
 _symmetry_equiv_pos_site_id
 _symmetry_equiv_pos_as_xyz
  1  'x, y, z'
loop_
 _atom_site_type_symbol
 _atom_site_label
 _atom_site_symmetry_multiplicity
 _atom_site_fract_x
 _atom_site_fract_y
 _atom_site_fract_z
 _atom_site_occupancy
  Al  Al0  1  0.11679983  0.09522652  0.30974021  1
  Al  Al1  1  0.22109864  0.20263369  0.06063191  1
  Al  Al2  1  0.78459782  0.08998388  0.85146938  1
  Al  Al3  1  0.43606117  0.10054126  0.30260656  1
  Al  Al4  1  0.55485201  0.19949235  0.06167568  1
  Al  Al5  1  0.12299996  0.08615589  0.81512320  1
  Al  Al6  1  0.23335214  0.19849327  0.56176552  1
  Al  Al7  1  0.76210140  0.10377480  0.34683636  1
  Al  Al8  1  0.89279563  0.20268216  0.13140478  1
  Al  Al9  1  0.45158019  0.09589795  0.81037717  1
  Al  Al10  1  0.53858747  0.21182804  0.55015234  1
  Al  Al11  1  0.11101887  0.42305346  0.31746481  1
  Al  Al12  1  0.79855978  0.41059062  0.87937560  1
  Al  Al13  1  0.87104242  0.54597432  0.62454995  1
  Al  Al14  1  0.43270475  0.42454764  0.31171401  1
  Al  Al15  1  0.11771871  0.42040030  0.79694021  1
  Al  Al16  1  0.22767054  0.53399642  0.56265075  1
  Al  Al17  1  0.77405451  0.43726955  0.36941678  1
  Al  Al18  1  0.89299852  0.53279422  0.13073286  1
  Al  Al19  1  0.45681564  0.41615518  0.79734065  1
  Al  Al20  1  0.54209156  0.54483440  0.54014934  1
  Al  Al21  1  0.11085414  0.76611693  0.31803246  1
  Al  Al22  1  0.20889535  0.88840742  0.06698404  1
  Al  Al23  1  0.79268522  0.75838713  0.88601530  1
  Al  Al24  1  0.43139074  0.77800433  0.30893039  1
  Al  Al25  1  0.55014375  0.88534335  0.06369583  1
  Al  Al26  1  0.12139519  0.75778782  0.80304260  1
  Al  Al27  1  0.23684744  0.86692400  0.55396979  1
  Al  Al28  1  0.76958011  0.75642855  0.37051801  1
  Al  Al29  1  0.87953339  0.87901950  0.14060890  1
  Al  Al30  1  0.54173110  0.88038025  0.54452039  1
  Gd  Gd31  1  0.89866140  0.20801265  0.59570012  1
  Gd  Gd32  1  0.20928700  0.54648841  0.05520823  1
  Gd  Gd33  1  0.56119415  0.53563888  0.08682141  1
  Gd  Gd34  1  0.88937378  0.86411610  0.59627580  1
  Gd  Gd35  1  0.45187305  0.75838187  0.80395628  1
  N  N36  1  0.22023134  0.20493071  0.37528937  1
  N  N37  1  0.11562264  0.09645088  0.12569553  1
  N  N38  1  0.89678009  0.19829137  0.82302737  1
  N  N39  1  0.75012584  0.11087658  0.56223254  1
  N  N40  1  0.53633934  0.21119373  0.36630092  1
  N  N41  1  0.44100944  0.09799848  0.11846959  1
  N  N42  1  0.22567063  0.20579153  0.87159765  1
  N  N43  1  0.16372197  0.06484817  0.63252836  1
  N  N44  1  0.88380997  0.21330116  0.32713231  1
  N  N45  1  0.77125338  0.09867979  0.11021172  1
  N  N46  1  0.55891850  0.20401542  0.86949141  1
  N  N47  1  0.44808776  0.09314672  0.62113895  1
  N  N48  1  0.21308882  0.54354456  0.37210187  1
  N  N49  1  0.11228920  0.40540632  0.13416488  1
  N  N50  1  0.88394519  0.54229825  0.81355554  1
  N  N51  1  0.76031103  0.45687837  0.55032895  1
  N  N52  1  0.54160095  0.54537934  0.34653912  1
  N  N53  1  0.44512576  0.39979389  0.13366926  1
  N  N54  1  0.22848577  0.53133632  0.83787697  1
  N  N55  1  0.11016938  0.42232227  0.61105384  1
  N  N56  1  0.87856259  0.54469579  0.31363397  1
  N  N57  1  0.82107805  0.40427466  0.06192593  1
  N  N58  1  0.57367961  0.50631847  0.86418747  1
  N  N59  1  0.44683384  0.42461068  0.60867471  1
  N  N60  1  0.21377465  0.88129603  0.37173641  1
  N  N61  1  0.10046856  0.79066168  0.13829951  1
  N  N62  1  0.89483323  0.86831105  0.82531031  1
  N  N63  1  0.75932235  0.74515233  0.55328356  1
  N  N64  1  0.54200015  0.88555947  0.35850881  1
  N  N65  1  0.42479881  0.79783209  0.12331852  1
  N  N66  1  0.20046446  0.87894125  0.88490860  1
  N  N67  1  0.15445793  0.74393462  0.62036703  1
  N  N68  1  0.87790262  0.87337475  0.33463070  1
  N  N69  1  0.79114952  0.75254270  0.07485927  1
  N  N70  1  0.56897599  0.88898421  0.87993922  1
  N  N71  1  0.45103128  0.75638498  0.58711537  1
