# generated using pymatgen
data_Gd5Al31N36
_symmetry_space_group_name_H-M   'P 1'
_cell_length_a   9.71788134
_cell_length_b   9.72891046
_cell_length_c   10.50443487
_cell_angle_alpha   89.47781414
_cell_angle_beta   89.08091728
_cell_angle_gamma   60.16176255
_symmetry_Int_Tables_number   1
_chemical_formula_structural   Gd5Al31N36
_chemical_formula_sum   'Gd5 Al31 N36'
_cell_volume   861.36749865
_cell_formula_units_Z   1
loop_
 _symmetry_equiv_pos_site_id
 _symmetry_equiv_pos_as_xyz
  1  'x, y, z'
loop_
 _atom_site_type_symbol
 _atom_site_label
 _atom_site_symmetry_multiplicity
 _atom_site_fract_x
 _atom_site_fract_y
 _atom_site_fract_z
 _atom_site_occupancy
  Al  Al0  1  0.11091775  0.09894419  0.33646951  1
  Al  Al1  1  0.22254284  0.20315730  0.10982817  1
  Al  Al2  1  0.79584787  0.08210625  0.91893744  1
  Al  Al3  1  0.43351779  0.10262673  0.33023585  1
  Al  Al4  1  0.55339167  0.19965000  0.08436485  1
  Al  Al5  1  0.12312301  0.08169620  0.84180278  1
  Al  Al6  1  0.23124608  0.20016373  0.63770774  1
  Al  Al7  1  0.76399221  0.10134061  0.39412379  1
  Al  Al8  1  0.88865066  0.20235527  0.15666814  1
  Al  Al9  1  0.46194014  0.08925646  0.83543843  1
  Al  Al10  1  0.53577887  0.21255551  0.57289733  1
  Al  Al11  1  0.11080839  0.43046436  0.41061077  1
  Al  Al12  1  0.79951473  0.40945081  0.91419823  1
  Al  Al13  1  0.87629228  0.54278807  0.64973084  1
  Al  Al14  1  0.43030740  0.42527120  0.33493705  1
  Al  Al15  1  0.10864753  0.41765461  0.89126535  1
  Al  Al16  1  0.22841891  0.53071222  0.65401866  1
  Al  Al17  1  0.77929745  0.43213669  0.39266107  1
  Al  Al18  1  0.90123545  0.52986425  0.15641636  1
  Al  Al19  1  0.47031571  0.40625315  0.82974820  1
  Al  Al20  1  0.54141281  0.54630554  0.56110223  1
  Al  Al21  1  0.10673940  0.76897425  0.33840526  1
  Al  Al22  1  0.20870862  0.89327804  0.09353069  1
  Al  Al23  1  0.79388143  0.75412570  0.91872723  1
  Al  Al24  1  0.42793346  0.78098853  0.33649533  1
  Al  Al25  1  0.54967138  0.88454436  0.09128015  1
  Al  Al26  1  0.11896685  0.76335830  0.83721318  1
  Al  Al27  1  0.22934884  0.86833313  0.57785526  1
  Al  Al28  1  0.77439609  0.75485746  0.39372485  1
  Al  Al29  1  0.87610457  0.88228215  0.16465831  1
  Al  Al30  1  0.54257925  0.87722279  0.56533705  1
  Gd  Gd31  1  0.88036024  0.21514216  0.64396371  1
  Gd  Gd32  1  0.21922584  0.55350579  0.09058289  1
  Gd  Gd33  1  0.56151126  0.54088962  0.11811233  1
  Gd  Gd34  1  0.87867303  0.86874610  0.64149511  1
  Gd  Gd35  1  0.45654149  0.75420069  0.82685627  1
  N  N36  1  0.21597554  0.21002275  0.37795385  1
  N  N37  1  0.11158889  0.10024961  0.15063836  1
  N  N38  1  0.89826956  0.19567274  0.86290092  1
  N  N39  1  0.75285700  0.10708854  0.57265869  1
  N  N40  1  0.53335479  0.21339222  0.39162155  1
  N  N41  1  0.44321089  0.09766627  0.14444809  1
  N  N42  1  0.23327466  0.19717495  0.86118524  1
  N  N43  1  0.14742655  0.06649377  0.65657581  1
  N  N44  1  0.87666560  0.21147689  0.34469460  1
  N  N45  1  0.77946665  0.09266674  0.10217248  1
  N  N46  1  0.56301227  0.19872395  0.89685805  1
  N  N47  1  0.45689867  0.08523087  0.64742193  1
  N  N48  1  0.21021466  0.54817902  0.36485410  1
  N  N49  1  0.10003381  0.41629183  0.07492159  1
  N  N50  1  0.88587844  0.53814713  0.83862398  1
  N  N51  1  0.76292428  0.45605645  0.57234803  1
  N  N52  1  0.54215804  0.54608490  0.37184950  1
  N  N53  1  0.45669492  0.39393194  0.15836785  1
  N  N54  1  0.22935558  0.52826797  0.85457989  1
  N  N55  1  0.10765050  0.42865910  0.60348076  1
  N  N56  1  0.89300844  0.53660467  0.33812006  1
  N  N57  1  0.81790204  0.40687719  0.09503224  1
  N  N58  1  0.57575438  0.50547179  0.89582106  1
  N  N59  1  0.45446799  0.42046515  0.64231123  1
  N  N60  1  0.20886084  0.88317540  0.39768791  1
  N  N61  1  0.09487269  0.80154139  0.15992192  1
  N  N62  1  0.89596517  0.86622230  0.86338471  1
  N  N63  1  0.76312883  0.74264497  0.57614349  1
  N  N64  1  0.54337539  0.88433462  0.38331650  1
  N  N65  1  0.42102887  0.80300410  0.15306336  1
  N  N66  1  0.20658085  0.87643439  0.91294969  1
  N  N67  1  0.14638183  0.74951577  0.65505914  1
  N  N68  1  0.87199354  0.87899487  0.35189799  1
  N  N69  1  0.78786378  0.75230788  0.10446150  1
  N  N70  1  0.57071626  0.88421023  0.90804302  1
  N  N71  1  0.44643970  0.75790602  0.61095913  1
