# generated using pymatgen
data_Gd5Al31N36
_symmetry_space_group_name_H-M   'P 1'
_cell_length_a   9.69165427
_cell_length_b   9.69039791
_cell_length_c   10.29509314
_cell_angle_alpha   89.59652952
_cell_angle_beta   89.68736061
_cell_angle_gamma   59.85671016
_symmetry_Int_Tables_number   1
_chemical_formula_structural   Gd5Al31N36
_chemical_formula_sum   'Gd5 Al31 N36'
_cell_volume   836.10286821
_cell_formula_units_Z   1
loop_
 _symmetry_equiv_pos_site_id
 _symmetry_equiv_pos_as_xyz
  1  'x, y, z'
loop_
 _atom_site_type_symbol
 _atom_site_label
 _atom_site_symmetry_multiplicity
 _atom_site_fract_x
 _atom_site_fract_y
 _atom_site_fract_z
 _atom_site_occupancy
  Al  Al0  1  0.11808137  0.09415746  0.39774084  1
  Al  Al1  1  0.22281570  0.20133762  0.15167136  1
  Al  Al2  1  0.77351057  0.09682659  0.92238480  1
  Al  Al3  1  0.44275456  0.09809438  0.40317330  1
  Al  Al4  1  0.55515335  0.19842570  0.15387789  1
  Al  Al5  1  0.10621060  0.09812646  0.91447444  1
  Al  Al6  1  0.22965197  0.20088764  0.65268499  1
  Al  Al7  1  0.77181983  0.09786528  0.39286035  1
  Al  Al8  1  0.89448435  0.20293523  0.15389632  1
  Al  Al9  1  0.44929036  0.09644097  0.90259767  1
  Al  Al10  1  0.54963204  0.20440417  0.65344218  1
  Al  Al11  1  0.11105110  0.42591976  0.41201521  1
  Al  Al12  1  0.78315582  0.42326556  0.90935617  1
  Al  Al13  1  0.88326409  0.54112750  0.65444175  1
  Al  Al14  1  0.44318351  0.42422848  0.42113009  1
  Al  Al15  1  0.10733771  0.42388140  0.89695540  1
  Al  Al16  1  0.22476489  0.53753875  0.65546624  1
  Al  Al17  1  0.78133267  0.42941555  0.40960169  1
  Al  Al18  1  0.89202266  0.53184565  0.15445617  1
  Al  Al19  1  0.45152587  0.41475934  0.89121791  1
  Al  Al20  1  0.55830204  0.53453153  0.64691858  1
  Al  Al21  1  0.11710706  0.75866750  0.40658163  1
  Al  Al22  1  0.21870425  0.88319173  0.16136944  1
  Al  Al23  1  0.77915927  0.76229362  0.91459169  1
  Al  Al24  1  0.44280407  0.76560281  0.41695565  1
  Al  Al25  1  0.55203031  0.87888005  0.16021120  1
  Al  Al26  1  0.10138194  0.77387839  0.90894528  1
  Al  Al27  1  0.22358797  0.87392152  0.64670300  1
  Al  Al28  1  0.77682165  0.75691841  0.39744428  1
  Al  Al29  1  0.88746044  0.87599870  0.15541968  1
  Al  Al30  1  0.55667272  0.87591643  0.64730184  1
  Gd  Gd31  1  0.89478760  0.19957634  0.65814926  1
  Gd  Gd32  1  0.21769749  0.53423976  0.14891413  1
  Gd  Gd33  1  0.55441709  0.53622256  0.16339439  1
  Gd  Gd34  1  0.88422810  0.86760717  0.65664862  1
  Gd  Gd35  1  0.43945261  0.76727108  0.88624445  1
  N  N36  1  0.22373776  0.20970790  0.34070634  1
  N  N37  1  0.11349156  0.09460339  0.10163527  1
  N  N38  1  0.88735814  0.20379199  0.87728545  1
  N  N39  1  0.74871473  0.10805238  0.57371713  1
  N  N40  1  0.54825174  0.21205482  0.34074160  1
  N  N41  1  0.44539844  0.09302343  0.09319872  1
  N  N42  1  0.22468196  0.19970010  0.84270169  1
  N  N43  1  0.14333228  0.08208551  0.57920234  1
  N  N44  1  0.89049385  0.20723266  0.34691176  1
  N  N45  1  0.77486644  0.09616621  0.10959628  1
  N  N46  1  0.56188298  0.19761488  0.84030031  1
  N  N47  1  0.44383264  0.09675722  0.59091402  1
  N  N48  1  0.22455783  0.53477976  0.36837773  1
  N  N49  1  0.09748732  0.40934155  0.08045112  1
  N  N50  1  0.88460635  0.54323281  0.84350300  1
  N  N51  1  0.77243437  0.44563225  0.59119852  1
  N  N52  1  0.55274308  0.53989319  0.38179939  1
  N  N53  1  0.45968216  0.39642796  0.07217629  1
  N  N54  1  0.21773296  0.54387184  0.84909928  1
  N  N55  1  0.10875417  0.42719775  0.60175501  1
  N  N56  1  0.89353304  0.53507843  0.34230857  1
  N  N57  1  0.79857269  0.41765446  0.09356985  1
  N  N58  1  0.57464471  0.50767617  0.83603745  1
  N  N59  1  0.44324716  0.42340363  0.60625758  1
  N  N60  1  0.22507586  0.87071886  0.34799634  1
  N  N61  1  0.10191141  0.79141271  0.09334769  1
  N  N62  1  0.88307345  0.87646976  0.87646319  1
  N  N63  1  0.76398777  0.74599740  0.57977981  1
  N  N64  1  0.55271365  0.87536709  0.34834515  1
  N  N65  1  0.43062941  0.79001156  0.10335289  1
  N  N66  1  0.18076172  0.89765272  0.82941271  1
  N  N67  1  0.13777574  0.74910748  0.58875484  1
  N  N68  1  0.89204555  0.86844195  0.34721316  1
  N  N69  1  0.77712108  0.75784129  0.10371744  1
  N  N70  1  0.57652094  0.88702976  0.83257543  1
  N  N71  1  0.44535557  0.76303111  0.60993126  1
