# generated using pymatgen
data_Gd5Al31N36
_symmetry_space_group_name_H-M   'P 1'
_cell_length_a   9.62724492
_cell_length_b   9.68592858
_cell_length_c   10.72731792
_cell_angle_alpha   89.48998367
_cell_angle_beta   88.96127863
_cell_angle_gamma   59.64996431
_symmetry_Int_Tables_number   1
_chemical_formula_structural   Gd5Al31N36
_chemical_formula_sum   'Gd5 Al31 N36'
_cell_volume   863.07990053
_cell_formula_units_Z   1
loop_
 _symmetry_equiv_pos_site_id
 _symmetry_equiv_pos_as_xyz
  1  'x, y, z'
loop_
 _atom_site_type_symbol
 _atom_site_label
 _atom_site_symmetry_multiplicity
 _atom_site_fract_x
 _atom_site_fract_y
 _atom_site_fract_z
 _atom_site_occupancy
  Al  Al0  1  0.10875839  0.10342862  0.40033805  1
  Al  Al1  1  0.21616290  0.21035902  0.15443165  1
  Al  Al2  1  0.78978433  0.08494216  0.92477752  1
  Al  Al3  1  0.44183324  0.09591347  0.33128278  1
  Al  Al4  1  0.55611509  0.19984067  0.11089687  1
  Al  Al5  1  0.11583527  0.09343371  0.91750969  1
  Al  Al6  1  0.22522856  0.20198449  0.65269854  1
  Al  Al7  1  0.77254601  0.09876068  0.39554149  1
  Al  Al8  1  0.90051545  0.19882487  0.15715439  1
  Al  Al9  1  0.46327268  0.08896658  0.83056569  1
  Al  Al10  1  0.53789546  0.21331633  0.57083901  1
  Al  Al11  1  0.10536914  0.42817369  0.40863864  1
  Al  Al12  1  0.79806944  0.41066136  0.91639463  1
  Al  Al13  1  0.88015552  0.53997564  0.64685763  1
  Al  Al14  1  0.43144680  0.42924715  0.34278530  1
  Al  Al15  1  0.11270069  0.41348095  0.88861649  1
  Al  Al16  1  0.22115547  0.54470076  0.59046937  1
  Al  Al17  1  0.78182671  0.42901941  0.39330491  1
  Al  Al18  1  0.90040211  0.53098705  0.15563533  1
  Al  Al19  1  0.46010800  0.41002659  0.81854003  1
  Al  Al20  1  0.54361557  0.54654962  0.56123503  1
  Al  Al21  1  0.10638448  0.76843640  0.34053504  1
  Al  Al22  1  0.21722181  0.88124455  0.09697417  1
  Al  Al23  1  0.79704704  0.75168639  0.92242298  1
  Al  Al24  1  0.43172565  0.77665234  0.33396272  1
  Al  Al25  1  0.55109374  0.88519283  0.08975405  1
  Al  Al26  1  0.12408581  0.75390645  0.83087371  1
  Al  Al27  1  0.22473582  0.86749653  0.57138243  1
  Al  Al28  1  0.77602013  0.75588481  0.39687440  1
  Al  Al29  1  0.87859020  0.87968487  0.16519947  1
  Al  Al30  1  0.53917807  0.87645449  0.56470365  1
  Gd  Gd31  1  0.88375331  0.21410804  0.66032820  1
  Gd  Gd32  1  0.21938020  0.55374156  0.07344151  1
  Gd  Gd33  1  0.55542158  0.53991051  0.11016680  1
  Gd  Gd34  1  0.85550263  0.88237745  0.66057181  1
  Gd  Gd35  1  0.45906134  0.75420456  0.82569145  1
  N  N36  1  0.20925547  0.21769131  0.33698127  1
  N  N37  1  0.11531593  0.10172477  0.09715453  1
  N  N38  1  0.89968383  0.19322426  0.87266128  1
  N  N39  1  0.75998458  0.11089107  0.56920941  1
  N  N40  1  0.53655830  0.21142465  0.39171964  1
  N  N41  1  0.45007914  0.09277825  0.15171518  1
  N  N42  1  0.22406505  0.19433458  0.83546127  1
  N  N43  1  0.13435004  0.09235769  0.57913820  1
  N  N44  1  0.88770751  0.20661695  0.33920200  1
  N  N45  1  0.78118729  0.09426609  0.10586698  1
  N  N46  1  0.56701333  0.19775009  0.88062006  1
  N  N47  1  0.45919871  0.08309160  0.64394754  1
  N  N48  1  0.21272661  0.55174781  0.40347312  1
  N  N49  1  0.10400383  0.41099665  0.07436680  1
  N  N50  1  0.88583866  0.53704434  0.83686758  1
  N  N51  1  0.76811112  0.44981439  0.57144143  1
  N  N52  1  0.54557189  0.54499668  0.37522485  1
  N  N53  1  0.44385642  0.40187597  0.17068284  1
  N  N54  1  0.23045256  0.52565447  0.86015461  1
  N  N55  1  0.10745061  0.42289605  0.59330336  1
  N  N56  1  0.89228190  0.53827087  0.33564641  1
  N  N57  1  0.81440333  0.40963364  0.09650680  1
  N  N58  1  0.57278046  0.50328723  0.89310013  1
  N  N59  1  0.44696310  0.42744510  0.63241545  1
  N  N60  1  0.21454514  0.87353437  0.39347002  1
  N  N61  1  0.10237725  0.79170226  0.16621755  1
  N  N62  1  0.90013650  0.86394322  0.87330338  1
  N  N63  1  0.76547340  0.74193070  0.57452368  1
  N  N64  1  0.54171883  0.88221750  0.38775740  1
  N  N65  1  0.42769511  0.79992666  0.15660023  1
  N  N66  1  0.21295097  0.86320859  0.91491856  1
  N  N67  1  0.12962544  0.75936363  0.65020607  1
  N  N68  1  0.87096259  0.87890677  0.34735801  1
  N  N69  1  0.79009498  0.75160034  0.10330935  1
  N  N70  1  0.56971109  0.88637574  0.91025132  1
  N  N71  1  0.44096137  0.76028063  0.61474176  1
