# generated using pymatgen
data_Gd5Al31N36
_symmetry_space_group_name_H-M   'P 1'
_cell_length_a   9.69744466
_cell_length_b   9.70045793
_cell_length_c   10.35002039
_cell_angle_alpha   89.80100349
_cell_angle_beta   89.87153036
_cell_angle_gamma   59.99822235
_symmetry_Int_Tables_number   1
_chemical_formula_structural   Gd5Al31N36
_chemical_formula_sum   'Gd5 Al31 N36'
_cell_volume   843.16177692
_cell_formula_units_Z   1
loop_
 _symmetry_equiv_pos_site_id
 _symmetry_equiv_pos_as_xyz
  1  'x, y, z'
loop_
 _atom_site_type_symbol
 _atom_site_label
 _atom_site_symmetry_multiplicity
 _atom_site_fract_x
 _atom_site_fract_y
 _atom_site_fract_z
 _atom_site_occupancy
  Al  Al0  1  0.10988061  0.09707120  0.30092182  1
  Al  Al1  1  0.22409996  0.20066249  0.06246463  1
  Al  Al2  1  0.77187898  0.09665517  0.82093461  1
  Al  Al3  1  0.44292508  0.09838824  0.30971703  1
  Al  Al4  1  0.55535644  0.19944448  0.06000287  1
  Al  Al5  1  0.11608994  0.09148374  0.81965962  1
  Al  Al6  1  0.23212869  0.19794057  0.56292854  1
  Al  Al7  1  0.77359356  0.09656190  0.29559011  1
  Al  Al8  1  0.89528209  0.20115616  0.05766479  1
  Al  Al9  1  0.44827148  0.09791547  0.81330980  1
  Al  Al10  1  0.55111409  0.20432984  0.56043606  1
  Al  Al11  1  0.11054132  0.42358614  0.32155230  1
  Al  Al12  1  0.77644678  0.42225409  0.81152670  1
  Al  Al13  1  0.88131130  0.54231734  0.62576519  1
  Al  Al14  1  0.44495634  0.41969460  0.31928520  1
  Al  Al15  1  0.11784519  0.42006214  0.80429552  1
  Al  Al16  1  0.22759837  0.53621070  0.56133458  1
  Al  Al17  1  0.78060708  0.42261907  0.30692142  1
  Al  Al18  1  0.89333059  0.53453636  0.12159463  1
  Al  Al19  1  0.44883785  0.41934861  0.79492585  1
  Al  Al20  1  0.55487728  0.53851678  0.54459949  1
  Al  Al21  1  0.10569279  0.76946570  0.30728749  1
  Al  Al22  1  0.21375456  0.88609707  0.06712930  1
  Al  Al23  1  0.77624266  0.76366184  0.82382264  1
  Al  Al24  1  0.43887845  0.77251461  0.31974105  1
  Al  Al25  1  0.55197106  0.88434712  0.06774628  1
  Al  Al26  1  0.11483933  0.76083191  0.80896941  1
  Al  Al27  1  0.23023558  0.86910424  0.55006547  1
  Al  Al28  1  0.77388767  0.76714545  0.30334403  1
  Al  Al29  1  0.88772377  0.87691614  0.05934433  1
  Al  Al30  1  0.55251499  0.87553373  0.54899659  1
  Gd  Gd31  1  0.89854084  0.20174016  0.56424329  1
  Gd  Gd32  1  0.21800748  0.53706491  0.05945576  1
  Gd  Gd33  1  0.55349015  0.54283636  0.07120640  1
  Gd  Gd34  1  0.88702482  0.86521814  0.56436490  1
  Gd  Gd35  1  0.44405087  0.76917340  0.79298430  1
  N  N36  1  0.22237903  0.20127676  0.37509460  1
  N  N37  1  0.10993023  0.09943333  0.11641688  1
  N  N38  1  0.89226515  0.20321656  0.86580039  1
  N  N39  1  0.75045817  0.10755643  0.63999282  1
  N  N40  1  0.55918225  0.19929042  0.37392415  1
  N  N41  1  0.44253593  0.09886830  0.12383811  1
  N  N42  1  0.22661172  0.20462575  0.87338468  1
  N  N43  1  0.15289028  0.06939154  0.63639915  1
  N  N44  1  0.88764004  0.20181391  0.34690582  1
  N  N45  1  0.77527117  0.09599458  0.10748363  1
  N  N46  1  0.55013979  0.21008326  0.87303592  1
  N  N47  1  0.44681773  0.09212018  0.62192876  1
  N  N48  1  0.21745111  0.54332037  0.36979971  1
  N  N49  1  0.10981143  0.40498849  0.13515926  1
  N  N50  1  0.89311927  0.53376121  0.83353303  1
  N  N51  1  0.75734282  0.44868816  0.62358515  1
  N  N52  1  0.55641468  0.53668085  0.35583340  1
  N  N53  1  0.45591377  0.39611758  0.14067432  1
  N  N54  1  0.22647198  0.53339913  0.84113219  1
  N  N55  1  0.11216074  0.42347642  0.61385938  1
  N  N56  1  0.88351329  0.54404228  0.33589092  1
  N  N57  1  0.80236208  0.40914512  0.12162492  1
  N  N58  1  0.56142460  0.51632069  0.85562166  1
  N  N59  1  0.44743721  0.42416431  0.60618245  1
  N  N60  1  0.21158817  0.88137202  0.36669653  1
  N  N61  1  0.09790447  0.78914997  0.12650870  1
  N  N62  1  0.89401324  0.86791251  0.86732470  1
  N  N63  1  0.74777192  0.76031136  0.63718087  1
  N  N64  1  0.55817266  0.87936477  0.36486275  1
  N  N65  1  0.42573966  0.79902718  0.13285377  1
  N  N66  1  0.20127452  0.88012470  0.88442909  1
  N  N67  1  0.14380284  0.75013656  0.62538614  1
  N  N68  1  0.88287022  0.87756788  0.34734197  1
  N  N69  1  0.77821143  0.76240363  0.11484288  1
  N  N70  1  0.56597742  0.88930555  0.88552637  1
  N  N71  1  0.44820233  0.75839874  0.57393537  1
