# generated using pymatgen
data_Gd5Al31N36
_symmetry_space_group_name_H-M   'P 1'
_cell_length_a   9.71306958
_cell_length_b   9.71449067
_cell_length_c   10.60020528
_cell_angle_alpha   89.49792587
_cell_angle_beta   89.67193725
_cell_angle_gamma   59.67050556
_symmetry_Int_Tables_number   1
_chemical_formula_structural   Gd5Al31N36
_chemical_formula_sum   'Gd5 Al31 N36'
_cell_volume   863.28209269
_cell_formula_units_Z   1
loop_
 _symmetry_equiv_pos_site_id
 _symmetry_equiv_pos_as_xyz
  1  'x, y, z'
loop_
 _atom_site_type_symbol
 _atom_site_label
 _atom_site_symmetry_multiplicity
 _atom_site_fract_x
 _atom_site_fract_y
 _atom_site_fract_z
 _atom_site_occupancy
  Al  Al0  1  0.11084067  0.10518228  0.39494422  1
  Al  Al1  1  0.21357087  0.20455702  0.15045241  1
  Al  Al2  1  0.78179835  0.09223095  0.91771675  1
  Al  Al3  1  0.44083476  0.09720229  0.32829246  1
  Al  Al4  1  0.56176687  0.19473223  0.15030642  1
  Al  Al5  1  0.10918557  0.10058221  0.91758635  1
  Al  Al6  1  0.22464530  0.20306029  0.65105824  1
  Al  Al7  1  0.76735743  0.10339072  0.39281579  1
  Al  Al8  1  0.89830049  0.19644357  0.15532315  1
  Al  Al9  1  0.45684479  0.08870086  0.83027985  1
  Al  Al10  1  0.55334066  0.21356485  0.64591612  1
  Al  Al11  1  0.10723886  0.43088404  0.41297736  1
  Al  Al12  1  0.79207233  0.41740870  0.91621053  1
  Al  Al13  1  0.88028749  0.54299203  0.64951037  1
  Al  Al14  1  0.43484088  0.42483506  0.40638968  1
  Al  Al15  1  0.11020137  0.41870637  0.89321663  1
  Al  Al16  1  0.22695341  0.53815669  0.64975772  1
  Al  Al17  1  0.78516171  0.42898693  0.39326449  1
  Al  Al18  1  0.89357394  0.53072191  0.15329161  1
  Al  Al19  1  0.45588736  0.40833211  0.89673723  1
  Al  Al20  1  0.54920403  0.55127747  0.56379147  1
  Al  Al21  1  0.10684366  0.76937791  0.34831330  1
  Al  Al22  1  0.21838875  0.87770217  0.09553474  1
  Al  Al23  1  0.79161560  0.75456602  0.91897050  1
  Al  Al24  1  0.43490443  0.77969314  0.33022560  1
  Al  Al25  1  0.54983238  0.88407987  0.08744711  1
  Al  Al26  1  0.11423797  0.75652156  0.87482880  1
  Al  Al27  1  0.23179650  0.86547195  0.56361941  1
  Al  Al28  1  0.77782942  0.75748190  0.39539620  1
  Al  Al29  1  0.88074599  0.87689392  0.15926349  1
  Al  Al30  1  0.54284857  0.88072966  0.56600735  1
  Gd  Gd31  1  0.88985691  0.20960580  0.65449341  1
  Gd  Gd32  1  0.21635684  0.52236366  0.14955535  1
  Gd  Gd33  1  0.55555393  0.52797262  0.12982479  1
  Gd  Gd34  1  0.87667601  0.87389384  0.65086744  1
  Gd  Gd35  1  0.45101529  0.75846195  0.82788337  1
  N  N36  1  0.21129972  0.22094366  0.33696396  1
  N  N37  1  0.11075247  0.09860382  0.10015920  1
  N  N38  1  0.89461811  0.19958057  0.86944384  1
  N  N39  1  0.74956635  0.11543437  0.56717439  1
  N  N40  1  0.55003133  0.21731652  0.33417094  1
  N  N41  1  0.44298715  0.09188146  0.14649818  1
  N  N42  1  0.22097250  0.19890184  0.83753979  1
  N  N43  1  0.13779386  0.09079462  0.57514049  1
  N  N44  1  0.88846170  0.20704737  0.34032836  1
  N  N45  1  0.77831322  0.09244442  0.10043376  1
  N  N46  1  0.57411572  0.19867874  0.83026339  1
  N  N47  1  0.45248091  0.08632323  0.64280508  1
  N  N48  1  0.21605671  0.54066017  0.36544930  1
  N  N49  1  0.09424147  0.40736543  0.07115500  1
  N  N50  1  0.88468429  0.54105813  0.83789498  1
  N  N51  1  0.77134870  0.44999872  0.57301470  1
  N  N52  1  0.54819531  0.54547343  0.37160388  1
  N  N53  1  0.45068744  0.38423932  0.06998234  1
  N  N54  1  0.22713860  0.53001383  0.84293993  1
  N  N55  1  0.10902401  0.42780322  0.59782850  1
  N  N56  1  0.89332098  0.53896885  0.33637627  1
  N  N57  1  0.80955168  0.40829979  0.09755573  1
  N  N58  1  0.57320524  0.51286724  0.89383824  1
  N  N59  1  0.44268705  0.42831381  0.58843579  1
  N  N60  1  0.21912016  0.87652887  0.38190995  1
  N  N61  1  0.10223207  0.78510644  0.15052193  1
  N  N62  1  0.89333800  0.86859578  0.87075164  1
  N  N63  1  0.76692689  0.74456524  0.57524924  1
  N  N64  1  0.54496326  0.88474973  0.38569461  1
  N  N65  1  0.43051225  0.79374240  0.14972728  1
  N  N66  1  0.20684062  0.87460307  0.91282117  1
  N  N67  1  0.13383468  0.75494596  0.61718117  1
  N  N68  1  0.87542850  0.87950200  0.34571434  1
  N  N69  1  0.78715181  0.75176327  0.10247870  1
  N  N70  1  0.56770144  0.88946166  0.90765405  1
  N  N71  1  0.44508839  0.76299935  0.61256689  1
