# generated using pymatgen
data_Gd5Al31N36
_symmetry_space_group_name_H-M   'P 1'
_cell_length_a   9.68812946
_cell_length_b   9.70923411
_cell_length_c   10.54509015
_cell_angle_alpha   89.48745466
_cell_angle_beta   89.09757836
_cell_angle_gamma   60.01719734
_symmetry_Int_Tables_number   1
_chemical_formula_structural   Gd5Al31N36
_chemical_formula_sum   'Gd5 Al31 N36'
_cell_volume   859.06665984
_cell_formula_units_Z   1
loop_
 _symmetry_equiv_pos_site_id
 _symmetry_equiv_pos_as_xyz
  1  'x, y, z'
loop_
 _atom_site_type_symbol
 _atom_site_label
 _atom_site_symmetry_multiplicity
 _atom_site_fract_x
 _atom_site_fract_y
 _atom_site_fract_z
 _atom_site_occupancy
  Al  Al0  1  0.11229497  0.09825012  0.33572874  1
  Al  Al1  1  0.22488985  0.19699330  0.08042318  1
  Al  Al2  1  0.79536313  0.08182811  0.92014617  1
  Al  Al3  1  0.43428907  0.10179405  0.32873815  1
  Al  Al4  1  0.54985935  0.20150574  0.08512697  1
  Al  Al5  1  0.12708000  0.08008030  0.84260149  1
  Al  Al6  1  0.23157672  0.19507193  0.58958700  1
  Al  Al7  1  0.76477142  0.10156547  0.39650347  1
  Al  Al8  1  0.88999990  0.20236794  0.15678030  1
  Al  Al9  1  0.45685023  0.09073867  0.83566804  1
  Al  Al10  1  0.53592699  0.21262156  0.57505256  1
  Al  Al11  1  0.10211725  0.43330125  0.41194491  1
  Al  Al12  1  0.79967090  0.40855920  0.91448800  1
  Al  Al13  1  0.87872437  0.54190627  0.65000984  1
  Al  Al14  1  0.43361455  0.42485050  0.33926931  1
  Al  Al15  1  0.11106915  0.41913682  0.89029202  1
  Al  Al16  1  0.22794334  0.54010822  0.59320286  1
  Al  Al17  1  0.77926592  0.43148466  0.39275337  1
  Al  Al18  1  0.90013709  0.53041174  0.15547871  1
  Al  Al19  1  0.45922033  0.41120991  0.82560800  1
  Al  Al20  1  0.54371825  0.54653757  0.56229838  1
  Al  Al21  1  0.10623195  0.77283772  0.34478134  1
  Al  Al22  1  0.20915389  0.89228603  0.09475364  1
  Al  Al23  1  0.79566790  0.75328799  0.92045179  1
  Al  Al24  1  0.42972771  0.77990346  0.33616331  1
  Al  Al25  1  0.55033874  0.88482739  0.09172143  1
  Al  Al26  1  0.12485071  0.75320287  0.83339282  1
  Al  Al27  1  0.22908599  0.87105163  0.58029709  1
  Al  Al28  1  0.77390880  0.75627824  0.39534898  1
  Al  Al29  1  0.87666779  0.88266309  0.16693298  1
  Al  Al30  1  0.54277531  0.87723365  0.56695895  1
  Gd  Gd31  1  0.88053212  0.21636041  0.64851431  1
  Gd  Gd32  1  0.21685325  0.55581621  0.08490215  1
  Gd  Gd33  1  0.55753725  0.53950975  0.11453110  1
  Gd  Gd34  1  0.87457265  0.87116677  0.64772923  1
  Gd  Gd35  1  0.45840480  0.75306514  0.82799672  1
  N  N36  1  0.21908534  0.20357448  0.40104671  1
  N  N37  1  0.11499539  0.10109066  0.15307421  1
  N  N38  1  0.90064362  0.19356453  0.86507776  1
  N  N39  1  0.75379707  0.10828313  0.57403875  1
  N  N40  1  0.53306563  0.21220347  0.39377050  1
  N  N41  1  0.44006294  0.09871999  0.14612114  1
  N  N42  1  0.23642305  0.18797222  0.89376137  1
  N  N43  1  0.15023116  0.07074325  0.65834888  1
  N  N44  1  0.87760978  0.21115939  0.34424477  1
  N  N45  1  0.77858826  0.09365410  0.10292399  1
  N  N46  1  0.56015905  0.20039756  0.89617916  1
  N  N47  1  0.45044642  0.08897918  0.64727863  1
  N  N48  1  0.21506323  0.55108218  0.40009702  1
  N  N49  1  0.09874633  0.41861426  0.07802822  1
  N  N50  1  0.88711491  0.53655649  0.83843435  1
  N  N51  1  0.76531794  0.45528474  0.57153546  1
  N  N52  1  0.54326864  0.54629975  0.37283200  1
  N  N53  1  0.44969745  0.39549936  0.16457927  1
  N  N54  1  0.23158661  0.52814001  0.86705106  1
  N  N55  1  0.10395161  0.42938895  0.59907873  1
  N  N56  1  0.89337230  0.53691693  0.33694482  1
  N  N57  1  0.81530269  0.40807412  0.09535865  1
  N  N58  1  0.57529786  0.50265780  0.89362977  1
  N  N59  1  0.45032504  0.42444085  0.63712020  1
  N  N60  1  0.21071570  0.88462799  0.40027264  1
  N  N61  1  0.09793648  0.79907586  0.16768737  1
  N  N62  1  0.89925162  0.86387985  0.86585981  1
  N  N63  1  0.76389170  0.74265984  0.57624674  1
  N  N64  1  0.54315618  0.88442364  0.38477535  1
  N  N65  1  0.42314877  0.80105985  0.15383117  1
  N  N66  1  0.20708103  0.87248735  0.91340953  1
  N  N67  1  0.14375905  0.75040985  0.65071037  1
  N  N68  1  0.87201344  0.87935203  0.35365391  1
  N  N69  1  0.78819766  0.75342766  0.10578301  1
  N  N70  1  0.57210564  0.88387524  0.90865501  1
  N  N71  1  0.44696663  0.75803171  0.61304649  1
