# generated using pymatgen
data_Gd5Al31N36
_symmetry_space_group_name_H-M   'P 1'
_cell_length_a   9.69341276
_cell_length_b   9.69590086
_cell_length_c   10.32658638
_cell_angle_alpha   89.81978659
_cell_angle_beta   89.89005683
_cell_angle_gamma   59.98140385
_symmetry_Int_Tables_number   1
_chemical_formula_structural   Gd5Al31N36
_chemical_formula_sum   'Gd5 Al31 N36'
_cell_volume   840.36642250
_cell_formula_units_Z   1
loop_
 _symmetry_equiv_pos_site_id
 _symmetry_equiv_pos_as_xyz
  1  'x, y, z'
loop_
 _atom_site_type_symbol
 _atom_site_label
 _atom_site_symmetry_multiplicity
 _atom_site_fract_x
 _atom_site_fract_y
 _atom_site_fract_z
 _atom_site_occupancy
  Al  Al0  1  0.10985213  0.09719947  0.30121614  1
  Al  Al1  1  0.22369198  0.20110393  0.06294755  1
  Al  Al2  1  0.77188807  0.09683918  0.82132086  1
  Al  Al3  1  0.44313906  0.09818429  0.31004029  1
  Al  Al4  1  0.55531708  0.19936914  0.05997371  1
  Al  Al5  1  0.11596878  0.09174270  0.81994852  1
  Al  Al6  1  0.23211801  0.19776903  0.56305883  1
  Al  Al7  1  0.77369640  0.09645892  0.29583364  1
  Al  Al8  1  0.89513597  0.20134512  0.05819948  1
  Al  Al9  1  0.44802152  0.09815426  0.81362372  1
  Al  Al10  1  0.55112202  0.20426368  0.56045201  1
  Al  Al11  1  0.10774305  0.42501147  0.32143574  1
  Al  Al12  1  0.77753596  0.42416280  0.81174751  1
  Al  Al13  1  0.88059686  0.54265272  0.59820177  1
  Al  Al14  1  0.44508466  0.41964774  0.31969138  1
  Al  Al15  1  0.11453019  0.42208641  0.80460150  1
  Al  Al16  1  0.22748765  0.53643373  0.56151693  1
  Al  Al17  1  0.78282627  0.42428577  0.30730860  1
  Al  Al18  1  0.89380786  0.53337175  0.09116225  1
  Al  Al19  1  0.44872896  0.41953315  0.79523317  1
  Al  Al20  1  0.55501652  0.53835898  0.54494877  1
  Al  Al21  1  0.10575557  0.76937093  0.30748879  1
  Al  Al22  1  0.21374430  0.88615781  0.06718421  1
  Al  Al23  1  0.77716440  0.76179939  0.82370876  1
  Al  Al24  1  0.43908967  0.77241520  0.32004208  1
  Al  Al25  1  0.55194535  0.88425922  0.06805321  1
  Al  Al26  1  0.11473656  0.76091783  0.80919222  1
  Al  Al27  1  0.23029017  0.86910866  0.55011392  1
  Al  Al28  1  0.77619858  0.76300764  0.30368103  1
  Al  Al29  1  0.88786674  0.87669830  0.05960705  1
  Al  Al30  1  0.55296774  0.87514937  0.54933733  1
  Gd  Gd31  1  0.89841484  0.20159225  0.56461246  1
  Gd  Gd32  1  0.21804782  0.53682592  0.05991540  1
  Gd  Gd33  1  0.55343742  0.54261231  0.07194979  1
  Gd  Gd34  1  0.88685664  0.86526001  0.56459089  1
  Gd  Gd35  1  0.44414933  0.76919962  0.79349116  1
  N  N36  1  0.22235997  0.20159803  0.37503174  1
  N  N37  1  0.10988362  0.09955884  0.11649234  1
  N  N38  1  0.89205674  0.20386088  0.86591848  1
  N  N39  1  0.75041013  0.10751117  0.64005423  1
  N  N40  1  0.55931806  0.19916925  0.37398660  1
  N  N41  1  0.44229909  0.09909389  0.12391594  1
  N  N42  1  0.22611205  0.20533343  0.87350206  1
  N  N43  1  0.15288677  0.06937824  0.63637736  1
  N  N44  1  0.88757591  0.20215274  0.34686154  1
  N  N45  1  0.77519808  0.09599283  0.10744622  1
  N  N46  1  0.55004056  0.21022425  0.87303307  1
  N  N47  1  0.44703378  0.09188671  0.62198349  1
  N  N48  1  0.21739045  0.54316733  0.36972284  1
  N  N49  1  0.10599907  0.40725201  0.13588089  1
  N  N50  1  0.89271876  0.53435200  0.85355416  1
  N  N51  1  0.75841585  0.44916288  0.62522240  1
  N  N52  1  0.55698885  0.53650758  0.35581704  1
  N  N53  1  0.45583579  0.39592934  0.14081480  1
  N  N54  1  0.22611333  0.53353550  0.84108306  1
  N  N55  1  0.11057154  0.42409962  0.61523512  1
  N  N56  1  0.88372833  0.54358464  0.35733430  1
  N  N57  1  0.80305667  0.41042485  0.12307663  1
  N  N58  1  0.56169498  0.51627946  0.85584081  1
  N  N59  1  0.44747654  0.42413277  0.60616828  1
  N  N60  1  0.21170887  0.88134309  0.36663991  1
  N  N61  1  0.09815236  0.78903571  0.12637575  1
  N  N62  1  0.89382139  0.86795581  0.86727970  1
  N  N63  1  0.74976784  0.75711229  0.63817067  1
  N  N64  1  0.55897483  0.87878382  0.36483403  1
  N  N65  1  0.42567298  0.79903631  0.13277753  1
  N  N66  1  0.20113725  0.88031917  0.88437276  1
  N  N67  1  0.14365498  0.75035956  0.62525051  1
  N  N68  1  0.88291279  0.87709393  0.34710577  1
  N  N69  1  0.77919415  0.75999445  0.11586697  1
  N  N70  1  0.56634912  0.88939936  0.88560662  1
  N  N71  1  0.44841570  0.75828594  0.57405824  1
