# generated using pymatgen
data_Gd5Al31N36
_symmetry_space_group_name_H-M   'P 1'
_cell_length_a   9.74161328
_cell_length_b   9.71498968
_cell_length_c   10.40419700
_cell_angle_alpha   89.78680809
_cell_angle_beta   89.47962476
_cell_angle_gamma   60.25961647
_symmetry_Int_Tables_number   1
_chemical_formula_structural   Gd5Al31N36
_chemical_formula_sum   'Gd5 Al31 N36'
_cell_volume   854.91817050
_cell_formula_units_Z   1
loop_
 _symmetry_equiv_pos_site_id
 _symmetry_equiv_pos_as_xyz
  1  'x, y, z'
loop_
 _atom_site_type_symbol
 _atom_site_label
 _atom_site_symmetry_multiplicity
 _atom_site_fract_x
 _atom_site_fract_y
 _atom_site_fract_z
 _atom_site_occupancy
  Al  Al0  1  0.11657826  0.09526662  0.30964530  1
  Al  Al1  1  0.22101277  0.20263011  0.06062241  1
  Al  Al2  1  0.78589555  0.08929683  0.85961717  1
  Al  Al3  1  0.43593384  0.10053575  0.30243052  1
  Al  Al4  1  0.55421611  0.19981783  0.06149288  1
  Al  Al5  1  0.12305445  0.08616681  0.81521140  1
  Al  Al6  1  0.23335947  0.19849615  0.56162589  1
  Al  Al7  1  0.76253690  0.10350867  0.35412123  1
  Al  Al8  1  0.89258671  0.20249654  0.13141815  1
  Al  Al9  1  0.45176359  0.09594655  0.81043271  1
  Al  Al10  1  0.53828423  0.21199222  0.54970023  1
  Al  Al11  1  0.11103356  0.42303356  0.31742509  1
  Al  Al12  1  0.79861311  0.41062004  0.87951845  1
  Al  Al13  1  0.87119097  0.54592764  0.62446444  1
  Al  Al14  1  0.43257888  0.42462266  0.31149599  1
  Al  Al15  1  0.11779951  0.42037208  0.79691546  1
  Al  Al16  1  0.22765793  0.53398570  0.56253701  1
  Al  Al17  1  0.77419866  0.43696258  0.36930455  1
  Al  Al18  1  0.89297677  0.53282262  0.13079702  1
  Al  Al19  1  0.45698858  0.41591485  0.79744805  1
  Al  Al20  1  0.54214158  0.54488196  0.53998030  1
  Al  Al21  1  0.11066349  0.76623284  0.31796499  1
  Al  Al22  1  0.20890334  0.88841176  0.06702361  1
  Al  Al23  1  0.79274313  0.75828541  0.88620945  1
  Al  Al24  1  0.43136546  0.77800842  0.30885404  1
  Al  Al25  1  0.55022297  0.88527260  0.06367831  1
  Al  Al26  1  0.12146799  0.75771669  0.80311969  1
  Al  Al27  1  0.23668296  0.86699540  0.55383957  1
  Al  Al28  1  0.76973027  0.75654290  0.37041908  1
  Al  Al29  1  0.87924335  0.87966671  0.14069268  1
  Al  Al30  1  0.54178764  0.88024874  0.54436703  1
  Gd  Gd31  1  0.89797166  0.20820074  0.59728992  1
  Gd  Gd32  1  0.20915237  0.54662539  0.05513840  1
  Gd  Gd33  1  0.56127958  0.53563628  0.08681045  1
  Gd  Gd34  1  0.88853491  0.86485863  0.59797820  1
  Gd  Gd35  1  0.45197743  0.75832013  0.80399016  1
  N  N36  1  0.22006287  0.20490869  0.37530430  1
  N  N37  1  0.11563812  0.09644457  0.12565715  1
  N  N38  1  0.89658126  0.19811161  0.82312900  1
  N  N39  1  0.75114879  0.11046621  0.55513167  1
  N  N40  1  0.53543811  0.21158120  0.36563265  1
  N  N41  1  0.44096613  0.09792485  0.11841288  1
  N  N42  1  0.22565111  0.20577832  0.87154979  1
  N  N43  1  0.16337230  0.06510876  0.63238260  1
  N  N44  1  0.88338232  0.21312067  0.32624250  1
  N  N45  1  0.77271673  0.09790390  0.10297947  1
  N  N46  1  0.55863651  0.20416576  0.86924161  1
  N  N47  1  0.44852836  0.09296866  0.62112456  1
  N  N48  1  0.21298797  0.54364931  0.37214636  1
  N  N49  1  0.11234565  0.40540184  0.13419831  1
  N  N50  1  0.88397110  0.54228525  0.81343744  1
  N  N51  1  0.76055577  0.45668084  0.55021700  1
  N  N52  1  0.54158793  0.54537902  0.34657846  1
  N  N53  1  0.44507940  0.39992890  0.13355600  1
  N  N54  1  0.22849804  0.53139667  0.83781153  1
  N  N55  1  0.11031181  0.42223869  0.61108674  1
  N  N56  1  0.87855276  0.54467171  0.31365936  1
  N  N57  1  0.82119158  0.40424224  0.06190122  1
  N  N58  1  0.57373204  0.50632552  0.86421121  1
  N  N59  1  0.44721772  0.42437433  0.60873510  1
  N  N60  1  0.21373806  0.88130056  0.37173853  1
  N  N61  1  0.10052173  0.79066632  0.13831010  1
  N  N62  1  0.89474578  0.86853056  0.82554531  1
  N  N63  1  0.75962936  0.74517936  0.55317643  1
  N  N64  1  0.54199237  0.88552638  0.35854257  1
  N  N65  1  0.42483725  0.79781664  0.12332521  1
  N  N66  1  0.20047037  0.87895918  0.88488893  1
  N  N67  1  0.15395015  0.74410244  0.62022241  1
  N  N68  1  0.87756143  0.87378842  0.33383187  1
  N  N69  1  0.79116440  0.75253026  0.07488779  1
  N  N70  1  0.56901252  0.88894469  0.87994300  1
  N  N71  1  0.45096218  0.75639901  0.58718428  1
