# generated using pymatgen
data_Gd5Al31N36
_symmetry_space_group_name_H-M   'P 1'
_cell_length_a   9.72115533
_cell_length_b   9.75001102
_cell_length_c   10.40577536
_cell_angle_alpha   89.72114291
_cell_angle_beta   89.75952336
_cell_angle_gamma   59.76821876
_symmetry_Int_Tables_number   1
_chemical_formula_structural   Gd5Al31N36
_chemical_formula_sum   'Gd5 Al31 N36'
_cell_volume   852.12431959
_cell_formula_units_Z   1
loop_
 _symmetry_equiv_pos_site_id
 _symmetry_equiv_pos_as_xyz
  1  'x, y, z'
loop_
 _atom_site_type_symbol
 _atom_site_label
 _atom_site_symmetry_multiplicity
 _atom_site_fract_x
 _atom_site_fract_y
 _atom_site_fract_z
 _atom_site_occupancy
  Al  Al0  1  0.11277195  0.10260181  0.39102513  1
  Al  Al1  1  0.22313110  0.20137482  0.14715791  1
  Al  Al2  1  0.77786619  0.09648987  0.91744762  1
  Al  Al3  1  0.44085005  0.10082292  0.39712778  1
  Al  Al4  1  0.55555199  0.19174173  0.15043109  1
  Al  Al5  1  0.10817920  0.10577582  0.91324083  1
  Al  Al6  1  0.22906701  0.20310355  0.65043671  1
  Al  Al7  1  0.77085245  0.09730270  0.39125425  1
  Al  Al8  1  0.89796517  0.19799515  0.15490580  1
  Al  Al9  1  0.45265975  0.09333561  0.89754083  1
  Al  Al10  1  0.54903230  0.20957898  0.64779270  1
  Al  Al11  1  0.10919406  0.42639390  0.41232351  1
  Al  Al12  1  0.79249139  0.41814805  0.91404285  1
  Al  Al13  1  0.88085783  0.54322272  0.64884745  1
  Al  Al14  1  0.43829821  0.42007805  0.40698123  1
  Al  Al15  1  0.11014866  0.42408417  0.89132439  1
  Al  Al16  1  0.22664039  0.53992108  0.65093557  1
  Al  Al17  1  0.78564902  0.42913589  0.39173906  1
  Al  Al18  1  0.89499302  0.53014139  0.14991130  1
  Al  Al19  1  0.45004252  0.41138276  0.89648337  1
  Al  Al20  1  0.54971338  0.55062461  0.56609519  1
  Al  Al21  1  0.10821099  0.75829650  0.40257158  1
  Al  Al22  1  0.21752468  0.88203282  0.09001868  1
  Al  Al23  1  0.77928181  0.76256366  0.91121456  1
  Al  Al24  1  0.43213699  0.77438461  0.33291554  1
  Al  Al25  1  0.55648170  0.87955756  0.15407411  1
  Al  Al26  1  0.10423672  0.76518536  0.91308133  1
  Al  Al27  1  0.23381268  0.87138435  0.56622978  1
  Al  Al28  1  0.77768737  0.75749018  0.39174430  1
  Al  Al29  1  0.88593292  0.87603447  0.15356780  1
  Al  Al30  1  0.55626738  0.87875463  0.62357043  1
  Gd  Gd31  1  0.88731302  0.21057337  0.65033651  1
  Gd  Gd32  1  0.21135010  0.53043903  0.15377733  1
  Gd  Gd33  1  0.55637887  0.52500308  0.12751178  1
  Gd  Gd34  1  0.88114796  0.87031680  0.65722507  1
  Gd  Gd35  1  0.44781667  0.75381505  0.83355363  1
  N  N36  1  0.22221159  0.21325847  0.33553753  1
  N  N37  1  0.11105062  0.10058385  0.10157529  1
  N  N38  1  0.89278177  0.20207167  0.86756430  1
  N  N39  1  0.74938180  0.10828299  0.57011705  1
  N  N40  1  0.54915809  0.20926954  0.33525714  1
  N  N41  1  0.44622779  0.08796786  0.08737161  1
  N  N42  1  0.22759316  0.20093300  0.83782726  1
  N  N43  1  0.13697137  0.09255773  0.57629801  1
  N  N44  1  0.88854292  0.20663198  0.34314824  1
  N  N45  1  0.77550287  0.09604639  0.10405785  1
  N  N46  1  0.56335437  0.19917855  0.83407588  1
  N  N47  1  0.44206133  0.10188082  0.58337255  1
  N  N48  1  0.21913769  0.53569212  0.36935766  1
  N  N49  1  0.09762720  0.40756216  0.07219551  1
  N  N50  1  0.88512089  0.54179303  0.83807150  1
  N  N51  1  0.77029398  0.45226515  0.57361363  1
  N  N52  1  0.54830053  0.54242821  0.37157484  1
  N  N53  1  0.44484435  0.38571824  0.07461626  1
  N  N54  1  0.22128733  0.54216151  0.84268066  1
  N  N55  1  0.10822730  0.42853828  0.59926940  1
  N  N56  1  0.89656016  0.53655572  0.33541777  1
  N  N57  1  0.81088282  0.40796050  0.09794460  1
  N  N58  1  0.57517434  0.50620979  0.89372399  1
  N  N59  1  0.44493891  0.42736946  0.59246656  1
  N  N60  1  0.21699312  0.87567938  0.37910467  1
  N  N61  1  0.09748301  0.78144186  0.09874759  1
  N  N62  1  0.88782312  0.87464363  0.87426746  1
  N  N63  1  0.76741423  0.74627468  0.57198074  1
  N  N64  1  0.55563393  0.88091784  0.34312575  1
  N  N65  1  0.42679693  0.78883224  0.14613301  1
  N  N66  1  0.20175619  0.88694778  0.90019274  1
  N  N67  1  0.13243072  0.75164633  0.58783815  1
  N  N68  1  0.88779994  0.87122084  0.34274685  1
  N  N69  1  0.77831795  0.75590111  0.09931152  1
  N  N70  1  0.57941749  0.88650576  0.82980420  1
  N  N71  1  0.44644360  0.76427962  0.61173061  1
