# generated using pymatgen
data_Gd5Al31N36
_symmetry_space_group_name_H-M   'P 1'
_cell_length_a   9.71282748
_cell_length_b   9.72589771
_cell_length_c   10.49579953
_cell_angle_alpha   89.49876530
_cell_angle_beta   89.09357853
_cell_angle_gamma   60.18061685
_symmetry_Int_Tables_number   1
_chemical_formula_structural   Gd5Al31N36
_chemical_formula_sum   'Gd5 Al31 N36'
_cell_volume   860.11101123
_cell_formula_units_Z   1
loop_
 _symmetry_equiv_pos_site_id
 _symmetry_equiv_pos_as_xyz
  1  'x, y, z'
loop_
 _atom_site_type_symbol
 _atom_site_label
 _atom_site_symmetry_multiplicity
 _atom_site_fract_x
 _atom_site_fract_y
 _atom_site_fract_z
 _atom_site_occupancy
  Al  Al0  1  0.11166448  0.09926311  0.33671752  1
  Al  Al1  1  0.22442263  0.19924525  0.08815590  1
  Al  Al2  1  0.79570517  0.08213147  0.91893140  1
  Al  Al3  1  0.43266378  0.10286518  0.32986262  1
  Al  Al4  1  0.55308937  0.19942558  0.08470777  1
  Al  Al5  1  0.12450067  0.08222255  0.84175246  1
  Al  Al6  1  0.23160840  0.19724286  0.60788861  1
  Al  Al7  1  0.76394145  0.10134890  0.39412994  1
  Al  Al8  1  0.88961321  0.20222595  0.15679115  1
  Al  Al9  1  0.45934126  0.08999290  0.83555075  1
  Al  Al10  1  0.53584853  0.21269702  0.57344710  1
  Al  Al11  1  0.10906279  0.43338724  0.41105722  1
  Al  Al12  1  0.79958490  0.40929667  0.91423644  1
  Al  Al13  1  0.87624549  0.54284502  0.64997276  1
  Al  Al14  1  0.43060804  0.42514710  0.33489205  1
  Al  Al15  1  0.10815597  0.41837882  0.89118672  1
  Al  Al16  1  0.22846351  0.53053930  0.65467569  1
  Al  Al17  1  0.77917368  0.43199315  0.39274887  1
  Al  Al18  1  0.90155384  0.52981115  0.15629214  1
  Al  Al19  1  0.47051243  0.40597853  0.82981803  1
  Al  Al20  1  0.54140624  0.54630374  0.56130297  1
  Al  Al21  1  0.10663640  0.76930142  0.33844817  1
  Al  Al22  1  0.20849035  0.89394076  0.09407395  1
  Al  Al23  1  0.79374758  0.75419237  0.91894649  1
  Al  Al24  1  0.42796080  0.78086107  0.33651463  1
  Al  Al25  1  0.54949762  0.88498330  0.09167981  1
  Al  Al26  1  0.11890329  0.76349286  0.83749756  1
  Al  Al27  1  0.22939451  0.86852311  0.57845658  1
  Al  Al28  1  0.77416240  0.75509173  0.39363617  1
  Al  Al29  1  0.87601937  0.88237782  0.16460193  1
  Al  Al30  1  0.54280621  0.87702523  0.56575571  1
  Gd  Gd31  1  0.88060089  0.21510551  0.64438161  1
  Gd  Gd32  1  0.21934267  0.55350883  0.09078668  1
  Gd  Gd33  1  0.56158231  0.54082384  0.11796654  1
  Gd  Gd34  1  0.87884636  0.86862178  0.64154852  1
  Gd  Gd35  1  0.45638875  0.75430255  0.82727393  1
  N  N36  1  0.21773911  0.20642557  0.39590606  1
  N  N37  1  0.11342494  0.10174175  0.15216164  1
  N  N38  1  0.89869427  0.19541374  0.86287745  1
  N  N39  1  0.75282250  0.10703577  0.57285843  1
  N  N40  1  0.53295236  0.21334094  0.39182069  1
  N  N41  1  0.44101817  0.09880278  0.14518408  1
  N  N42  1  0.23504880  0.19239645  0.88203857  1
  N  N43  1  0.14883105  0.06802230  0.65747489  1
  N  N44  1  0.87707575  0.21138587  0.34496578  1
  N  N45  1  0.77956431  0.09277837  0.10231115  1
  N  N46  1  0.56272137  0.19843453  0.89669218  1
  N  N47  1  0.45361886  0.08725257  0.64766001  1
  N  N48  1  0.21033638  0.54813505  0.36446538  1
  N  N49  1  0.09921711  0.41829983  0.07572629  1
  N  N50  1  0.88581503  0.53800250  0.83852688  1
  N  N51  1  0.76304132  0.45587290  0.57250615  1
  N  N52  1  0.54221636  0.54609921  0.37197916  1
  N  N53  1  0.45711014  0.39377046  0.15850397  1
  N  N54  1  0.22954442  0.52783280  0.85420226  1
  N  N55  1  0.10674632  0.43023824  0.60395609  1
  N  N56  1  0.89332025  0.53622830  0.33829337  1
  N  N57  1  0.81799456  0.40677687  0.09509565  1
  N  N58  1  0.57587650  0.50534980  0.89571961  1
  N  N59  1  0.45450193  0.42066047  0.64226311  1
  N  N60  1  0.20882128  0.88341553  0.39806909  1
  N  N61  1  0.09469401  0.80203254  0.16010303  1
  N  N62  1  0.89600063  0.86607861  0.86346768  1
  N  N63  1  0.76297459  0.74271674  0.57619203  1
  N  N64  1  0.54317659  0.88453702  0.38343413  1
  N  N65  1  0.42108964  0.80284121  0.15314341  1
  N  N66  1  0.20629310  0.87658176  0.91315596  1
  N  N67  1  0.14646126  0.74966911  0.65519448  1
  N  N68  1  0.87201773  0.87895335  0.35212511  1
  N  N69  1  0.78739986  0.75264940  0.10486655  1
  N  N70  1  0.57089544  0.88419332  0.90796699  1
  N  N71  1  0.44649192  0.75793125  0.61113497  1
