# generated using pymatgen
data_Gd5Al31N36
_symmetry_space_group_name_H-M   'P 1'
_cell_length_a   9.64173724
_cell_length_b   9.69665185
_cell_length_c   10.73135102
_cell_angle_alpha   89.46278994
_cell_angle_beta   89.01247931
_cell_angle_gamma   59.64101467
_symmetry_Int_Tables_number   1
_chemical_formula_structural   Gd5Al31N36
_chemical_formula_sum   'Gd5 Al31 N36'
_cell_volume   865.59569806
_cell_formula_units_Z   1
loop_
 _symmetry_equiv_pos_site_id
 _symmetry_equiv_pos_as_xyz
  1  'x, y, z'
loop_
 _atom_site_type_symbol
 _atom_site_label
 _atom_site_symmetry_multiplicity
 _atom_site_fract_x
 _atom_site_fract_y
 _atom_site_fract_z
 _atom_site_occupancy
  Al  Al0  1  0.10775565  0.10274479  0.40013493  1
  Al  Al1  1  0.21670425  0.20995736  0.15406292  1
  Al  Al2  1  0.78175213  0.08938848  0.92150403  1
  Al  Al3  1  0.43928632  0.09132264  0.33398134  1
  Al  Al4  1  0.56325457  0.19751414  0.16958459  1
  Al  Al5  1  0.11500603  0.09367639  0.91774658  1
  Al  Al6  1  0.22257666  0.20231248  0.65117268  1
  Al  Al7  1  0.77187868  0.09768560  0.39613257  1
  Al  Al8  1  0.89981255  0.19866810  0.15606068  1
  Al  Al9  1  0.46155740  0.08749528  0.82745464  1
  Al  Al10  1  0.54851309  0.20907479  0.61855459  1
  Al  Al11  1  0.10506495  0.42766552  0.40854684  1
  Al  Al12  1  0.79872149  0.41022386  0.91639261  1
  Al  Al13  1  0.88008195  0.53957104  0.64706458  1
  Al  Al14  1  0.43147926  0.43229751  0.34369190  1
  Al  Al15  1  0.11240521  0.41338130  0.88931599  1
  Al  Al16  1  0.22059265  0.54489023  0.58842662  1
  Al  Al17  1  0.78249407  0.42768865  0.39317053  1
  Al  Al18  1  0.89944855  0.53073024  0.15547358  1
  Al  Al19  1  0.45791398  0.41600250  0.81682145  1
  Al  Al20  1  0.54426500  0.54736069  0.56064435  1
  Al  Al21  1  0.10628876  0.76859720  0.33989593  1
  Al  Al22  1  0.21733932  0.88183904  0.09695031  1
  Al  Al23  1  0.79724757  0.75254776  0.92256091  1
  Al  Al24  1  0.43218227  0.77534257  0.33300823  1
  Al  Al25  1  0.55026858  0.88834376  0.08974702  1
  Al  Al26  1  0.12431008  0.75429528  0.83156303  1
  Al  Al27  1  0.22541458  0.86681310  0.57148225  1
  Al  Al28  1  0.77698727  0.75490477  0.39668260  1
  Al  Al29  1  0.87801993  0.88082733  0.16394701  1
  Al  Al30  1  0.53975582  0.87487467  0.56393075  1
  Gd  Gd31  1  0.88273552  0.21297492  0.66093139  1
  Gd  Gd32  1  0.21535938  0.55568926  0.07461314  1
  Gd  Gd33  1  0.55426280  0.54158481  0.10753077  1
  Gd  Gd34  1  0.85804943  0.88059388  0.66021970  1
  Gd  Gd35  1  0.45984990  0.75512392  0.82585791  1
  N  N36  1  0.20897543  0.21698024  0.33838548  1
  N  N37  1  0.11473441  0.10199367  0.09713405  1
  N  N38  1  0.89931889  0.19328701  0.87316199  1
  N  N39  1  0.75746521  0.11092313  0.56689770  1
  N  N40  1  0.55006065  0.20367994  0.35923176  1
  N  N41  1  0.44768871  0.09433151  0.15171738  1
  N  N42  1  0.22368933  0.19481092  0.83514135  1
  N  N43  1  0.13195640  0.09189475  0.57922303  1
  N  N44  1  0.88809725  0.20542525  0.33888811  1
  N  N45  1  0.77442923  0.09791874  0.10382044  1
  N  N46  1  0.58135499  0.19085377  0.82920712  1
  N  N47  1  0.45334414  0.08089712  0.63994972  1
  N  N48  1  0.21297327  0.55073530  0.40305819  1
  N  N49  1  0.10262875  0.41056860  0.07451366  1
  N  N50  1  0.88559982  0.53749744  0.83706480  1
  N  N51  1  0.76880515  0.44861591  0.57189384  1
  N  N52  1  0.54658026  0.54508251  0.37601316  1
  N  N53  1  0.43817152  0.41243403  0.16938724  1
  N  N54  1  0.23157071  0.52488740  0.86152070  1
  N  N55  1  0.10669240  0.42337150  0.59318579  1
  N  N56  1  0.89240507  0.53746098  0.33568403  1
  N  N57  1  0.81357000  0.40955753  0.09645623  1
  N  N58  1  0.57331673  0.50301364  0.89174072  1
  N  N59  1  0.44382666  0.43335966  0.63012718  1
  N  N60  1  0.21550985  0.87245227  0.39355450  1
  N  N61  1  0.10066616  0.79482720  0.16593093  1
  N  N62  1  0.90044852  0.86422070  0.87339875  1
  N  N63  1  0.76584189  0.74168885  0.57493889  1
  N  N64  1  0.54305222  0.87875851  0.38775000  1
  N  N65  1  0.42770077  0.80089874  0.15601174  1
  N  N66  1  0.21400714  0.86323556  0.91445563  1
  N  N67  1  0.13057605  0.75844287  0.65037357  1
  N  N68  1  0.87241234  0.87723163  0.34745442  1
  N  N69  1  0.78992628  0.75185360  0.10319339  1
  N  N70  1  0.56977375  0.88911515  0.91018168  1
  N  N71  1  0.44128542  0.76007002  0.61540732  1
