# generated using pymatgen
data_Gd5Al31N36
_symmetry_space_group_name_H-M   'P 1'
_cell_length_a   9.74054256
_cell_length_b   9.71115852
_cell_length_c   10.36250833
_cell_angle_alpha   89.94987572
_cell_angle_beta   89.60175393
_cell_angle_gamma   60.22110034
_symmetry_Int_Tables_number   1
_chemical_formula_structural   Gd5Al31N36
_chemical_formula_sum   'Gd5 Al31 N36'
_cell_volume   850.74732638
_cell_formula_units_Z   1
loop_
 _symmetry_equiv_pos_site_id
 _symmetry_equiv_pos_as_xyz
  1  'x, y, z'
loop_
 _atom_site_type_symbol
 _atom_site_label
 _atom_site_symmetry_multiplicity
 _atom_site_fract_x
 _atom_site_fract_y
 _atom_site_fract_z
 _atom_site_occupancy
  Al  Al0  1  0.11717535  0.09532621  0.30915712  1
  Al  Al1  1  0.22320953  0.20183756  0.06065588  1
  Al  Al2  1  0.77123238  0.09750141  0.81745639  1
  Al  Al3  1  0.43909632  0.10101023  0.30640823  1
  Al  Al4  1  0.55549099  0.19903973  0.05928832  1
  Al  Al5  1  0.11977585  0.08846967  0.81393182  1
  Al  Al6  1  0.23005898  0.20001113  0.56208189  1
  Al  Al7  1  0.76526214  0.09628671  0.30303109  1
  Al  Al8  1  0.89628782  0.20365497  0.12514835  1
  Al  Al9  1  0.44904949  0.09656389  0.81033514  1
  Al  Al10  1  0.54510119  0.20566077  0.55970915  1
  Al  Al11  1  0.11228814  0.42404362  0.31787886  1
  Al  Al12  1  0.79904608  0.40766404  0.87903448  1
  Al  Al13  1  0.87242823  0.54328743  0.62927160  1
  Al  Al14  1  0.43846832  0.42154898  0.31791754  1
  Al  Al15  1  0.11899464  0.41959680  0.79959629  1
  Al  Al16  1  0.22589942  0.53580300  0.56412973  1
  Al  Al17  1  0.77547319  0.43790099  0.36924449  1
  Al  Al18  1  0.89438236  0.53312810  0.12890062  1
  Al  Al19  1  0.45494273  0.41727466  0.79799684  1
  Al  Al20  1  0.54324164  0.54465840  0.54029765  1
  Al  Al21  1  0.10273429  0.77158770  0.30971241  1
  Al  Al22  1  0.21330017  0.88803200  0.06566589  1
  Al  Al23  1  0.78672922  0.75398607  0.88109313  1
  Al  Al24  1  0.43120323  0.77718719  0.31314302  1
  Al  Al25  1  0.54955282  0.88567215  0.06563781  1
  Al  Al26  1  0.11848134  0.76005604  0.80943221  1
  Al  Al27  1  0.23178567  0.86764678  0.55375939  1
  Al  Al28  1  0.76968119  0.76503968  0.34379543  1
  Al  Al29  1  0.89187037  0.88199806  0.06184981  1
  Al  Al30  1  0.54499050  0.87842065  0.54644482  1
  Gd  Gd31  1  0.89387683  0.20046048  0.58755278  1
  Gd  Gd32  1  0.21793606  0.53988217  0.05867198  1
  Gd  Gd33  1  0.56115707  0.53651716  0.08734061  1
  Gd  Gd34  1  0.89045375  0.86433374  0.57405251  1
  Gd  Gd35  1  0.45199686  0.75795409  0.79996008  1
  N  N36  1  0.22163108  0.20543075  0.37487145  1
  N  N37  1  0.11726527  0.09642595  0.12495051  1
  N  N38  1  0.89739682  0.19821204  0.82366602  1
  N  N39  1  0.73836003  0.10649476  0.63746623  1
  N  N40  1  0.55266389  0.20276015  0.37380620  1
  N  N41  1  0.44235344  0.09858108  0.12154438  1
  N  N42  1  0.22563637  0.20511166  0.87177157  1
  N  N43  1  0.15606304  0.06847892  0.62987308  1
  N  N44  1  0.88322750  0.21167205  0.32709808  1
  N  N45  1  0.77257121  0.09762950  0.11500455  1
  N  N46  1  0.55177888  0.20768301  0.87344411  1
  N  N47  1  0.44285753  0.09346974  0.62026731  1
  N  N48  1  0.21353848  0.54564807  0.37073198  1
  N  N49  1  0.11294009  0.40516576  0.13387314  1
  N  N50  1  0.88703002  0.53744498  0.81846449  1
  N  N51  1  0.76291401  0.45320354  0.55169689  1
  N  N52  1  0.54437440  0.54496871  0.34774086  1
  N  N53  1  0.45262608  0.39461801  0.14012892  1
  N  N54  1  0.22833729  0.53186200  0.84110905  1
  N  N55  1  0.11006721  0.42354303  0.61245533  1
  N  N56  1  0.87981821  0.54611477  0.31430808  1
  N  N57  1  0.81986728  0.40607747  0.06280747  1
  N  N58  1  0.57296975  0.50699107  0.86408142  1
  N  N59  1  0.44621316  0.42542234  0.60713789  1
  N  N60  1  0.21049775  0.88133378  0.36989819  1
  N  N61  1  0.09775619  0.79249532  0.12935386  1
  N  N62  1  0.89787406  0.86992914  0.86713683  1
  N  N63  1  0.75498892  0.74976916  0.58163235  1
  N  N64  1  0.54612037  0.88400507  0.35948168  1
  N  N65  1  0.42524267  0.79816270  0.12713181  1
  N  N66  1  0.20405555  0.88020736  0.88385111  1
  N  N67  1  0.14877182  0.74644182  0.62768867  1
  N  N68  1  0.88005195  0.87862545  0.35146262  1
  N  N69  1  0.78606697  0.75417889  0.07928196  1
  N  N70  1  0.56554012  0.88975315  0.88120319  1
  N  N71  1  0.44674871  0.75817731  0.58139580  1
