# generated using pymatgen
data_Gd5Al31N36
_symmetry_space_group_name_H-M   'P 1'
_cell_length_a   9.71428013
_cell_length_b   9.71771779
_cell_length_c   10.57953058
_cell_angle_alpha   89.48087715
_cell_angle_beta   89.50318042
_cell_angle_gamma   59.92104244
_symmetry_Int_Tables_number   1
_chemical_formula_structural   Gd5Al31N36
_chemical_formula_sum   'Gd5 Al31 N36'
_cell_volume   864.17774051
_cell_formula_units_Z   1
loop_
 _symmetry_equiv_pos_site_id
 _symmetry_equiv_pos_as_xyz
  1  'x, y, z'
loop_
 _atom_site_type_symbol
 _atom_site_label
 _atom_site_symmetry_multiplicity
 _atom_site_fract_x
 _atom_site_fract_y
 _atom_site_fract_z
 _atom_site_occupancy
  Al  Al0  1  0.11109308  0.10177381  0.39876564  1
  Al  Al1  1  0.21465464  0.20659825  0.15202120  1
  Al  Al2  1  0.78307746  0.08864307  0.91594727  1
  Al  Al3  1  0.44068036  0.09571997  0.32890866  1
  Al  Al4  1  0.55959868  0.19737562  0.15181500  1
  Al  Al5  1  0.11049713  0.09893893  0.91623453  1
  Al  Al6  1  0.22480162  0.20290377  0.65079319  1
  Al  Al7  1  0.76512384  0.10482543  0.39368378  1
  Al  Al8  1  0.90020602  0.19465379  0.15456156  1
  Al  Al9  1  0.45702783  0.08740229  0.83079910  1
  Al  Al10  1  0.55117508  0.21449292  0.64539774  1
  Al  Al11  1  0.10900331  0.43149649  0.40715335  1
  Al  Al12  1  0.79431793  0.41503847  0.91735377  1
  Al  Al13  1  0.88066119  0.54136017  0.64918404  1
  Al  Al14  1  0.43062938  0.42672788  0.39993147  1
  Al  Al15  1  0.11066025  0.41595957  0.89383720  1
  Al  Al16  1  0.23142136  0.53075913  0.65683765  1
  Al  Al17  1  0.78631880  0.42637561  0.39277202  1
  Al  Al18  1  0.89555851  0.53014702  0.15400659  1
  Al  Al19  1  0.45917073  0.40538904  0.89945142  1
  Al  Al20  1  0.54909047  0.54913447  0.56197697  1
  Al  Al21  1  0.10543751  0.77275513  0.33593086  1
  Al  Al22  1  0.21624850  0.88175185  0.09293920  1
  Al  Al23  1  0.79398698  0.75513979  0.91675077  1
  Al  Al24  1  0.43200105  0.77898085  0.33294152  1
  Al  Al25  1  0.54933718  0.88459890  0.08794295  1
  Al  Al26  1  0.11854081  0.76216230  0.83965157  1
  Al  Al27  1  0.23232275  0.86347649  0.57222932  1
  Al  Al28  1  0.77571045  0.75508995  0.39532595  1
  Al  Al29  1  0.87479934  0.88292724  0.16185514  1
  Al  Al30  1  0.54197372  0.87939705  0.56638126  1
  Gd  Gd31  1  0.88771483  0.21095019  0.65647945  1
  Gd  Gd32  1  0.20813561  0.54321579  0.12593953  1
  Gd  Gd33  1  0.55816183  0.53006638  0.13073505  1
  Gd  Gd34  1  0.87623236  0.87328457  0.64130167  1
  Gd  Gd35  1  0.45406797  0.75522294  0.82888209  1
  N  N36  1  0.21169587  0.21722622  0.33922463  1
  N  N37  1  0.11197133  0.10132875  0.09833058  1
  N  N38  1  0.89556261  0.19791840  0.87058412  1
  N  N39  1  0.74762010  0.11774044  0.56829890  1
  N  N40  1  0.54983181  0.21584706  0.33547296  1
  N  N41  1  0.44349989  0.09192206  0.14651212  1
  N  N42  1  0.22150016  0.19836189  0.83714585  1
  N  N43  1  0.13679292  0.08903847  0.57943767  1
  N  N44  1  0.88991633  0.20422806  0.34085021  1
  N  N45  1  0.77523416  0.09434398  0.09961270  1
  N  N46  1  0.57331348  0.19852066  0.83069612  1
  N  N47  1  0.45249372  0.08495082  0.64271909  1
  N  N48  1  0.21425123  0.54289875  0.35120731  1
  N  N49  1  0.09610530  0.40804181  0.07364473  1
  N  N50  1  0.88674307  0.53844434  0.83799141  1
  N  N51  1  0.77080639  0.44889558  0.57257845  1
  N  N52  1  0.54883131  0.54410973  0.37057540  1
  N  N53  1  0.45174366  0.38748642  0.07436394  1
  N  N54  1  0.23020520  0.52463631  0.84835687  1
  N  N55  1  0.11003549  0.42912724  0.59546905  1
  N  N56  1  0.89278247  0.53793997  0.33659730  1
  N  N57  1  0.81193301  0.40718672  0.09859151  1
  N  N58  1  0.57620102  0.51024057  0.89442337  1
  N  N59  1  0.43915643  0.42861751  0.58450369  1
  N  N60  1  0.21791936  0.87119831  0.39183666  1
  N  N61  1  0.09243794  0.80457770  0.15856525  1
  N  N62  1  0.89360096  0.86874890  0.86160785  1
  N  N63  1  0.76485700  0.74245040  0.57587752  1
  N  N64  1  0.54379017  0.88344181  0.38596059  1
  N  N65  1  0.42689505  0.79626911  0.15178420  1
  N  N66  1  0.20776723  0.87275018  0.91180954  1
  N  N67  1  0.14380283  0.75429415  0.65534642  1
  N  N68  1  0.87306669  0.87923052  0.35159595  1
  N  N69  1  0.78926783  0.75170367  0.10210146  1
  N  N70  1  0.56907273  0.88811268  0.90802225  1
  N  N71  1  0.44694723  0.75981000  0.61317395  1
