# generated using pymatgen
data_Gd5Al31N36
_symmetry_space_group_name_H-M   'P 1'
_cell_length_a   9.69284184
_cell_length_b   9.70907088
_cell_length_c   10.51213680
_cell_angle_alpha   89.54637763
_cell_angle_beta   89.26392283
_cell_angle_gamma   60.02943950
_symmetry_Int_Tables_number   1
_chemical_formula_structural   Gd5Al31N36
_chemical_formula_sum   'Gd5 Al31 N36'
_cell_volume   856.92477858
_cell_formula_units_Z   1
loop_
 _symmetry_equiv_pos_site_id
 _symmetry_equiv_pos_as_xyz
  1  'x, y, z'
loop_
 _atom_site_type_symbol
 _atom_site_label
 _atom_site_symmetry_multiplicity
 _atom_site_fract_x
 _atom_site_fract_y
 _atom_site_fract_z
 _atom_site_occupancy
  Al  Al0  1  0.11187331  0.09811521  0.30792500  1
  Al  Al1  1  0.22105577  0.20387855  0.05516362  1
  Al  Al2  1  0.79596617  0.08199637  0.89382580  1
  Al  Al3  1  0.43348716  0.10243982  0.30068617  1
  Al  Al4  1  0.54994150  0.20166721  0.05906151  1
  Al  Al5  1  0.12729852  0.08130722  0.81684709  1
  Al  Al6  1  0.23202577  0.19423055  0.56301465  1
  Al  Al7  1  0.76467347  0.10177117  0.36825588  1
  Al  Al8  1  0.89119516  0.20273841  0.12873990  1
  Al  Al9  1  0.45724259  0.09166568  0.80978303  1
  Al  Al10  1  0.53587749  0.21269659  0.54721108  1
  Al  Al11  1  0.10506230  0.43108586  0.36056358  1
  Al  Al12  1  0.80240207  0.40911446  0.88768877  1
  Al  Al13  1  0.87174642  0.54509563  0.62222628  1
  Al  Al14  1  0.43171317  0.42534763  0.31106167  1
  Al  Al15  1  0.11948574  0.41741750  0.80281194  1
  Al  Al16  1  0.22822078  0.53971563  0.56810197  1
  Al  Al17  1  0.77655604  0.43187257  0.36705153  1
  Al  Al18  1  0.89902867  0.53123964  0.13394931  1
  Al  Al19  1  0.46292781  0.41050173  0.79700668  1
  Al  Al20  1  0.54200293  0.54692441  0.53540008  1
  Al  Al21  1  0.10651111  0.77087065  0.31802027  1
  Al  Al22  1  0.20992875  0.88956629  0.06812071  1
  Al  Al23  1  0.79700703  0.75241581  0.89434200  1
  Al  Al24  1  0.42925721  0.77985563  0.30864735  1
  Al  Al25  1  0.55050655  0.88479034  0.06498034  1
  Al  Al26  1  0.12535345  0.75530162  0.80479483  1
  Al  Al27  1  0.22859098  0.87150132  0.55283693  1
  Al  Al28  1  0.77121601  0.75888037  0.36936424  1
  Al  Al29  1  0.87850503  0.88087146  0.13967125  1
  Al  Al30  1  0.54089853  0.87854132  0.54049734  1
  Gd  Gd31  1  0.88132954  0.21535615  0.62129436  1
  Gd  Gd32  1  0.21371302  0.55087377  0.05045930  1
  Gd  Gd33  1  0.55786228  0.53912917  0.08674021  1
  Gd  Gd34  1  0.87338179  0.87235281  0.62108190  1
  Gd  Gd35  1  0.45921976  0.75342710  0.80126775  1
  N  N36  1  0.21741791  0.20500277  0.37697786  1
  N  N37  1  0.11587390  0.09869641  0.12456837  1
  N  N38  1  0.90124893  0.19368298  0.83845001  1
  N  N39  1  0.75331722  0.10875930  0.54643284  1
  N  N40  1  0.53258959  0.21243720  0.36555422  1
  N  N41  1  0.44057742  0.09800083  0.11818345  1
  N  N42  1  0.23172915  0.19778194  0.86582356  1
  N  N43  1  0.15097580  0.07022789  0.63195988  1
  N  N44  1  0.87760671  0.21183228  0.31731675  1
  N  N45  1  0.77928949  0.09330648  0.07694917  1
  N  N46  1  0.56125726  0.20080395  0.86909520  1
  N  N47  1  0.45060216  0.08933924  0.62066643  1
  N  N48  1  0.21344049  0.54910445  0.37823746  1
  N  N49  1  0.11012424  0.41284705  0.10204720  1
  N  N50  1  0.88572312  0.53898565  0.81081476  1
  N  N51  1  0.76303067  0.45490421  0.54599550  1
  N  N52  1  0.54121466  0.54653680  0.34597405  1
  N  N53  1  0.44814590  0.39760171  0.13582666  1
  N  N54  1  0.23254800  0.52780490  0.83181684  1
  N  N55  1  0.10912069  0.42407724  0.59967390  1
  N  N56  1  0.88521381  0.54124752  0.31622270  1
  N  N57  1  0.81734603  0.40872358  0.06772992  1
  N  N58  1  0.57743653  0.50263342  0.86541323  1
  N  N59  1  0.45135661  0.42395311  0.60917800  1
  N  N60  1  0.21045067  0.88441499  0.37240089  1
  N  N61  1  0.10075401  0.79315624  0.14016511  1
  N  N62  1  0.90062015  0.86348238  0.83994971  1
  N  N63  1  0.76155509  0.74489712  0.55023398  1
  N  N64  1  0.54093249  0.88614672  0.35809475  1
  N  N65  1  0.42412629  0.80009848  0.12632749  1
  N  N66  1  0.20813362  0.87293058  0.88592966  1
  N  N67  1  0.14206475  0.75210489  0.62198587  1
  N  N68  1  0.87233098  0.87903415  0.32697140  1
  N  N69  1  0.78863947  0.75266785  0.07970204  1
  N  N70  1  0.57269032  0.88469352  0.88160163  1
  N  N71  1  0.44624928  0.75830469  0.58600664  1
