# generated using pymatgen
data_Gd5Al31N36
_symmetry_space_group_name_H-M   'P 1'
_cell_length_a   9.74478039
_cell_length_b   9.75581388
_cell_length_c   10.32994882
_cell_angle_alpha   89.79019152
_cell_angle_beta   90.22257850
_cell_angle_gamma   59.77247244
_symmetry_Int_Tables_number   1
_chemical_formula_structural   Gd5Al31N36
_chemical_formula_sum   'Gd5 Al31 N36'
_cell_volume   848.49955752
_cell_formula_units_Z   1
loop_
 _symmetry_equiv_pos_site_id
 _symmetry_equiv_pos_as_xyz
  1  'x, y, z'
loop_
 _atom_site_type_symbol
 _atom_site_label
 _atom_site_symmetry_multiplicity
 _atom_site_fract_x
 _atom_site_fract_y
 _atom_site_fract_z
 _atom_site_occupancy
  Al  Al0  1  0.11444675  0.10216019  0.38894604  1
  Al  Al1  1  0.22325545  0.20125900  0.14739352  1
  Al  Al2  1  0.77710306  0.09592595  0.91498336  1
  Al  Al3  1  0.44266676  0.09889149  0.39845016  1
  Al  Al4  1  0.55581528  0.19164681  0.14847479  1
  Al  Al5  1  0.10503057  0.10674344  0.91378309  1
  Al  Al6  1  0.23030881  0.20259495  0.64883374  1
  Al  Al7  1  0.76973725  0.09929911  0.38959365  1
  Al  Al8  1  0.89620718  0.19989479  0.15371484  1
  Al  Al9  1  0.45113842  0.09635428  0.89575229  1
  Al  Al10  1  0.55071153  0.20727324  0.64768396  1
  Al  Al11  1  0.10910728  0.42708180  0.41008799  1
  Al  Al12  1  0.78896728  0.41897862  0.90633730  1
  Al  Al13  1  0.88161648  0.54400162  0.64871392  1
  Al  Al14  1  0.44093641  0.42439084  0.41017407  1
  Al  Al15  1  0.10847273  0.42406992  0.89094339  1
  Al  Al16  1  0.22590299  0.53998850  0.65010385  1
  Al  Al17  1  0.77919255  0.43369584  0.39665677  1
  Al  Al18  1  0.89333765  0.53090404  0.14831379  1
  Al  Al19  1  0.45045698  0.41149913  0.88973228  1
  Al  Al20  1  0.55235471  0.54612523  0.60466961  1
  Al  Al21  1  0.11107969  0.75772857  0.39993852  1
  Al  Al22  1  0.21201625  0.88262024  0.09309820  1
  Al  Al23  1  0.78035463  0.76285786  0.90729691  1
  Al  Al24  1  0.43551115  0.77202551  0.33067940  1
  Al  Al25  1  0.55643963  0.87950050  0.15022544  1
  Al  Al26  1  0.10082365  0.76468355  0.91259436  1
  Al  Al27  1  0.24132743  0.86806383  0.56764512  1
  Al  Al28  1  0.77410349  0.75885298  0.39375406  1
  Al  Al29  1  0.88389779  0.87488400  0.15446584  1
  Al  Al30  1  0.55808867  0.87869568  0.64151615  1
  Gd  Gd31  1  0.89371939  0.20593494  0.64765963  1
  Gd  Gd32  1  0.21750467  0.52655901  0.15111872  1
  Gd  Gd33  1  0.56010358  0.52006967  0.13548720  1
  Gd  Gd34  1  0.88628146  0.86970705  0.65110840  1
  Gd  Gd35  1  0.44406274  0.76196697  0.85489383  1
  N  N36  1  0.22375042  0.21303319  0.33562097  1
  N  N37  1  0.10968542  0.10106335  0.10375406  1
  N  N38  1  0.89152881  0.20142356  0.86566376  1
  N  N39  1  0.74899963  0.11036904  0.56944960  1
  N  N40  1  0.54760060  0.21151729  0.33488940  1
  N  N41  1  0.44472796  0.08919100  0.08518094  1
  N  N42  1  0.22561902  0.20060363  0.83772108  1
  N  N43  1  0.14141363  0.08971899  0.57410790  1
  N  N44  1  0.88724625  0.20939597  0.34347779  1
  N  N45  1  0.77563673  0.09492056  0.10352277  1
  N  N46  1  0.56289823  0.19789983  0.83346320  1
  N  N47  1  0.44398346  0.09944488  0.58561903  1
  N  N48  1  0.22087756  0.53505842  0.36823340  1
  N  N49  1  0.09709805  0.40796667  0.07354909  1
  N  N50  1  0.88471937  0.54231075  0.83741625  1
  N  N51  1  0.76973140  0.45165843  0.57881458  1
  N  N52  1  0.54837233  0.54338955  0.36705836  1
  N  N53  1  0.45101680  0.38566300  0.06867780  1
  N  N54  1  0.21858593  0.54212717  0.84285556  1
  N  N55  1  0.10799287  0.42902271  0.59813718  1
  N  N56  1  0.89298415  0.53778498  0.33612718  1
  N  N57  1  0.80870537  0.40937365  0.09066916  1
  N  N58  1  0.57550487  0.50353051  0.86504491  1
  N  N59  1  0.44487278  0.42640700  0.59648902  1
  N  N60  1  0.22135821  0.87428466  0.37572328  1
  N  N61  1  0.09479650  0.77954193  0.10075870  1
  N  N62  1  0.88649752  0.87500673  0.86982703  1
  N  N63  1  0.76424027  0.74872822  0.57528242  1
  N  N64  1  0.55515302  0.88100095  0.33788416  1
  N  N65  1  0.42848765  0.78538900  0.13509992  1
  N  N66  1  0.19278971  0.88961148  0.90106290  1
  N  N67  1  0.13757097  0.75046569  0.58562306  1
  N  N68  1  0.88685745  0.87137298  0.34480449  1
  N  N69  1  0.77673141  0.75641957  0.09585615  1
  N  N70  1  0.57971729  0.89005891  0.82850118  1
  N  N71  1  0.44724693  0.76461510  0.62814513  1
