# generated using pymatgen
data_Gd5Al31N36
_symmetry_space_group_name_H-M   'P 1'
_cell_length_a   9.69455896
_cell_length_b   9.71309926
_cell_length_c   10.51170118
_cell_angle_alpha   89.52505982
_cell_angle_beta   89.23949226
_cell_angle_gamma   60.02668611
_symmetry_Int_Tables_number   1
_chemical_formula_structural   Gd5Al31N36
_chemical_formula_sum   'Gd5 Al31 N36'
_cell_volume   857.36784015
_cell_formula_units_Z   1
loop_
 _symmetry_equiv_pos_site_id
 _symmetry_equiv_pos_as_xyz
  1  'x, y, z'
loop_
 _atom_site_type_symbol
 _atom_site_label
 _atom_site_symmetry_multiplicity
 _atom_site_fract_x
 _atom_site_fract_y
 _atom_site_fract_z
 _atom_site_occupancy
  Al  Al0  1  0.11204633  0.09830600  0.30813253  1
  Al  Al1  1  0.22207141  0.20215532  0.05414936  1
  Al  Al2  1  0.79597745  0.08188719  0.89382218  1
  Al  Al3  1  0.43313633  0.10266904  0.30089877  1
  Al  Al4  1  0.54994234  0.20157079  0.05903353  1
  Al  Al5  1  0.12727791  0.08055671  0.81636511  1
  Al  Al6  1  0.23246163  0.19333267  0.56322638  1
  Al  Al7  1  0.76462910  0.10174029  0.36838227  1
  Al  Al8  1  0.89092377  0.20270614  0.12903452  1
  Al  Al9  1  0.45783384  0.09103953  0.80923418  1
  Al  Al10  1  0.53587963  0.21269935  0.54715975  1
  Al  Al11  1  0.10232137  0.43284499  0.37982751  1
  Al  Al12  1  0.80184711  0.40875879  0.88809527  1
  Al  Al13  1  0.87313930  0.54443512  0.62223795  1
  Al  Al14  1  0.43145303  0.42535727  0.31135729  1
  Al  Al15  1  0.11720228  0.41806382  0.82309136  1
  Al  Al16  1  0.22860564  0.54038702  0.56859981  1
  Al  Al17  1  0.77718974  0.43179124  0.36651500  1
  Al  Al18  1  0.90052251  0.53061494  0.13288676  1
  Al  Al19  1  0.46308828  0.41023412  0.79684977  1
  Al  Al20  1  0.54232298  0.54694913  0.53514662  1
  Al  Al21  1  0.10660571  0.77090912  0.31807297  1
  Al  Al22  1  0.20964175  0.89019320  0.06830511  1
  Al  Al23  1  0.79688939  0.75274497  0.89469018  1
  Al  Al24  1  0.42921408  0.77996981  0.30867289  1
  Al  Al25  1  0.55052088  0.88478222  0.06516015  1
  Al  Al26  1  0.12507925  0.75545346  0.80470213  1
  Al  Al27  1  0.22868195  0.87147467  0.55268561  1
  Al  Al28  1  0.77176883  0.75822367  0.36883473  1
  Al  Al29  1  0.87816691  0.88113768  0.13990537  1
  Al  Al30  1  0.54122389  0.87822368  0.54021809  1
  Gd  Gd31  1  0.88114143  0.21559266  0.62111451  1
  Gd  Gd32  1  0.21553753  0.55282860  0.05106351  1
  Gd  Gd33  1  0.55771147  0.53917964  0.08731305  1
  Gd  Gd34  1  0.87342579  0.87214978  0.62072494  1
  Gd  Gd35  1  0.45914327  0.75338360  0.80133692  1
  N  N36  1  0.21786809  0.20451480  0.37621783  1
  N  N37  1  0.11569516  0.09939921  0.12478292  1
  N  N38  1  0.90128952  0.19361555  0.83847637  1
  N  N39  1  0.75328983  0.10875791  0.54665767  1
  N  N40  1  0.53266573  0.21234681  0.36567449  1
  N  N41  1  0.44020725  0.09826942  0.11819947  1
  N  N42  1  0.23379992  0.19398553  0.86498164  1
  N  N43  1  0.15073429  0.07012091  0.63181906  1
  N  N44  1  0.87767592  0.21160740  0.31746758  1
  N  N45  1  0.77915380  0.09330857  0.07686326  1
  N  N46  1  0.56116156  0.20068045  0.86899828  1
  N  N47  1  0.45073291  0.08921380  0.62050340  1
  N  N48  1  0.21408132  0.54987209  0.37753038  1
  N  N49  1  0.10561053  0.41614239  0.07948358  1
  N  N50  1  0.88627120  0.53812730  0.81041577  1
  N  N51  1  0.76330438  0.45506594  0.54568990  1
  N  N52  1  0.54163154  0.54654729  0.34575045  1
  N  N53  1  0.44858109  0.39685084  0.13624281  1
  N  N54  1  0.23276349  0.52784760  0.83162287  1
  N  N55  1  0.10622577  0.42651622  0.58629964  1
  N  N56  1  0.88876013  0.53930592  0.31515989  1
  N  N57  1  0.81642901  0.40877404  0.06846125  1
  N  N58  1  0.57722210  0.50259824  0.86554421  1
  N  N59  1  0.45150791  0.42393001  0.60927172  1
  N  N60  1  0.21049805  0.88449718  0.37239987  1
  N  N61  1  0.09984570  0.79470653  0.14038828  1
  N  N62  1  0.90051740  0.86341945  0.83980649  1
  N  N63  1  0.76174384  0.74448505  0.55003972  1
  N  N64  1  0.54133552  0.88581036  0.35783685  1
  N  N65  1  0.42384772  0.80034022  0.12624436  1
  N  N66  1  0.20800785  0.87262922  0.88605529  1
  N  N67  1  0.14212838  0.75237486  0.62226619  1
  N  N68  1  0.87225515  0.87906759  0.32721178  1
  N  N69  1  0.78808852  0.75308254  0.08000897  1
  N  N70  1  0.57293861  0.88434302  0.88152558  1
  N  N71  1  0.44630401  0.75827762  0.58602755  1
