# generated using pymatgen
data_Gd5Al31N36
_symmetry_space_group_name_H-M   'P 1'
_cell_length_a   9.68847757
_cell_length_b   9.70230625
_cell_length_c   10.51708790
_cell_angle_alpha   89.58559900
_cell_angle_beta   89.28222700
_cell_angle_gamma   60.03055197
_symmetry_Int_Tables_number   1
_chemical_formula_structural   Gd5Al31N36
_chemical_formula_sum   'Gd5 Al31 N36'
_cell_volume   856.35910145
_cell_formula_units_Z   1
loop_
 _symmetry_equiv_pos_site_id
 _symmetry_equiv_pos_as_xyz
  1  'x, y, z'
loop_
 _atom_site_type_symbol
 _atom_site_label
 _atom_site_symmetry_multiplicity
 _atom_site_fract_x
 _atom_site_fract_y
 _atom_site_fract_z
 _atom_site_occupancy
  Al  Al0  1  0.11195322  0.09784915  0.30823071  1
  Al  Al1  1  0.22067905  0.20452170  0.05765135  1
  Al  Al2  1  0.79595719  0.08216700  0.89368229  1
  Al  Al3  1  0.43394350  0.10181128  0.30115198  1
  Al  Al4  1  0.55001721  0.20183247  0.05893255  1
  Al  Al5  1  0.12724714  0.08223537  0.81728420  1
  Al  Al6  1  0.23054302  0.19691673  0.56191406  1
  Al  Al7  1  0.76474139  0.10181792  0.36819942  1
  Al  Al8  1  0.89145122  0.20266211  0.12871080  1
  Al  Al9  1  0.45649104  0.09257059  0.81017181  1
  Al  Al10  1  0.53572026  0.21279215  0.54724484  1
  Al  Al11  1  0.10960282  0.42743184  0.33174429  1
  Al  Al12  1  0.80253966  0.40949782  0.88687373  1
  Al  Al13  1  0.87271340  0.54466752  0.62183564  1
  Al  Al14  1  0.43182140  0.42570183  0.31111087  1
  Al  Al15  1  0.12053591  0.41755055  0.79588208  1
  Al  Al16  1  0.22666681  0.53826114  0.56598353  1
  Al  Al17  1  0.77648040  0.43222650  0.36774494  1
  Al  Al18  1  0.89596647  0.53270346  0.13474770  1
  Al  Al19  1  0.46236641  0.41092349  0.79713435  1
  Al  Al20  1  0.54165863  0.54680847  0.53568105  1
  Al  Al21  1  0.10677678  0.77022613  0.31813803  1
  Al  Al22  1  0.21033851  0.88914083  0.06776009  1
  Al  Al23  1  0.79671418  0.75261637  0.89357587  1
  Al  Al24  1  0.42941843  0.77964262  0.30890378  1
  Al  Al25  1  0.55039170  0.88489020  0.06468861  1
  Al  Al26  1  0.12562894  0.75500722  0.80480583  1
  Al  Al27  1  0.22848532  0.87147682  0.55308837  1
  Al  Al28  1  0.77127735  0.75877492  0.37007852  1
  Al  Al29  1  0.87875008  0.88084900  0.13955166  1
  Al  Al30  1  0.54058092  0.87892165  0.54082009  1
  Gd  Gd31  1  0.88168208  0.21514371  0.62131115  1
  Gd  Gd32  1  0.21167760  0.54949648  0.05119966  1
  Gd  Gd33  1  0.55863999  0.53888449  0.08654295  1
  Gd  Gd34  1  0.87346403  0.87245790  0.62133993  1
  Gd  Gd35  1  0.45935762  0.75341819  0.80096843  1
  N  N36  1  0.21720884  0.20541917  0.37659796  1
  N  N37  1  0.11596761  0.09818860  0.12458980  1
  N  N38  1  0.90114595  0.19379385  0.83831159  1
  N  N39  1  0.75334353  0.10877539  0.54617621  1
  N  N40  1  0.53271492  0.21255572  0.36528224  1
  N  N41  1  0.44095344  0.09795961  0.11847342  1
  N  N42  1  0.22977274  0.20128627  0.86862142  1
  N  N43  1  0.15151699  0.07059268  0.63224712  1
  N  N44  1  0.87747752  0.21210001  0.31702639  1
  N  N45  1  0.77939933  0.09342864  0.07692156  1
  N  N46  1  0.56123218  0.20104419  0.86931322  1
  N  N47  1  0.45007366  0.08978599  0.62094276  1
  N  N48  1  0.21261799  0.54782517  0.37691788  1
  N  N49  1  0.11387676  0.40956102  0.12568678  1
  N  N50  1  0.88533971  0.53982655  0.81178101  1
  N  N51  1  0.76284980  0.45488890  0.54649385  1
  N  N52  1  0.54102072  0.54643670  0.34613424  1
  N  N53  1  0.44708874  0.39878988  0.13518632  1
  N  N54  1  0.23234380  0.52804814  0.83395137  1
  N  N55  1  0.11113054  0.42237121  0.60835503  1
  N  N56  1  0.88151246  0.54331186  0.31593536  1
  N  N57  1  0.81916548  0.40825293  0.06641994  1
  N  N58  1  0.57737439  0.50275263  0.86559289  1
  N  N59  1  0.45054631  0.42420708  0.60915610  1
  N  N60  1  0.21035561  0.88418463  0.37244669  1
  N  N61  1  0.10188346  0.79156940  0.13964787  1
  N  N62  1  0.90064773  0.86369597  0.84000258  1
  N  N63  1  0.76149175  0.74509744  0.55067114  1
  N  N64  1  0.54091937  0.88612956  0.35840543  1
  N  N65  1  0.42451160  0.79974251  0.12636863  1
  N  N66  1  0.20826308  0.87330093  0.88580305  1
  N  N67  1  0.14230111  0.75113139  0.62170348  1
  N  N68  1  0.87248069  0.87900625  0.32644178  1
  N  N69  1  0.78971269  0.75213231  0.07873319  1
  N  N70  1  0.57210412  0.88535845  0.88176727  1
  N  N71  1  0.44617300  0.75833147  0.58598067  1
