# generated using pymatgen
data_Gd5Al31N36
_symmetry_space_group_name_H-M   'P 1'
_cell_length_a   9.69165775
_cell_length_b   9.69040020
_cell_length_c   10.29508158
_cell_angle_alpha   89.59657217
_cell_angle_beta   89.68735139
_cell_angle_gamma   59.85675164
_symmetry_Int_Tables_number   1
_chemical_formula_structural   Gd5Al31N36
_chemical_formula_sum   'Gd5 Al31 N36'
_cell_volume   836.10278241
_cell_formula_units_Z   1
loop_
 _symmetry_equiv_pos_site_id
 _symmetry_equiv_pos_as_xyz
  1  'x, y, z'
loop_
 _atom_site_type_symbol
 _atom_site_label
 _atom_site_symmetry_multiplicity
 _atom_site_fract_x
 _atom_site_fract_y
 _atom_site_fract_z
 _atom_site_occupancy
  Al  Al0  1  0.11808651  0.09416783  0.39499477  1
  Al  Al1  1  0.22281965  0.20134782  0.14892201  1
  Al  Al2  1  0.77351530  0.09683722  0.91963331  1
  Al  Al3  1  0.44275818  0.09810498  0.40042662  1
  Al  Al4  1  0.55515691  0.19843636  0.15113068  1
  Al  Al5  1  0.10621387  0.09813717  0.91172304  1
  Al  Al6  1  0.22965599  0.20089868  0.64993931  1
  Al  Al7  1  0.77182291  0.09787609  0.39010697  1
  Al  Al8  1  0.89448954  0.20294567  0.15114872  1
  Al  Al9  1  0.44929465  0.09645160  0.89985122  1
  Al  Al10  1  0.54963595  0.20441500  0.65069479  1
  Al  Al11  1  0.11105534  0.42592983  0.40926884  1
  Al  Al12  1  0.78316108  0.42327509  0.90660373  1
  Al  Al13  1  0.88326815  0.54113788  0.65169500  1
  Al  Al14  1  0.44318789  0.42423936  0.41838305  1
  Al  Al15  1  0.10734196  0.42389218  0.89421024  1
  Al  Al16  1  0.22476867  0.53754914  0.65271706  1
  Al  Al17  1  0.78133529  0.42942785  0.40684917  1
  Al  Al18  1  0.89202627  0.53185686  0.15170910  1
  Al  Al19  1  0.45152931  0.41476976  0.88846997  1
  Al  Al20  1  0.55830587  0.53454301  0.64417196  1
  Al  Al21  1  0.11711142  0.75867790  0.40383399  1
  Al  Al22  1  0.21870698  0.88320306  0.15862124  1
  Al  Al23  1  0.77916360  0.76230405  0.91183985  1
  Al  Al24  1  0.44280840  0.76561293  0.41420525  1
  Al  Al25  1  0.55203526  0.87889024  0.15746252  1
  Al  Al26  1  0.10138622  0.77388809  0.90619201  1
  Al  Al27  1  0.22359308  0.87393171  0.64395593  1
  Al  Al28  1  0.77682528  0.75692938  0.39469875  1
  Al  Al29  1  0.88746468  0.87600884  0.15266867  1
  Al  Al30  1  0.55667589  0.87592737  0.64455526  1
  Gd  Gd31  1  0.89478947  0.19958863  0.65539463  1
  Gd  Gd32  1  0.21770087  0.53425241  0.14616647  1
  Gd  Gd33  1  0.55442216  0.53623211  0.16064217  1
  Gd  Gd34  1  0.88423158  0.86762044  0.65389625  1
  Gd  Gd35  1  0.43945628  0.76728204  0.88349748  1
  N  N36  1  0.22374167  0.20971807  0.33795815  1
  N  N37  1  0.11349527  0.09461399  0.09888429  1
  N  N38  1  0.88736235  0.20380225  0.87453086  1
  N  N39  1  0.74871605  0.10806459  0.57096428  1
  N  N40  1  0.54825451  0.21206596  0.33799311  1
  N  N41  1  0.44540271  0.09303369  0.09045098  1
  N  N42  1  0.22468635  0.19971131  0.83995512  1
  N  N43  1  0.14333741  0.08209583  0.57645568  1
  N  N44  1  0.89049863  0.20724331  0.34416291  1
  N  N45  1  0.77487049  0.09617732  0.10684602  1
  N  N46  1  0.56188710  0.19762536  0.83755223  1
  N  N47  1  0.44383617  0.09676812  0.58816724  1
  N  N48  1  0.22456181  0.53479016  0.36563049  1
  N  N49  1  0.09749156  0.40935292  0.07770504  1
  N  N50  1  0.88461128  0.54324252  0.84075451  1
  N  N51  1  0.77243663  0.44564544  0.58844711  1
  N  N52  1  0.55274640  0.53990384  0.37904700  1
  N  N53  1  0.45968468  0.39643803  0.06942794  1
  N  N54  1  0.21773715  0.54388171  0.84634991  1
  N  N55  1  0.10875795  0.42720798  0.59900743  1
  N  N56  1  0.89353682  0.53509009  0.33956081  1
  N  N57  1  0.79857876  0.41766372  0.09081863  1
  N  N58  1  0.57464825  0.50768714  0.83328964  1
  N  N59  1  0.44325153  0.42341467  0.60351013  1
  N  N60  1  0.22507901  0.87073006  0.34524821  1
  N  N61  1  0.10191495  0.79142401  0.09059542  1
  N  N62  1  0.88307742  0.87648043  0.87371039  1
  N  N63  1  0.76399145  0.74600825  0.57703383  1
  N  N64  1  0.55271834  0.87537771  0.34559709  1
  N  N65  1  0.43063287  0.79002265  0.10060549  1
  N  N66  1  0.18076729  0.89766248  0.82666389  1
  N  N67  1  0.13778047  0.74911803  0.58600687  1
  N  N68  1  0.89204993  0.86845186  0.34446334  1
  N  N69  1  0.77712531  0.75785173  0.10096622  1
  N  N70  1  0.57652371  0.88704086  0.82982781  1
  N  N71  1  0.44535988  0.76304144  0.60718186  1
