# generated using pymatgen
data_Gd5Al31N36
_symmetry_space_group_name_H-M   'P 1'
_cell_length_a   9.66839394
_cell_length_b   9.69991486
_cell_length_c   10.63006728
_cell_angle_alpha   89.20133263
_cell_angle_beta   89.06401659
_cell_angle_gamma   59.85151049
_symmetry_Int_Tables_number   1
_chemical_formula_structural   Gd5Al31N36
_chemical_formula_sum   'Gd5 Al31 N36'
_cell_volume   861.92529960
_cell_formula_units_Z   1
loop_
 _symmetry_equiv_pos_site_id
 _symmetry_equiv_pos_as_xyz
  1  'x, y, z'
loop_
 _atom_site_type_symbol
 _atom_site_label
 _atom_site_symmetry_multiplicity
 _atom_site_fract_x
 _atom_site_fract_y
 _atom_site_fract_z
 _atom_site_occupancy
  Al  Al0  1  0.10809709  0.10017168  0.37866839  1
  Al  Al1  1  0.21649410  0.21111521  0.15164227  1
  Al  Al2  1  0.79381807  0.08254281  0.92214242  1
  Al  Al3  1  0.44413953  0.09747999  0.32663081  1
  Al  Al4  1  0.54980823  0.20234985  0.08505004  1
  Al  Al5  1  0.11425440  0.09587418  0.91699605  1
  Al  Al6  1  0.22789493  0.20012876  0.65831215  1
  Al  Al7  1  0.76804941  0.10062579  0.39680714  1
  Al  Al8  1  0.89179832  0.20130603  0.15338066  1
  Al  Al9  1  0.46333692  0.08947974  0.83661449  1
  Al  Al10  1  0.53898618  0.21102306  0.57522765  1
  Al  Al11  1  0.10682049  0.42526680  0.40932967  1
  Al  Al12  1  0.79503555  0.41522152  0.91494147  1
  Al  Al13  1  0.88097876  0.53880934  0.64743914  1
  Al  Al14  1  0.43399824  0.42436804  0.33938327  1
  Al  Al15  1  0.11132924  0.41703152  0.89175839  1
  Al  Al16  1  0.22820233  0.53897644  0.59031935  1
  Al  Al17  1  0.78120129  0.42880640  0.39268487  1
  Al  Al18  1  0.89808914  0.53173982  0.15530783  1
  Al  Al19  1  0.45692700  0.41405584  0.82458002  1
  Al  Al20  1  0.54636897  0.54333312  0.56292365  1
  Al  Al21  1  0.10676603  0.76784434  0.34262821  1
  Al  Al22  1  0.21439188  0.88290672  0.09919998  1
  Al  Al23  1  0.79567608  0.75410402  0.91907854  1
  Al  Al24  1  0.43332662  0.77625938  0.33559819  1
  Al  Al25  1  0.55085093  0.88438775  0.09019885  1
  Al  Al26  1  0.12423130  0.75518017  0.83169879  1
  Al  Al27  1  0.22979939  0.86807712  0.57161445  1
  Al  Al28  1  0.77513047  0.75427168  0.39645710  1
  Al  Al29  1  0.87546124  0.88267865  0.16742071  1
  Al  Al30  1  0.54150971  0.87777434  0.56611860  1
  Gd  Gd31  1  0.88807502  0.21154555  0.65822326  1
  Gd  Gd32  1  0.21479669  0.55493498  0.08200615  1
  Gd  Gd33  1  0.55306928  0.54091642  0.11126586  1
  Gd  Gd34  1  0.87289187  0.87150215  0.64691775  1
  Gd  Gd35  1  0.45330506  0.75909386  0.82473651  1
  N  N36  1  0.21164999  0.21704804  0.33563082  1
  N  N37  1  0.11061742  0.10228268  0.10671368  1
  N  N38  1  0.89788664  0.19729571  0.87323591  1
  N  N39  1  0.75908174  0.11003786  0.57269887  1
  N  N40  1  0.53498595  0.21121939  0.39548831  1
  N  N41  1  0.44850344  0.09436018  0.14581721  1
  N  N42  1  0.22630114  0.19744290  0.84345706  1
  N  N43  1  0.14039863  0.08525281  0.59326242  1
  N  N44  1  0.88248143  0.20778620  0.33773925  1
  N  N45  1  0.77826306  0.09328270  0.10289238  1
  N  N46  1  0.55894952  0.20365495  0.89800414  1
  N  N47  1  0.46104798  0.08251917  0.65068030  1
  N  N48  1  0.21569864  0.54841298  0.40103714  1
  N  N49  1  0.09991827  0.41261686  0.07603000  1
  N  N50  1  0.88676960  0.53822526  0.83710543  1
  N  N51  1  0.76946898  0.44877281  0.57119136  1
  N  N52  1  0.54553358  0.54310522  0.37390203  1
  N  N53  1  0.44681055  0.39568614  0.16575168  1
  N  N54  1  0.22924657  0.52964410  0.86721583  1
  N  N55  1  0.10963149  0.42140524  0.59538512  1
  N  N56  1  0.89298788  0.53702203  0.33628573  1
  N  N57  1  0.81048429  0.41247412  0.09578324  1
  N  N58  1  0.57126894  0.50794582  0.89169774  1
  N  N59  1  0.45036802  0.42311938  0.63764453  1
  N  N60  1  0.21508080  0.87480527  0.39202247  1
  N  N61  1  0.09780917  0.79516665  0.16779792  1
  N  N62  1  0.89709991  0.86704964  0.86338312  1
  N  N63  1  0.76505371  0.74031081  0.57500316  1
  N  N64  1  0.54278304  0.88406684  0.38624139  1
  N  N65  1  0.42587615  0.80043816  0.15665847  1
  N  N66  1  0.20828506  0.86847432  0.91626673  1
  N  N67  1  0.14350879  0.75080869  0.64941667  1
  N  N68  1  0.87161852  0.87866722  0.35277250  1
  N  N69  1  0.79031725  0.75291132  0.10320146  1
  N  N70  1  0.57011401  0.88448794  0.90990132  1
  N  N71  1  0.44631636  0.75731429  0.61142104  1
