# generated using pymatgen
data_Gd5Al31N36
_symmetry_space_group_name_H-M   'P 1'
_cell_length_a   9.73799335
_cell_length_b   9.71288108
_cell_length_c   10.41090856
_cell_angle_alpha   89.78907268
_cell_angle_beta   89.47196580
_cell_angle_gamma   60.25636617
_symmetry_Int_Tables_number   1
_chemical_formula_structural   Gd5Al31N36
_chemical_formula_sum   'Gd5 Al31 N36'
_cell_volume   854.93730908
_cell_formula_units_Z   1
loop_
 _symmetry_equiv_pos_site_id
 _symmetry_equiv_pos_as_xyz
  1  'x, y, z'
loop_
 _atom_site_type_symbol
 _atom_site_label
 _atom_site_symmetry_multiplicity
 _atom_site_fract_x
 _atom_site_fract_y
 _atom_site_fract_z
 _atom_site_occupancy
  Al  Al0  1  0.11629998  0.09528659  0.30953231  1
  Al  Al1  1  0.22092412  0.20264077  0.06056611  1
  Al  Al2  1  0.78735661  0.08853695  0.86833319  1
  Al  Al3  1  0.43580621  0.10049416  0.30228443  1
  Al  Al4  1  0.55327925  0.20028606  0.06101299  1
  Al  Al5  1  0.12307152  0.08621517  0.81535120  1
  Al  Al6  1  0.23333080  0.19849119  0.56148411  1
  Al  Al7  1  0.76292730  0.10325736  0.35977316  1
  Al  Al8  1  0.89249645  0.20235065  0.13117299  1
  Al  Al9  1  0.45202950  0.09601548  0.81047573  1
  Al  Al10  1  0.53806939  0.21211929  0.54932005  1
  Al  Al11  1  0.11104515  0.42302216  0.31737303  1
  Al  Al12  1  0.79873044  0.41060003  0.87966771  1
  Al  Al13  1  0.87138483  0.54586391  0.62434073  1
  Al  Al14  1  0.43246807  0.42472087  0.31131051  1
  Al  Al15  1  0.11790973  0.42033222  0.79687102  1
  Al  Al16  1  0.22760334  0.53402128  0.56242889  1
  Al  Al17  1  0.77434525  0.43658731  0.36917344  1
  Al  Al18  1  0.89295318  0.53287101  0.13089643  1
  Al  Al19  1  0.45725125  0.41555368  0.79755802  1
  Al  Al20  1  0.54220070  0.54493487  0.53979180  1
  Al  Al21  1  0.11040664  0.76641518  0.31788660  1
  Al  Al22  1  0.20896899  0.88839458  0.06702681  1
  Al  Al23  1  0.79286782  0.75815965  0.88641281  1
  Al  Al24  1  0.43134004  0.77800331  0.30877582  1
  Al  Al25  1  0.55030503  0.88517651  0.06362728  1
  Al  Al26  1  0.12150104  0.75764508  0.80325311  1
  Al  Al27  1  0.23643890  0.86710126  0.55371526  1
  Al  Al28  1  0.76989554  0.75671269  0.37031492  1
  Al  Al29  1  0.87903924  0.88019056  0.14050603  1
  Al  Al30  1  0.54185498  0.88009509  0.54419460  1
  Gd  Gd31  1  0.89707991  0.20842415  0.59932358  1
  Gd  Gd32  1  0.20905140  0.54675585  0.05500966  1
  Gd  Gd33  1  0.56134577  0.53568969  0.08674038  1
  Gd  Gd34  1  0.88747442  0.86579748  0.60012539  1
  Gd  Gd35  1  0.45209747  0.75825164  0.80398802  1
  N  N36  1  0.21984803  0.20489151  0.37530032  1
  N  N37  1  0.11568353  0.09642296  0.12561983  1
  N  N38  1  0.89646685  0.19789429  0.82353728  1
  N  N39  1  0.75192188  0.11018816  0.55031156  1
  N  N40  1  0.53484272  0.21182209  0.36503076  1
  N  N41  1  0.44097797  0.09782261  0.11841377  1
  N  N42  1  0.22566469  0.20575422  0.87151641  1
  N  N43  1  0.16290490  0.06542156  0.63223310  1
  N  N44  1  0.88270679  0.21283491  0.32505788  1
  N  N45  1  0.77459274  0.09685575  0.09437739  1
  N  N46  1  0.55831197  0.20433510  0.86912298  1
  N  N47  1  0.44895403  0.09276071  0.62105902  1
  N  N48  1  0.21285181  0.54378734  0.37217718  1
  N  N49  1  0.11243119  0.40540449  0.13423415  1
  N  N50  1  0.88399373  0.54226645  0.81328537  1
  N  N51  1  0.76086804  0.45641964  0.55001712  1
  N  N52  1  0.54156223  0.54538974  0.34661421  1
  N  N53  1  0.44513941  0.39997385  0.13350797  1
  N  N54  1  0.22855111  0.53143905  0.83774997  1
  N  N55  1  0.11049106  0.42213674  0.61112317  1
  N  N56  1  0.87854384  0.54464239  0.31367259  1
  N  N57  1  0.82128465  0.40426633  0.06189492  1
  N  N58  1  0.57378871  0.50634498  0.86427178  1
  N  N59  1  0.44757895  0.42418032  0.60874849  1
  N  N60  1  0.21366843  0.88131627  0.37173709  1
  N  N61  1  0.10058144  0.79068751  0.13831748  1
  N  N62  1  0.89476404  0.86866681  0.82609458  1
  N  N63  1  0.76001707  0.74521460  0.55299554  1
  N  N64  1  0.54197674  0.88548329  0.35858383  1
  N  N65  1  0.42487917  0.79781314  0.12336941  1
  N  N66  1  0.20053068  0.87895214  0.88490209  1
  N  N67  1  0.15328860  0.74435170  0.62008147  1
  N  N68  1  0.87697509  0.87454430  0.33276453  1
  N  N69  1  0.79115683  0.75251581  0.07493562  1
  N  N70  1  0.56905352  0.88888563  0.87998092  1
  N  N71  1  0.45086529  0.75642161  0.58724523  1
