# generated using pymatgen
data_Gd5Al31N36
_symmetry_space_group_name_H-M   'P 1'
_cell_length_a   9.70272612
_cell_length_b   9.71679235
_cell_length_c   10.34113693
_cell_angle_alpha   90.00222560
_cell_angle_beta   89.87120946
_cell_angle_gamma   60.05902916
_symmetry_Int_Tables_number   1
_chemical_formula_structural   Gd5Al31N36
_chemical_formula_sum   'Gd5 Al31 N36'
_cell_volume   844.83548413
_cell_formula_units_Z   1
loop_
 _symmetry_equiv_pos_site_id
 _symmetry_equiv_pos_as_xyz
  1  'x, y, z'
loop_
 _atom_site_type_symbol
 _atom_site_label
 _atom_site_symmetry_multiplicity
 _atom_site_fract_x
 _atom_site_fract_y
 _atom_site_fract_z
 _atom_site_occupancy
  Al  Al0  1  0.10915876  0.09817636  0.30129151  1
  Al  Al1  1  0.22464667  0.20019908  0.06244023  1
  Al  Al2  1  0.77286062  0.09502743  0.82095369  1
  Al  Al3  1  0.44204892  0.09926445  0.30965063  1
  Al  Al4  1  0.55484879  0.19861240  0.05974507  1
  Al  Al5  1  0.12052407  0.08818904  0.81892767  1
  Al  Al6  1  0.23081710  0.19935642  0.56279592  1
  Al  Al7  1  0.77212795  0.09770222  0.29615538  1
  Al  Al8  1  0.89738951  0.19644478  0.06136157  1
  Al  Al9  1  0.44892121  0.09722219  0.81241294  1
  Al  Al10  1  0.55028349  0.20511882  0.56062058  1
  Al  Al11  1  0.11078040  0.42379574  0.32068032  1
  Al  Al12  1  0.78641512  0.41747476  0.84112554  1
  Al  Al13  1  0.87829630  0.54067647  0.63332709  1
  Al  Al14  1  0.44114043  0.42001673  0.31850178  1
  Al  Al15  1  0.12231959  0.41815219  0.80256568  1
  Al  Al16  1  0.22689254  0.53685172  0.56236111  1
  Al  Al17  1  0.77805592  0.42536396  0.31183552  1
  Al  Al18  1  0.89306384  0.53482163  0.12873626  1
  Al  Al19  1  0.45365940  0.41746108  0.79518541  1
  Al  Al20  1  0.55280827  0.54036005  0.53944207  1
  Al  Al21  1  0.10450572  0.77102879  0.30752209  1
  Al  Al22  1  0.21495098  0.88570110  0.06643744  1
  Al  Al23  1  0.77621574  0.76515572  0.82488457  1
  Al  Al24  1  0.43564221  0.77658002  0.31946977  1
  Al  Al25  1  0.55183522  0.88463212  0.06713521  1
  Al  Al26  1  0.11722690  0.76003361  0.80843958  1
  Al  Al27  1  0.22850506  0.87101721  0.55107109  1
  Al  Al28  1  0.77145013  0.77113546  0.30136420  1
  Al  Al29  1  0.88793806  0.87670205  0.05946434  1
  Al  Al30  1  0.55160709  0.87593232  0.54971292  1
  Gd  Gd31  1  0.89661405  0.20140221  0.56502816  1
  Gd  Gd32  1  0.21566897  0.53749274  0.05825500  1
  Gd  Gd33  1  0.54902980  0.54383794  0.07816102  1
  Gd  Gd34  1  0.88598278  0.86351593  0.56538520  1
  Gd  Gd35  1  0.45141566  0.76170464  0.79258767  1
  N  N36  1  0.22136432  0.20267602  0.37486307  1
  N  N37  1  0.11141679  0.09819228  0.11700756  1
  N  N38  1  0.89789844  0.19606665  0.86827873  1
  N  N39  1  0.74885803  0.10597560  0.64051282  1
  N  N40  1  0.55775879  0.20084848  0.37393657  1
  N  N41  1  0.44268506  0.09818484  0.12379852  1
  N  N42  1  0.22768896  0.20445870  0.87320532  1
  N  N43  1  0.15214082  0.07131068  0.63595567  1
  N  N44  1  0.88593608  0.20441829  0.34433067  1
  N  N45  1  0.77449604  0.09523921  0.10829519  1
  N  N46  1  0.55146803  0.20880435  0.87291683  1
  N  N47  1  0.44573108  0.09324668  0.62134424  1
  N  N48  1  0.21517268  0.54484776  0.37026859  1
  N  N49  1  0.11043599  0.40391947  0.13446744  1
  N  N50  1  0.89559691  0.53260827  0.83084181  1
  N  N51  1  0.75834592  0.45027456  0.60208602  1
  N  N52  1  0.55086600  0.54039704  0.34960922  1
  N  N53  1  0.45175529  0.39454582  0.14025840  1
  N  N54  1  0.22989390  0.53250867  0.83991053  1
  N  N55  1  0.11130598  0.42463920  0.61369633  1
  N  N56  1  0.88189125  0.54660739  0.32522902  1
  N  N57  1  0.80217417  0.41009167  0.11021993  1
  N  N58  1  0.56836534  0.51127746  0.86026578  1
  N  N59  1  0.44755813  0.42554065  0.60573096  1
  N  N60  1  0.20930283  0.88372968  0.36733485  1
  N  N61  1  0.09820691  0.78967539  0.12633328  1
  N  N62  1  0.89612478  0.86677000  0.86746839  1
  N  N63  1  0.74577053  0.76007743  0.63966277  1
  N  N64  1  0.55722014  0.88086408  0.36525971  1
  N  N65  1  0.42501641  0.80152634  0.13301224  1
  N  N66  1  0.20675441  0.87693504  0.88313801  1
  N  N67  1  0.14264895  0.75107519  0.62504749  1
  N  N68  1  0.88159282  0.87925129  0.34787341  1
  N  N69  1  0.77789706  0.76356194  0.11299635  1
  N  N70  1  0.56564505  0.88949530  0.88500914  1
  N  N71  1  0.44627015  0.75945547  0.57294032  1
