# generated using pymatgen
data_Gd5Al31N36
_symmetry_space_group_name_H-M   'P 1'
_cell_length_a   9.68416545
_cell_length_b   9.70245125
_cell_length_c   10.63867558
_cell_angle_alpha   89.19570517
_cell_angle_beta   88.99377337
_cell_angle_gamma   59.82390643
_symmetry_Int_Tables_number   1
_chemical_formula_structural   Gd5Al31N36
_chemical_formula_sum   'Gd5 Al31 N36'
_cell_volume   863.99978789
_cell_formula_units_Z   1
loop_
 _symmetry_equiv_pos_site_id
 _symmetry_equiv_pos_as_xyz
  1  'x, y, z'
loop_
 _atom_site_type_symbol
 _atom_site_label
 _atom_site_symmetry_multiplicity
 _atom_site_fract_x
 _atom_site_fract_y
 _atom_site_fract_z
 _atom_site_occupancy
  Al  Al0  1  0.10725574  0.09524929  0.33120840  1
  Al  Al1  1  0.21787065  0.21216313  0.15129435  1
  Al  Al2  1  0.79526138  0.08226002  0.92183713  1
  Al  Al3  1  0.44357306  0.09807281  0.32750527  1
  Al  Al4  1  0.54999056  0.20232741  0.08461628  1
  Al  Al5  1  0.12255735  0.08204210  0.85182304  1
  Al  Al6  1  0.23105089  0.20213140  0.66157591  1
  Al  Al7  1  0.76671563  0.10095856  0.39656665  1
  Al  Al8  1  0.88614721  0.20399704  0.15327849  1
  Al  Al9  1  0.46490431  0.08949715  0.83713793  1
  Al  Al10  1  0.53809737  0.21083493  0.57433389  1
  Al  Al11  1  0.10698530  0.42457372  0.40923874  1
  Al  Al12  1  0.79721485  0.41327115  0.91489727  1
  Al  Al13  1  0.88108504  0.53889578  0.64774587  1
  Al  Al14  1  0.43375692  0.42480397  0.33901341  1
  Al  Al15  1  0.11191126  0.41687164  0.89423771  1
  Al  Al16  1  0.22872661  0.53840524  0.58950262  1
  Al  Al17  1  0.77985521  0.43022175  0.39211497  1
  Al  Al18  1  0.89783528  0.53157711  0.15547412  1
  Al  Al19  1  0.45720988  0.41384779  0.82513821  1
  Al  Al20  1  0.54478419  0.54495881  0.56144468  1
  Al  Al21  1  0.10672252  0.77034531  0.34378982  1
  Al  Al22  1  0.21031216  0.89025959  0.09469191  1
  Al  Al23  1  0.79614880  0.75383650  0.91957227  1
  Al  Al24  1  0.43108163  0.77873581  0.33634242  1
  Al  Al25  1  0.55037575  0.88453464  0.09027902  1
  Al  Al26  1  0.12489936  0.75347762  0.83214040  1
  Al  Al27  1  0.22769774  0.87118479  0.57741013  1
  Al  Al28  1  0.77564445  0.75430367  0.39607028  1
  Al  Al29  1  0.87654180  0.88233862  0.16737372  1
  Al  Al30  1  0.54305553  0.87669666  0.56574595  1
  Gd  Gd31  1  0.87876112  0.21613282  0.65394360  1
  Gd  Gd32  1  0.21446169  0.55528656  0.08401480  1
  Gd  Gd33  1  0.55250089  0.54223161  0.11123640  1
  Gd  Gd34  1  0.87392935  0.87051402  0.64787922  1
  Gd  Gd35  1  0.45641213  0.75697898  0.82356488  1
  N  N36  1  0.21347841  0.21702169  0.34004637  1
  N  N37  1  0.10939314  0.09836289  0.14654121  1
  N  N38  1  0.89848597  0.19678472  0.87032366  1
  N  N39  1  0.75733902  0.10751264  0.57210406  1
  N  N40  1  0.53446285  0.21193980  0.39508657  1
  N  N41  1  0.44850450  0.09470375  0.14592240  1
  N  N42  1  0.23185913  0.20158313  0.84627776  1
  N  N43  1  0.14552693  0.06815645  0.65570205  1
  N  N44  1  0.87542967  0.21159234  0.33993879  1
  N  N45  1  0.77813170  0.09308695  0.10216134  1
  N  N46  1  0.56069293  0.20311759  0.89771888  1
  N  N47  1  0.46146397  0.08201530  0.64943860  1
  N  N48  1  0.21528799  0.54958736  0.40108418  1
  N  N49  1  0.09959648  0.41256176  0.07721723  1
  N  N50  1  0.88774043  0.53767057  0.83735119  1
  N  N51  1  0.76748558  0.45250751  0.56989835  1
  N  N52  1  0.54338850  0.54518214  0.37327417  1
  N  N53  1  0.44734752  0.39585930  0.16536896  1
  N  N54  1  0.23015235  0.52976858  0.86939111  1
  N  N55  1  0.10962914  0.41956400  0.59493657  1
  N  N56  1  0.89298445  0.53694791  0.33606389  1
  N  N57  1  0.81041878  0.41247054  0.09479843  1
  N  N58  1  0.57259392  0.50695327  0.89164419  1
  N  N59  1  0.45086516  0.42266707  0.63763446  1
  N  N60  1  0.21050897  0.88367438  0.39841321  1
  N  N61  1  0.09913801  0.79634598  0.16805704  1
  N  N62  1  0.89815558  0.86628734  0.86419905  1
  N  N63  1  0.76618412  0.74028896  0.57493975  1
  N  N64  1  0.54352316  0.88379990  0.38600585  1
  N  N65  1  0.42372231  0.80196554  0.15599283  1
  N  N66  1  0.20817410  0.87121977  0.91479298  1
  N  N67  1  0.14418303  0.74824132  0.65008929  1
  N  N68  1  0.87174127  0.87891335  0.35221677  1
  N  N69  1  0.79047397  0.75288616  0.10332737  1
  N  N70  1  0.57094070  0.88396413  0.90967640  1
  N  N71  1  0.44678888  0.75727469  0.61036445  1
