# generated using pymatgen
data_Gd5Al31N36
_symmetry_space_group_name_H-M   'P 1'
_cell_length_a   9.68837369
_cell_length_b   9.70993423
_cell_length_c   10.54510507
_cell_angle_alpha   89.48560552
_cell_angle_beta   89.09941971
_cell_angle_gamma   60.00767689
_symmetry_Int_Tables_number   1
_chemical_formula_structural   Gd5Al31N36
_chemical_formula_sum   'Gd5 Al31 N36'
_cell_volume   859.06947834
_cell_formula_units_Z   1
loop_
 _symmetry_equiv_pos_site_id
 _symmetry_equiv_pos_as_xyz
  1  'x, y, z'
loop_
 _atom_site_type_symbol
 _atom_site_label
 _atom_site_symmetry_multiplicity
 _atom_site_fract_x
 _atom_site_fract_y
 _atom_site_fract_z
 _atom_site_occupancy
  Al  Al0  1  0.11227704  0.09831644  0.32152122  1
  Al  Al1  1  0.22487120  0.19695991  0.06622098  1
  Al  Al2  1  0.79540569  0.08190605  0.90595421  1
  Al  Al3  1  0.43430066  0.10185831  0.31453790  1
  Al  Al4  1  0.54986017  0.20154756  0.07091358  1
  Al  Al5  1  0.12711166  0.08016691  0.82840249  1
  Al  Al6  1  0.23160517  0.19511920  0.57539568  1
  Al  Al7  1  0.76479486  0.10160503  0.38232961  1
  Al  Al8  1  0.88988745  0.20248676  0.14260772  1
  Al  Al9  1  0.45691141  0.09081110  0.82148097  1
  Al  Al10  1  0.53596622  0.21264734  0.56088251  1
  Al  Al11  1  0.10212174  0.43334084  0.39774186  1
  Al  Al12  1  0.79968625  0.40866516  0.90026462  1
  Al  Al13  1  0.87877096  0.54195562  0.63581962  1
  Al  Al14  1  0.43370505  0.42489322  0.32507538  1
  Al  Al15  1  0.11110246  0.41918061  0.87615838  1
  Al  Al16  1  0.22798692  0.54016746  0.57892743  1
  Al  Al17  1  0.77922125  0.43156743  0.37856232  1
  Al  Al18  1  0.89998193  0.53045500  0.14130918  1
  Al  Al19  1  0.45920087  0.41132702  0.81145046  1
  Al  Al20  1  0.54373301  0.54659146  0.54813362  1
  Al  Al21  1  0.10624706  0.77294033  0.33055757  1
  Al  Al22  1  0.20915409  0.89234729  0.08054192  1
  Al  Al23  1  0.79572881  0.75336142  0.90628613  1
  Al  Al24  1  0.42977747  0.77993414  0.32198526  1
  Al  Al25  1  0.55036513  0.88488366  0.07755799  1
  Al  Al26  1  0.12496380  0.75321864  0.81933391  1
  Al  Al27  1  0.22910379  0.87111256  0.56610028  1
  Al  Al28  1  0.77396601  0.75633181  0.38114416  1
  Al  Al29  1  0.87667103  0.88274560  0.15272851  1
  Al  Al30  1  0.54284683  0.87729552  0.55272176  1
  Gd  Gd31  1  0.88052497  0.21641484  0.63433161  1
  Gd  Gd32  1  0.21663684  0.55572602  0.07101500  1
  Gd  Gd33  1  0.55725875  0.53969739  0.10006745  1
  Gd  Gd34  1  0.87469836  0.87114766  0.63358427  1
  Gd  Gd35  1  0.45844373  0.75325332  0.81368804  1
  N  N36  1  0.21908653  0.20361451  0.38684935  1
  N  N37  1  0.11491314  0.10115715  0.13886801  1
  N  N38  1  0.90067258  0.19365459  0.85090148  1
  N  N39  1  0.75384970  0.10827606  0.55986440  1
  N  N40  1  0.53308036  0.21224765  0.37959758  1
  N  N41  1  0.44005258  0.09879477  0.13192167  1
  N  N42  1  0.23647945  0.18801683  0.87955269  1
  N  N43  1  0.15025052  0.07081012  0.64415400  1
  N  N44  1  0.87758014  0.21123322  0.33006927  1
  N  N45  1  0.77857901  0.09371904  0.08872438  1
  N  N46  1  0.56019849  0.20048028  0.88197418  1
  N  N47  1  0.45049123  0.08901036  0.63308820  1
  N  N48  1  0.21506012  0.55113923  0.38582590  1
  N  N49  1  0.09857458  0.41853747  0.06385438  1
  N  N50  1  0.88716545  0.53663435  0.82424947  1
  N  N51  1  0.76534972  0.45534971  0.55735741  1
  N  N52  1  0.54325384  0.54635566  0.35867183  1
  N  N53  1  0.44972589  0.39552793  0.15038984  1
  N  N54  1  0.23164059  0.52820124  0.85314977  1
  N  N55  1  0.10401724  0.42945466  0.58487542  1
  N  N56  1  0.89335258  0.53696167  0.32276315  1
  N  N57  1  0.81504546  0.40823703  0.08119156  1
  N  N58  1  0.57533581  0.50280840  0.87922612  1
  N  N59  1  0.45033223  0.42448051  0.62294261  1
  N  N60  1  0.21071117  0.88469250  0.38607965  1
  N  N61  1  0.09795052  0.79915408  0.15346035  1
  N  N62  1  0.89932192  0.86393877  0.85171154  1
  N  N63  1  0.76397604  0.74271923  0.56204816  1
  N  N64  1  0.54320845  0.88447350  0.37055285  1
  N  N65  1  0.42314951  0.80117687  0.13967928  1
  N  N66  1  0.20717041  0.87257779  0.89920810  1
  N  N67  1  0.14391396  0.75038652  0.63660776  1
  N  N68  1  0.87204602  0.87940890  0.33944148  1
  N  N69  1  0.78825148  0.75347375  0.09161552  1
  N  N70  1  0.57216259  0.88395579  0.89449193  1
  N  N71  1  0.44701640  0.75812312  0.59876548  1
