# generated using pymatgen
data_Gd5Al31N36
_symmetry_space_group_name_H-M   'P 1'
_cell_length_a   9.74594268
_cell_length_b   9.71764276
_cell_length_c   10.39686787
_cell_angle_alpha   89.78308592
_cell_angle_beta   89.49526253
_cell_angle_gamma   60.26407663
_symmetry_Int_Tables_number   1
_chemical_formula_structural   Gd5Al31N36
_chemical_formula_sum   'Gd5 Al31 N36'
_cell_volume   854.96928267
_cell_formula_units_Z   1
loop_
 _symmetry_equiv_pos_site_id
 _symmetry_equiv_pos_as_xyz
  1  'x, y, z'
loop_
 _atom_site_type_symbol
 _atom_site_label
 _atom_site_symmetry_multiplicity
 _atom_site_fract_x
 _atom_site_fract_y
 _atom_site_fract_z
 _atom_site_occupancy
  Al  Al0  1  0.11698189  0.09517118  0.30981997  1
  Al  Al1  1  0.22118183  0.20264524  0.06060919  1
  Al  Al2  1  0.78334958  0.09065513  0.84380430  1
  Al  Al3  1  0.43619869  0.10052239  0.30280278  1
  Al  Al4  1  0.55526434  0.19927584  0.06161395  1
  Al  Al5  1  0.12288365  0.08619141  0.81507563  1
  Al  Al6  1  0.23333156  0.19849079  0.56189640  1
  Al  Al7  1  0.76160299  0.10407168  0.33892257  1
  Al  Al8  1  0.89307946  0.20288528  0.13120633  1
  Al  Al9  1  0.45145535  0.09587856  0.81032692  1
  Al  Al10  1  0.53901426  0.21160925  0.55069759  1
  Al  Al11  1  0.11100484  0.42307768  0.31749392  1
  Al  Al12  1  0.79855876  0.41049890  0.87922263  1
  Al  Al13  1  0.87092469  0.54600746  0.62463397  1
  Al  Al14  1  0.43285058  0.42447884  0.31195682  1
  Al  Al15  1  0.11765145  0.42042312  0.79696128  1
  Al  Al16  1  0.22766584  0.53402040  0.56276358  1
  Al  Al17  1  0.77391166  0.43752805  0.36950268  1
  Al  Al18  1  0.89301598  0.53278027  0.13068348  1
  Al  Al19  1  0.45670510  0.41629603  0.79725002  1
  Al  Al20  1  0.54204323  0.54480191  0.54030621  1
  Al  Al21  1  0.11100176  0.76604794  0.31808956  1
  Al  Al22  1  0.20891625  0.88839240  0.06691731  1
  Al  Al23  1  0.79268218  0.75849402  0.88581091  1
  Al  Al24  1  0.43141686  0.77799490  0.30899829  1
  Al  Al25  1  0.55007087  0.88539640  0.06368801  1
  Al  Al26  1  0.12125704  0.75787417  0.80301128  1
  Al  Al27  1  0.23697020  0.86686949  0.55409882  1
  Al  Al28  1  0.76944045  0.75635552  0.37059750  1
  Al  Al29  1  0.87987349  0.87830915  0.14033714  1
  Al  Al30  1  0.54167754  0.88049344  0.54466311  1
  Gd  Gd31  1  0.89922683  0.20781304  0.59439165  1
  Gd  Gd32  1  0.20944287  0.54634756  0.05523555  1
  Gd  Gd33  1  0.56109954  0.53567300  0.08678711  1
  Gd  Gd34  1  0.89006910  0.86353839  0.59484422  1
  Gd  Gd35  1  0.45177562  0.75844077  0.80391818  1
  N  N36  1  0.22037153  0.20495553  0.37526293  1
  N  N37  1  0.11562192  0.09644916  0.12574105  1
  N  N38  1  0.89702890  0.19845772  0.82305687  1
  N  N39  1  0.74894500  0.11136496  0.57106573  1
  N  N40  1  0.53750025  0.21068265  0.36701821  1
  N  N41  1  0.44109134  0.09805376  0.11857001  1
  N  N42  1  0.22570662  0.20579495  0.87165046  1
  N  N43  1  0.16397268  0.06464589  0.63265495  1
  N  N44  1  0.88403380  0.21336399  0.32784247  1
  N  N45  1  0.77015230  0.09922785  0.11596566  1
  N  N46  1  0.55911335  0.20390945  0.86979845  1
  N  N47  1  0.44766856  0.09329076  0.62110126  1
  N  N48  1  0.21316821  0.54346020  0.37205148  1
  N  N49  1  0.11224965  0.40541531  0.13413435  1
  N  N50  1  0.88391405  0.54230761  0.81365480  1
  N  N51  1  0.76013024  0.45700633  0.55038984  1
  N  N52  1  0.54160948  0.54538905  0.34650639  1
  N  N53  1  0.44524575  0.39959235  0.13383537  1
  N  N54  1  0.22849526  0.53127185  0.83793654  1
  N  N55  1  0.11004986  0.42239238  0.61102134  1
  N  N56  1  0.87857497  0.54471549  0.31360492  1
  N  N57  1  0.82094984  0.40434069  0.06196942  1
  N  N58  1  0.57362356  0.50632768  0.86418765  1
  N  N59  1  0.44647104  0.42485298  0.60856773  1
  N  N60  1  0.21379580  0.88129642  0.37173502  1
  N  N61  1  0.10041556  0.79066823  0.13829266  1
  N  N62  1  0.89498609  0.86802751  0.82521299  1
  N  N63  1  0.75909226  0.74513615  0.55334918  1
  N  N64  1  0.54200743  0.88558159  0.35848690  1
  N  N65  1  0.42476079  0.79785471  0.12333571  1
  N  N66  1  0.20049131  0.87890932  0.88494509  1
  N  N67  1  0.15484643  0.74381638  0.62050195  1
  N  N68  1  0.87804757  0.87326925  0.33526085  1
  N  N69  1  0.79111721  0.75255735  0.07485120  1
  N  N70  1  0.56893794  0.88901025  0.87995775  1
  N  N71  1  0.45108515  0.75637641  0.58704711  1
