# generated using pymatgen
data_Gd5Al31N36
_symmetry_space_group_name_H-M   'P 1'
_cell_length_a   9.69462745
_cell_length_b   9.71376649
_cell_length_c   10.51254127
_cell_angle_alpha   89.51951405
_cell_angle_beta   89.22756321
_cell_angle_gamma   60.02536387
_symmetry_Int_Tables_number   1
_chemical_formula_structural   Gd5Al31N36
_chemical_formula_sum   'Gd5 Al31 N36'
_cell_volume   857.48753128
_cell_formula_units_Z   1
loop_
 _symmetry_equiv_pos_site_id
 _symmetry_equiv_pos_as_xyz
  1  'x, y, z'
loop_
 _atom_site_type_symbol
 _atom_site_label
 _atom_site_symmetry_multiplicity
 _atom_site_fract_x
 _atom_site_fract_y
 _atom_site_fract_z
 _atom_site_occupancy
  Al  Al0  1  0.11210600  0.09831292  0.30826811  1
  Al  Al1  1  0.22259175  0.20125799  0.05392194  1
  Al  Al2  1  0.79597427  0.08186609  0.89377394  1
  Al  Al3  1  0.43314252  0.10262244  0.30104407  1
  Al  Al4  1  0.54995675  0.20154973  0.05894961  1
  Al  Al5  1  0.12730154  0.08039795  0.81620538  1
  Al  Al6  1  0.23228095  0.19363266  0.56327894  1
  Al  Al7  1  0.76462516  0.10172778  0.36845930  1
  Al  Al8  1  0.89082198  0.20266682  0.12915227  1
  Al  Al9  1  0.45786537  0.09095731  0.80906250  1
  Al  Al10  1  0.53586220  0.21270599  0.54718159  1
  Al  Al11  1  0.10196775  0.43309870  0.38262438  1
  Al  Al12  1  0.80158049  0.40871248  0.88808793  1
  Al  Al13  1  0.87410879  0.54397888  0.62231091  1
  Al  Al14  1  0.43149992  0.42536921  0.31150881  1
  Al  Al15  1  0.11607743  0.41845000  0.83233167  1
  Al  Al16  1  0.22841417  0.54031691  0.56864514  1
  Al  Al17  1  0.77745340  0.43176745  0.36639333  1
  Al  Al18  1  0.90073589  0.53054662  0.13223756  1
  Al  Al19  1  0.46289455  0.41024327  0.79686032  1
  Al  Al20  1  0.54243546  0.54693484  0.53511670  1
  Al  Al21  1  0.10663619  0.77096820  0.31812805  1
  Al  Al22  1  0.20957089  0.89047210  0.06829156  1
  Al  Al23  1  0.79674782  0.75290361  0.89463565  1
  Al  Al24  1  0.42922818  0.77998602  0.30872435  1
  Al  Al25  1  0.55051101  0.88479900  0.06515751  1
  Al  Al26  1  0.12503094  0.75534735  0.80469060  1
  Al  Al27  1  0.22870505  0.87145679  0.55269051  1
  Al  Al28  1  0.77200955  0.75795876  0.36872866  1
  Al  Al29  1  0.87801973  0.88128433  0.13996796  1
  Al  Al30  1  0.54133646  0.87813436  0.54016640  1
  Gd  Gd31  1  0.88110058  0.21569307  0.62107603  1
  Gd  Gd32  1  0.21617504  0.55364684  0.05155997  1
  Gd  Gd33  1  0.55779007  0.53916898  0.08750185  1
  Gd  Gd34  1  0.87345433  0.87205381  0.62064322  1
  Gd  Gd35  1  0.45913868  0.75335803  0.80132890  1
  N  N36  1  0.21803767  0.20436144  0.37579418  1
  N  N37  1  0.11561429  0.09968780  0.12492630  1
  N  N38  1  0.90128863  0.19360495  0.83848477  1
  N  N39  1  0.75330132  0.10874942  0.54671120  1
  N  N40  1  0.53271695  0.21232186  0.36569939  1
  N  N41  1  0.44009861  0.09839930  0.11828120  1
  N  N42  1  0.23450552  0.19266952  0.86508276  1
  N  N43  1  0.15068830  0.07015136  0.63174443  1
  N  N44  1  0.87769382  0.21153890  0.31748273  1
  N  N45  1  0.77909689  0.09333877  0.07682808  1
  N  N46  1  0.56111751  0.20064896  0.86899575  1
  N  N47  1  0.45071000  0.08920905  0.62043771  1
  N  N48  1  0.21425952  0.55005186  0.37696608  1
  N  N49  1  0.10410904  0.41708862  0.07201034  1
  N  N50  1  0.88640685  0.53791165  0.81053422  1
  N  N51  1  0.76344990  0.45515669  0.54558478  1
  N  N52  1  0.54180791  0.54653426  0.34566983  1
  N  N53  1  0.44863301  0.39668085  0.13636223  1
  N  N54  1  0.23277596  0.52790094  0.83212579  1
  N  N55  1  0.10542065  0.42719851  0.58262645  1
  N  N56  1  0.88972494  0.53878096  0.31440871  1
  N  N57  1  0.81627712  0.40870605  0.06860894  1
  N  N58  1  0.57707022  0.50259481  0.86566304  1
  N  N59  1  0.45142774  0.42397131  0.60929411  1
  N  N60  1  0.21052007  0.88450436  0.37241646  1
  N  N61  1  0.09958659  0.79524973  0.14044001  1
  N  N62  1  0.90045416  0.86344463  0.83975497  1
  N  N63  1  0.76187406  0.74426216  0.54997457  1
  N  N64  1  0.54152482  0.88564575  0.35776036  1
  N  N65  1  0.42377036  0.80040416  0.12622167  1
  N  N66  1  0.20795413  0.87253665  0.88609794  1
  N  N67  1  0.14219212  0.75230199  0.62231838  1
  N  N68  1  0.87224925  0.87906950  0.32722086  1
  N  N69  1  0.78802662  0.75318160  0.07998413  1
  N  N70  1  0.57294076  0.88430517  0.88153003  1
  N  N71  1  0.44632111  0.75826726  0.58602342  1
