# generated using pymatgen
data_Gd5Al31N36
_symmetry_space_group_name_H-M   'P 1'
_cell_length_a   9.68818103
_cell_length_b   9.71003987
_cell_length_c   10.54541407
_cell_angle_alpha   89.48479433
_cell_angle_beta   89.09824075
_cell_angle_gamma   60.00441622
_symmetry_Int_Tables_number   1
_chemical_formula_structural   Gd5Al31N36
_chemical_formula_sum   'Gd5 Al31 N36'
_cell_volume   859.05841325
_cell_formula_units_Z   1
loop_
 _symmetry_equiv_pos_site_id
 _symmetry_equiv_pos_as_xyz
  1  'x, y, z'
loop_
 _atom_site_type_symbol
 _atom_site_label
 _atom_site_symmetry_multiplicity
 _atom_site_fract_x
 _atom_site_fract_y
 _atom_site_fract_z
 _atom_site_occupancy
  Al  Al0  1  0.11227438  0.09830465  0.32436654  1
  Al  Al1  1  0.22487361  0.19696343  0.06906199  1
  Al  Al2  1  0.79543876  0.08187586  0.90885496  1
  Al  Al3  1  0.43429522  0.10184643  0.31737626  1
  Al  Al4  1  0.54983096  0.20155185  0.07375571  1
  Al  Al5  1  0.12715895  0.08012051  0.83124479  1
  Al  Al6  1  0.23156454  0.19512003  0.57822641  1
  Al  Al7  1  0.76480298  0.10158849  0.38517468  1
  Al  Al8  1  0.88989763  0.20247334  0.14545735  1
  Al  Al9  1  0.45692976  0.09078968  0.82431171  1
  Al  Al10  1  0.53593852  0.21264426  0.56370301  1
  Al  Al11  1  0.10211102  0.43333885  0.40058134  1
  Al  Al12  1  0.79973280  0.40862902  0.90315839  1
  Al  Al13  1  0.87876006  0.54193470  0.63864064  1
  Al  Al14  1  0.43366745  0.42488884  0.32789991  1
  Al  Al15  1  0.11111694  0.41915361  0.87897527  1
  Al  Al16  1  0.22796166  0.54016416  0.58176359  1
  Al  Al17  1  0.77922513  0.43153460  0.38139068  1
  Al  Al18  1  0.89997952  0.53045819  0.14416708  1
  Al  Al19  1  0.45922143  0.41128965  0.81427457  1
  Al  Al20  1  0.54370815  0.54658851  0.55094609  1
  Al  Al21  1  0.10624260  0.77293538  0.33341811  1
  Al  Al22  1  0.20918554  0.89233556  0.08338113  1
  Al  Al23  1  0.79577781  0.75333151  0.90915069  1
  Al  Al24  1  0.42977580  0.77991907  0.32481024  1
  Al  Al25  1  0.55039135  0.88486635  0.08038617  1
  Al  Al26  1  0.12500347  0.75319753  0.82213636  1
  Al  Al27  1  0.22905602  0.87112591  0.56894569  1
  Al  Al28  1  0.77395414  0.75632515  0.38399350  1
  Al  Al29  1  0.87667510  0.88274826  0.15559241  1
  Al  Al30  1  0.54280622  0.87728834  0.55555682  1
  Gd  Gd31  1  0.88041759  0.21644966  0.63727719  1
  Gd  Gd32  1  0.21657683  0.55578627  0.07379452  1
  Gd  Gd33  1  0.55723295  0.53967017  0.10290216  1
  Gd  Gd34  1  0.87461326  0.87116619  0.63648515  1
  Gd  Gd35  1  0.45855084  0.75317548  0.81652762  1
  N  N36  1  0.21907396  0.20361150  0.38968554  1
  N  N37  1  0.11493394  0.10114757  0.14170997  1
  N  N38  1  0.90073199  0.19360292  0.85383971  1
  N  N39  1  0.75384807  0.10826193  0.56270643  1
  N  N40  1  0.53307044  0.21224033  0.38242482  1
  N  N41  1  0.44005802  0.09877449  0.13476296  1
  N  N42  1  0.23650171  0.18798858  0.88239426  1
  N  N43  1  0.15016970  0.07084339  0.64698626  1
  N  N44  1  0.87757986  0.21120961  0.33289779  1
  N  N45  1  0.77855544  0.09373182  0.09160185  1
  N  N46  1  0.56022439  0.20044596  0.88481278  1
  N  N47  1  0.45046863  0.08900310  0.63592101  1
  N  N48  1  0.21504100  0.55113641  0.38867993  1
  N  N49  1  0.09856538  0.41854546  0.06666789  1
  N  N50  1  0.88716629  0.53661116  0.82708212  1
  N  N51  1  0.76534448  0.45532758  0.56017871  1
  N  N52  1  0.54323748  0.54633884  0.36149417  1
  N  N53  1  0.44963609  0.39554518  0.15321283  1
  N  N54  1  0.23164942  0.52817457  0.85593942  1
  N  N55  1  0.10400446  0.42944660  0.58770922  1
  N  N56  1  0.89334204  0.53695469  0.32560869  1
  N  N57  1  0.81503370  0.40824462  0.08407374  1
  N  N58  1  0.57538802  0.50272857  0.88206343  1
  N  N59  1  0.45032745  0.42447167  0.62577173  1
  N  N60  1  0.21071277  0.88468340  0.38892686  1
  N  N61  1  0.09796454  0.79917440  0.15632461  1
  N  N62  1  0.89937519  0.86391219  0.85460346  1
  N  N63  1  0.76394965  0.74270892  0.56489195  1
  N  N64  1  0.54318742  0.88446266  0.37339846  1
  N  N65  1  0.42319028  0.80114674  0.14250773  1
  N  N66  1  0.20725728  0.87250435  0.90203440  1
  N  N67  1  0.14384155  0.75040541  0.63941752  1
  N  N68  1  0.87203424  0.87939421  0.34228671  1
  N  N69  1  0.78828023  0.75346827  0.09446333  1
  N  N70  1  0.57220839  0.88393571  0.89732514  1
  N  N71  1  0.44698102  0.75811550  0.60162061  1
