# generated using pymatgen
data_Gd5Al31N36
_symmetry_space_group_name_H-M   'P 1'
_cell_length_a   9.71666114
_cell_length_b   9.73018801
_cell_length_c   10.54962231
_cell_angle_alpha   89.58097490
_cell_angle_beta   89.57838696
_cell_angle_gamma   60.03647978
_symmetry_Int_Tables_number   1
_chemical_formula_structural   Gd5Al31N36
_chemical_formula_sum   'Gd5 Al31 N36'
_cell_volume   864.07168081
_cell_formula_units_Z   1
loop_
 _symmetry_equiv_pos_site_id
 _symmetry_equiv_pos_as_xyz
  1  'x, y, z'
loop_
 _atom_site_type_symbol
 _atom_site_label
 _atom_site_symmetry_multiplicity
 _atom_site_fract_x
 _atom_site_fract_y
 _atom_site_fract_z
 _atom_site_occupancy
  Al  Al0  1  0.11137332  0.10109435  0.39869240  1
  Al  Al1  1  0.21526787  0.20805767  0.15225264  1
  Al  Al2  1  0.78296533  0.08770329  0.91632894  1
  Al  Al3  1  0.44104535  0.09465979  0.32899039  1
  Al  Al4  1  0.56014283  0.19842732  0.15317070  1
  Al  Al5  1  0.11028473  0.09871021  0.91620221  1
  Al  Al6  1  0.22528203  0.20241544  0.65044338  1
  Al  Al7  1  0.76546541  0.10382894  0.39512213  1
  Al  Al8  1  0.90008081  0.19471598  0.15505973  1
  Al  Al9  1  0.45652783  0.08648191  0.83188146  1
  Al  Al10  1  0.55073026  0.21427052  0.64623673  1
  Al  Al11  1  0.11015358  0.43134692  0.40560105  1
  Al  Al12  1  0.79572388  0.41327354  0.91712024  1
  Al  Al13  1  0.88028739  0.54074479  0.64850319  1
  Al  Al14  1  0.43058781  0.42700325  0.39258402  1
  Al  Al15  1  0.10986080  0.41488684  0.89375721  1
  Al  Al16  1  0.23232263  0.52999130  0.65711037  1
  Al  Al17  1  0.78596991  0.42603461  0.39217395  1
  Al  Al18  1  0.89748279  0.52940153  0.15458320  1
  Al  Al19  1  0.46047971  0.40469884  0.90179897  1
  Al  Al20  1  0.54788010  0.54742672  0.56094018  1
  Al  Al21  1  0.10563462  0.77147318  0.33531234  1
  Al  Al22  1  0.21515104  0.88470298  0.09440426  1
  Al  Al23  1  0.79358218  0.75439044  0.91655432  1
  Al  Al24  1  0.43127871  0.77912130  0.33372311  1
  Al  Al25  1  0.54873135  0.88599084  0.08811551  1
  Al  Al26  1  0.11764025  0.76373830  0.83930751  1
  Al  Al27  1  0.23225042  0.86298491  0.57211172  1
  Al  Al28  1  0.77560054  0.75409619  0.39548426  1
  Al  Al29  1  0.87349083  0.88412490  0.16305685  1
  Al  Al30  1  0.54211578  0.87857613  0.56661626  1
  Gd  Gd31  1  0.88788320  0.21134885  0.65561397  1
  Gd  Gd32  1  0.20531636  0.55133293  0.11461920  1
  Gd  Gd33  1  0.55980780  0.53557149  0.12746545  1
  Gd  Gd34  1  0.87723680  0.87193941  0.64011943  1
  Gd  Gd35  1  0.45366140  0.75407477  0.82757771  1
  N  N36  1  0.21236478  0.21627945  0.33968929  1
  N  N37  1  0.11153054  0.10325999  0.09840997  1
  N  N38  1  0.89549525  0.19674273  0.87015278  1
  N  N39  1  0.74774554  0.11673963  0.57032567  1
  N  N40  1  0.55113882  0.21311339  0.33690472  1
  N  N41  1  0.44384685  0.09319378  0.14553459  1
  N  N42  1  0.22111418  0.19821994  0.83734145  1
  N  N43  1  0.13735031  0.08796184  0.57985881  1
  N  N44  1  0.88986477  0.20363636  0.34186402  1
  N  N45  1  0.77501114  0.09439921  0.09999685  1
  N  N46  1  0.57177811  0.19830785  0.83372581  1
  N  N47  1  0.45277941  0.08385635  0.64356308  1
  N  N48  1  0.21371299  0.54285064  0.34684995  1
  N  N49  1  0.09750425  0.40863323  0.07452961  1
  N  N50  1  0.88696818  0.53722755  0.83787372  1
  N  N51  1  0.76934444  0.44907437  0.57214636  1
  N  N52  1  0.54865855  0.54361236  0.36850394  1
  N  N53  1  0.45285290  0.39152121  0.08090118  1
  N  N54  1  0.22983186  0.52558986  0.85213152  1
  N  N55  1  0.11034010  0.42888651  0.59551155  1
  N  N56  1  0.89290208  0.53728608  0.33713000  1
  N  N57  1  0.81420595  0.40614884  0.09864342  1
  N  N58  1  0.57712490  0.50970254  0.89471370  1
  N  N59  1  0.43946345  0.42786416  0.58554018  1
  N  N60  1  0.21735152  0.87081290  0.39185334  1
  N  N61  1  0.08973291  0.80928237  0.15927114  1
  N  N62  1  0.89318161  0.86819482  0.86143345  1
  N  N63  1  0.76436972  0.74177161  0.57655490  1
  N  N64  1  0.54411826  0.88285926  0.38591086  1
  N  N65  1  0.42485284  0.80033097  0.15292174  1
  N  N66  1  0.20812849  0.87276238  0.91230403  1
  N  N67  1  0.14475950  0.75304060  0.65591122  1
  N  N68  1  0.87312112  0.87835080  0.35329245  1
  N  N69  1  0.78941855  0.75126522  0.10244039  1
  N  N70  1  0.56880315  0.88647791  0.90761618  1
  N  N71  1  0.44702792  0.75847727  0.61160122  1
