# generated using pymatgen
data_Gd5Al31N36
_symmetry_space_group_name_H-M   'P 1'
_cell_length_a   9.71192778
_cell_length_b   9.68949607
_cell_length_c   10.38906194
_cell_angle_alpha   90.21509272
_cell_angle_beta   90.03433002
_cell_angle_gamma   60.21277615
_symmetry_Int_Tables_number   1
_chemical_formula_structural   Gd5Al31N36
_chemical_formula_sum   'Gd5 Al31 N36'
_cell_volume   848.47148695
_cell_formula_units_Z   1
loop_
 _symmetry_equiv_pos_site_id
 _symmetry_equiv_pos_as_xyz
  1  'x, y, z'
loop_
 _atom_site_type_symbol
 _atom_site_label
 _atom_site_symmetry_multiplicity
 _atom_site_fract_x
 _atom_site_fract_y
 _atom_site_fract_z
 _atom_site_occupancy
  Al  Al0  1  0.11546565  0.09688264  0.30829532  1
  Al  Al1  1  0.22440089  0.20087106  0.06230410  1
  Al  Al2  1  0.77284990  0.09372430  0.81707767  1
  Al  Al3  1  0.44192691  0.09928936  0.30884909  1
  Al  Al4  1  0.55582333  0.19858176  0.05931406  1
  Al  Al5  1  0.11932658  0.08836786  0.81513341  1
  Al  Al6  1  0.23011186  0.20020445  0.56179348  1
  Al  Al7  1  0.76757803  0.09833682  0.30165086  1
  Al  Al8  1  0.89696427  0.20085454  0.11666081  1
  Al  Al9  1  0.44792618  0.09711735  0.81200574  1
  Al  Al10  1  0.54737264  0.20411671  0.56013971  1
  Al  Al11  1  0.11315988  0.42448354  0.31910214  1
  Al  Al12  1  0.79932551  0.40827363  0.88067722  1
  Al  Al13  1  0.87377491  0.53859259  0.63445359  1
  Al  Al14  1  0.43932814  0.42164745  0.31753557  1
  Al  Al15  1  0.12063704  0.41815393  0.80049331  1
  Al  Al16  1  0.22668550  0.53625996  0.56430321  1
  Al  Al17  1  0.77742498  0.43943326  0.36975085  1
  Al  Al18  1  0.89510830  0.53130133  0.13028057  1
  Al  Al19  1  0.45587269  0.41742610  0.79831252  1
  Al  Al20  1  0.54296606  0.54542301  0.53913305  1
  Al  Al21  1  0.10395149  0.77169547  0.30741394  1
  Al  Al22  1  0.21341016  0.88654776  0.06590809  1
  Al  Al23  1  0.77498178  0.76379623  0.82330930  1
  Al  Al24  1  0.43361587  0.77801384  0.31579885  1
  Al  Al25  1  0.55196811  0.88461505  0.06540008  1
  Al  Al26  1  0.11513221  0.76107381  0.80846613  1
  Al  Al27  1  0.22930759  0.86968975  0.55248405  1
  Al  Al28  1  0.76929601  0.77315839  0.29861410  1
  Al  Al29  1  0.88721439  0.87793262  0.05900487  1
  Al  Al30  1  0.54874104  0.87597435  0.55189472  1
  Gd  Gd31  1  0.89286210  0.20062369  0.58738411  1
  Gd  Gd32  1  0.21807153  0.53855414  0.05625024  1
  Gd  Gd33  1  0.56030012  0.53816626  0.08833079  1
  Gd  Gd34  1  0.88684735  0.85564050  0.56367763  1
  Gd  Gd35  1  0.45087193  0.75836485  0.79925209  1
  N  N36  1  0.22343100  0.20444034  0.37525405  1
  N  N37  1  0.11707682  0.09591695  0.12417204  1
  N  N38  1  0.89661862  0.19666016  0.82759230  1
  N  N39  1  0.74483014  0.09678528  0.63574285  1
  N  N40  1  0.55489327  0.20312745  0.37453387  1
  N  N41  1  0.44338618  0.09794204  0.12363819  1
  N  N42  1  0.22660444  0.20436711  0.87329924  1
  N  N43  1  0.15439344  0.07029430  0.63089249  1
  N  N44  1  0.88414553  0.21225988  0.33006607  1
  N  N45  1  0.77342558  0.09625036  0.11326806  1
  N  N46  1  0.55274248  0.20729796  0.87295226  1
  N  N47  1  0.44288002  0.09430345  0.62176401  1
  N  N48  1  0.21516352  0.54607920  0.37170219  1
  N  N49  1  0.11347238  0.40510655  0.13502437  1
  N  N50  1  0.89334718  0.52989750  0.82262529  1
  N  N51  1  0.76257499  0.45636953  0.55178761  1
  N  N52  1  0.54534143  0.54524361  0.34795193  1
  N  N53  1  0.45278439  0.39479835  0.14005815  1
  N  N54  1  0.22959157  0.53221351  0.83879839  1
  N  N55  1  0.10953901  0.42508492  0.61233296  1
  N  N56  1  0.88252606  0.54730255  0.31857504  1
  N  N57  1  0.81885057  0.40663067  0.06380562  1
  N  N58  1  0.57284582  0.50834762  0.86499085  1
  N  N59  1  0.44842682  0.42495439  0.60789910  1
  N  N60  1  0.21090284  0.88239075  0.36902865  1
  N  N61  1  0.09669589  0.79073445  0.12712077  1
  N  N62  1  0.89487862  0.86603888  0.86810478  1
  N  N63  1  0.74263189  0.75832385  0.63976754  1
  N  N64  1  0.55587332  0.88032222  0.36620873  1
  N  N65  1  0.42534156  0.79985779  0.12983520  1
  N  N66  1  0.20325400  0.87943335  0.88388358  1
  N  N67  1  0.14161234  0.75139825  0.62591933  1
  N  N68  1  0.88085893  0.87968136  0.34809255  1
  N  N69  1  0.77697891  0.76341402  0.11235375  1
  N  N70  1  0.56552010  0.88958601  0.88460184  1
  N  N71  1  0.44494478  0.75903739  0.58023611  1
