# generated using pymatgen
data_Gd5Al31N36
_symmetry_space_group_name_H-M   'P 1'
_cell_length_a   9.69876857
_cell_length_b   9.70982985
_cell_length_c   10.51725584
_cell_angle_alpha   89.65521854
_cell_angle_beta   89.14826068
_cell_angle_gamma   60.25918399
_symmetry_Int_Tables_number   1
_chemical_formula_structural   Gd5Al31N36
_chemical_formula_sum   'Gd5 Al31 N36'
_cell_volume   859.88644660
_cell_formula_units_Z   1
loop_
 _symmetry_equiv_pos_site_id
 _symmetry_equiv_pos_as_xyz
  1  'x, y, z'
loop_
 _atom_site_type_symbol
 _atom_site_label
 _atom_site_symmetry_multiplicity
 _atom_site_fract_x
 _atom_site_fract_y
 _atom_site_fract_z
 _atom_site_occupancy
  Al  Al0  1  0.11193359  0.09901531  0.33696184  1
  Al  Al1  1  0.22523091  0.19793547  0.08083144  1
  Al  Al2  1  0.79562414  0.08161246  0.91919514  1
  Al  Al3  1  0.43304974  0.10257923  0.32919675  1
  Al  Al4  1  0.55275753  0.19902392  0.08481684  1
  Al  Al5  1  0.12640340  0.08169410  0.84074244  1
  Al  Al6  1  0.23128105  0.19524695  0.58832115  1
  Al  Al7  1  0.76359998  0.10183563  0.39498964  1
  Al  Al8  1  0.89119974  0.20174052  0.15718276  1
  Al  Al9  1  0.45635601  0.08999834  0.83480673  1
  Al  Al10  1  0.53530394  0.21288655  0.57429039  1
  Al  Al11  1  0.10642781  0.43838404  0.41096187  1
  Al  Al12  1  0.80055090  0.40780611  0.91465169  1
  Al  Al13  1  0.87694474  0.54275172  0.64967807  1
  Al  Al14  1  0.43082295  0.42528853  0.33490518  1
  Al  Al15  1  0.10812545  0.41812807  0.89230459  1
  Al  Al16  1  0.22818433  0.52997995  0.65523958  1
  Al  Al17  1  0.77917607  0.43199938  0.39332203  1
  Al  Al18  1  0.90234135  0.53017499  0.15621996  1
  Al  Al19  1  0.47089771  0.40455729  0.82973552  1
  Al  Al20  1  0.54147421  0.54626240  0.56170811  1
  Al  Al21  1  0.10610996  0.77053919  0.33833943  1
  Al  Al22  1  0.20843822  0.89497684  0.09465031  1
  Al  Al23  1  0.79341348  0.75369942  0.91929210  1
  Al  Al24  1  0.42789428  0.78056258  0.33682819  1
  Al  Al25  1  0.54886903  0.88526499  0.09166051  1
  Al  Al26  1  0.11875558  0.76314041  0.83782087  1
  Al  Al27  1  0.22944321  0.86886209  0.57968667  1
  Al  Al28  1  0.77307135  0.75621406  0.39421685  1
  Al  Al29  1  0.87541180  0.88299749  0.16477424  1
  Al  Al30  1  0.54229596  0.87751613  0.56705625  1
  Gd  Gd31  1  0.88099789  0.21550485  0.64542691  1
  Gd  Gd32  1  0.22076603  0.55455572  0.09021606  1
  Gd  Gd33  1  0.56332995  0.53973575  0.11860041  1
  Gd  Gd34  1  0.87870188  0.86905980  0.64252645  1
  Gd  Gd35  1  0.45682847  0.75209523  0.82813541  1
  N  N36  1  0.21818798  0.20547414  0.40193700  1
  N  N37  1  0.11532852  0.10277292  0.15407077  1
  N  N38  1  0.90002806  0.19381066  0.86281769  1
  N  N39  1  0.75261419  0.10734310  0.57335706  1
  N  N40  1  0.53217063  0.21383121  0.39266800  1
  N  N41  1  0.43993999  0.09915061  0.14591150  1
  N  N42  1  0.23610412  0.18851102  0.89334427  1
  N  N43  1  0.15004568  0.07031338  0.65662199  1
  N  N44  1  0.87748835  0.21134006  0.34520709  1
  N  N45  1  0.77961299  0.09315766  0.10210988  1
  N  N46  1  0.56196679  0.19721987  0.89656647  1
  N  N47  1  0.44904994  0.08993263  0.64671957  1
  N  N48  1  0.21045073  0.54929211  0.36333129  1
  N  N49  1  0.10003992  0.41991702  0.07641176  1
  N  N50  1  0.88651674  0.53659988  0.83828204  1
  N  N51  1  0.76327122  0.45570229  0.57254764  1
  N  N52  1  0.54245773  0.54619750  0.37259024  1
  N  N53  1  0.45783824  0.39337108  0.15910434  1
  N  N54  1  0.22976664  0.52648895  0.85345386  1
  N  N55  1  0.10569550  0.43178914  0.60153045  1
  N  N56  1  0.89275454  0.53695069  0.33808364  1
  N  N57  1  0.81983604  0.40581863  0.09485720  1
  N  N58  1  0.57670141  0.50332465  0.89689715  1
  N  N59  1  0.45451907  0.42104706  0.64269500  1
  N  N60  1  0.20893350  0.88384531  0.39924186  1
  N  N61  1  0.09408989  0.80345347  0.16062123  1
  N  N62  1  0.89601153  0.86521049  0.86393875  1
  N  N63  1  0.76258990  0.74320638  0.57645618  1
  N  N64  1  0.54220665  0.88516894  0.38458012  1
  N  N65  1  0.42127345  0.80204361  0.15368552  1
  N  N66  1  0.20631514  0.87643081  0.91360615  1
  N  N67  1  0.14649292  0.74977003  0.65608360  1
  N  N68  1  0.87136396  0.87958725  0.35210247  1
  N  N69  1  0.78641013  0.75311466  0.10495978  1
  N  N70  1  0.57042829  0.88370985  0.90772764  1
  N  N71  1  0.44658598  0.75776279  0.61245317  1
