# generated using pymatgen
data_Gd5Al31N36
_symmetry_space_group_name_H-M   'P 1'
_cell_length_a   9.70875130
_cell_length_b   9.69189965
_cell_length_c   10.38122690
_cell_angle_alpha   90.19524221
_cell_angle_beta   90.03933603
_cell_angle_gamma   60.23134341
_symmetry_Int_Tables_number   1
_chemical_formula_structural   Gd5Al31N36
_chemical_formula_sum   'Gd5 Al31 N36'
_cell_volume   847.92314300
_cell_formula_units_Z   1
loop_
 _symmetry_equiv_pos_site_id
 _symmetry_equiv_pos_as_xyz
  1  'x, y, z'
loop_
 _atom_site_type_symbol
 _atom_site_label
 _atom_site_symmetry_multiplicity
 _atom_site_fract_x
 _atom_site_fract_y
 _atom_site_fract_z
 _atom_site_occupancy
  Al  Al0  1  0.11112193  0.09887200  0.30753661  1
  Al  Al1  1  0.22478487  0.20080364  0.06255348  1
  Al  Al2  1  0.77254977  0.09324711  0.81822745  1
  Al  Al3  1  0.44200823  0.09925728  0.30914510  1
  Al  Al4  1  0.55546095  0.19852528  0.05944024  1
  Al  Al5  1  0.11997600  0.08771206  0.81605342  1
  Al  Al6  1  0.22991225  0.20013009  0.56157423  1
  Al  Al7  1  0.76996592  0.10006131  0.30112909  1
  Al  Al8  1  0.89974744  0.19582064  0.09269282  1
  Al  Al9  1  0.44785397  0.09710161  0.81197150  1
  Al  Al10  1  0.54765529  0.20438698  0.56015628  1
  Al  Al11  1  0.11330358  0.42410809  0.31943692  1
  Al  Al12  1  0.79772798  0.41128846  0.88020950  1
  Al  Al13  1  0.87402168  0.53934220  0.63394915  1
  Al  Al14  1  0.43955329  0.42125163  0.31784847  1
  Al  Al15  1  0.12085392  0.41796782  0.80035272  1
  Al  Al16  1  0.22647216  0.53641872  0.56411011  1
  Al  Al17  1  0.77795572  0.43835909  0.37037505  1
  Al  Al18  1  0.89527442  0.53100755  0.13107917  1
  Al  Al19  1  0.45572978  0.41735710  0.79828819  1
  Al  Al20  1  0.54251296  0.54594370  0.53924349  1
  Al  Al21  1  0.10393094  0.77177195  0.30752483  1
  Al  Al22  1  0.21440672  0.88540474  0.06615640  1
  Al  Al23  1  0.77499555  0.76397772  0.82304527  1
  Al  Al24  1  0.43319869  0.77850905  0.31615609  1
  Al  Al25  1  0.55212588  0.88440048  0.06548317  1
  Al  Al26  1  0.11517666  0.76074339  0.80842949  1
  Al  Al27  1  0.22863915  0.87035349  0.55233319  1
  Al  Al28  1  0.76937468  0.77326051  0.29893065  1
  Al  Al29  1  0.88733828  0.87679479  0.05932790  1
  Al  Al30  1  0.54878481  0.87608046  0.55175229  1
  Gd  Gd31  1  0.89269136  0.20135287  0.58452778  1
  Gd  Gd32  1  0.21819062  0.53831192  0.05640353  1
  Gd  Gd33  1  0.56070116  0.53783134  0.08964646  1
  Gd  Gd34  1  0.88628634  0.85750396  0.56344301  1
  Gd  Gd35  1  0.45088494  0.75829944  0.79924448  1
  N  N36  1  0.22308993  0.20401304  0.37488342  1
  N  N37  1  0.11617375  0.09584745  0.12296006  1
  N  N38  1  0.89764201  0.19436390  0.83946133  1
  N  N39  1  0.74502310  0.09852449  0.63730384  1
  N  N40  1  0.55564456  0.20275692  0.37437678  1
  N  N41  1  0.44352850  0.09758764  0.12374083  1
  N  N42  1  0.22669751  0.20434421  0.87343979  1
  N  N43  1  0.15320006  0.07102102  0.63213807  1
  N  N44  1  0.88470191  0.21084874  0.34052440  1
  N  N45  1  0.77406704  0.09608338  0.11213949  1
  N  N46  1  0.55230981  0.20738237  0.87318160  1
  N  N47  1  0.44295180  0.09433351  0.62161225  1
  N  N48  1  0.21523628  0.54597792  0.37162825  1
  N  N49  1  0.11357399  0.40484767  0.13515138  1
  N  N50  1  0.89349318  0.53013784  0.82203712  1
  N  N51  1  0.76167792  0.45755342  0.55336747  1
  N  N52  1  0.54540524  0.54524668  0.34807035  1
  N  N53  1  0.45287589  0.39444146  0.14015237  1
  N  N54  1  0.22953558  0.53210834  0.83878563  1
  N  N55  1  0.10965575  0.42493041  0.61213774  1
  N  N56  1  0.88252939  0.54715557  0.31915147  1
  N  N57  1  0.81838716  0.40804548  0.06348419  1
  N  N58  1  0.57251582  0.50841569  0.86501824  1
  N  N59  1  0.44817243  0.42518456  0.60788119  1
  N  N60  1  0.21052100  0.88297133  0.36864454  1
  N  N61  1  0.09689422  0.79038927  0.12699852  1
  N  N62  1  0.89501236  0.86557523  0.86829017  1
  N  N63  1  0.74298872  0.75900599  0.63941051  1
  N  N64  1  0.55592086  0.88029819  0.36620727  1
  N  N65  1  0.42558775  0.79965498  0.12991263  1
  N  N66  1  0.20382315  0.87855988  0.88399873  1
  N  N67  1  0.14125538  0.75151964  0.62573544  1
  N  N68  1  0.88075443  0.88013599  0.34754572  1
  N  N69  1  0.77700253  0.76301894  0.11251607  1
  N  N70  1  0.56560452  0.88954067  0.88452092  1
  N  N71  1  0.44436399  0.75970006  0.58014978  1
