# generated using pymatgen
data_Gd5Al31N36
_symmetry_space_group_name_H-M   'P 1'
_cell_length_a   9.73619637
_cell_length_b   9.75148386
_cell_length_c   10.32790596
_cell_angle_alpha   89.71705494
_cell_angle_beta   90.23901919
_cell_angle_gamma   59.77977522
_symmetry_Int_Tables_number   1
_chemical_formula_structural   Gd5Al31N36
_chemical_formula_sum   'Gd5 Al31 N36'
_cell_volume   847.26001761
_cell_formula_units_Z   1
loop_
 _symmetry_equiv_pos_site_id
 _symmetry_equiv_pos_as_xyz
  1  'x, y, z'
loop_
 _atom_site_type_symbol
 _atom_site_label
 _atom_site_symmetry_multiplicity
 _atom_site_fract_x
 _atom_site_fract_y
 _atom_site_fract_z
 _atom_site_occupancy
  Al  Al0  1  0.11448080  0.10203127  0.38896884  1
  Al  Al1  1  0.22294149  0.20165978  0.14771153  1
  Al  Al2  1  0.77740737  0.09520598  0.91471175  1
  Al  Al3  1  0.44256879  0.09961648  0.39821007  1
  Al  Al4  1  0.55609293  0.19309562  0.14774141  1
  Al  Al5  1  0.10432779  0.10739860  0.91392229  1
  Al  Al6  1  0.23045573  0.20212960  0.64849768  1
  Al  Al7  1  0.76928917  0.09986938  0.38908507  1
  Al  Al8  1  0.89508617  0.20122705  0.15340378  1
  Al  Al9  1  0.45101390  0.09708156  0.89579668  1
  Al  Al10  1  0.55061517  0.20630503  0.64717178  1
  Al  Al11  1  0.10888767  0.42722222  0.40970668  1
  Al  Al12  1  0.78844116  0.41910989  0.90255521  1
  Al  Al13  1  0.88137248  0.54358650  0.64795655  1
  Al  Al14  1  0.44266230  0.42752011  0.41244908  1
  Al  Al15  1  0.10825359  0.42437785  0.89097175  1
  Al  Al16  1  0.22532159  0.53981571  0.64918238  1
  Al  Al17  1  0.77485516  0.43606639  0.39927906  1
  Al  Al18  1  0.89272400  0.53102318  0.14803688  1
  Al  Al19  1  0.45062770  0.41135407  0.88592382  1
  Al  Al20  1  0.55669077  0.53826878  0.63888365  1
  Al  Al21  1  0.11112269  0.75769818  0.39997074  1
  Al  Al22  1  0.21084019  0.88330052  0.09406391  1
  Al  Al23  1  0.78065468  0.76297056  0.90732140  1
  Al  Al24  1  0.43658947  0.77079679  0.33159359  1
  Al  Al25  1  0.55640714  0.88046478  0.15028992  1
  Al  Al26  1  0.10099133  0.76427645  0.91236742  1
  Al  Al27  1  0.24370389  0.86576689  0.56835080  1
  Al  Al28  1  0.77387453  0.75873898  0.39362596  1
  Al  Al29  1  0.88403760  0.87458027  0.15465873  1
  Al  Al30  1  0.55742309  0.87736023  0.64185420  1
  Gd  Gd31  1  0.89519708  0.20395943  0.64669692  1
  Gd  Gd32  1  0.22026517  0.52513940  0.15123161  1
  Gd  Gd33  1  0.56028471  0.52114688  0.13868386  1
  Gd  Gd34  1  0.88589424  0.86948705  0.65077171  1
  Gd  Gd35  1  0.44382638  0.76526086  0.86088390  1
  N  N36  1  0.22358302  0.21321766  0.33547475  1
  N  N37  1  0.10888053  0.10186571  0.10382525  1
  N  N38  1  0.89111880  0.20125132  0.86510165  1
  N  N39  1  0.74874865  0.11010156  0.56889926  1
  N  N40  1  0.54681215  0.21333287  0.33436876  1
  N  N41  1  0.44435977  0.09069547  0.08526529  1
  N  N42  1  0.22535587  0.20076934  0.83779223  1
  N  N43  1  0.14270766  0.08827232  0.57375784  1
  N  N44  1  0.88656361  0.21051053  0.34340114  1
  N  N45  1  0.77603888  0.09468775  0.10325132  1
  N  N46  1  0.56345821  0.19704573  0.83311236  1
  N  N47  1  0.44410359  0.09858121  0.58542615  1
  N  N48  1  0.22141600  0.53509929  0.36851883  1
  N  N49  1  0.09710872  0.40871182  0.07394821  1
  N  N50  1  0.88446410  0.54284049  0.83697533  1
  N  N51  1  0.76745049  0.45151979  0.58119365  1
  N  N52  1  0.54884760  0.54262731  0.35958338  1
  N  N53  1  0.45407691  0.38731048  0.06475348  1
  N  N54  1  0.21833274  0.54223363  0.84240715  1
  N  N55  1  0.10765646  0.42864559  0.59782027  1
  N  N56  1  0.89184110  0.53755016  0.33618825  1
  N  N57  1  0.80671007  0.41095133  0.08649495  1
  N  N58  1  0.57660162  0.50207219  0.84156806  1
  N  N59  1  0.44484242  0.42600132  0.59823442  1
  N  N60  1  0.22200409  0.87384908  0.37517327  1
  N  N61  1  0.09528982  0.77833634  0.10080833  1
  N  N62  1  0.88673849  0.87478489  0.86971101  1
  N  N63  1  0.76384381  0.74858186  0.57504274  1
  N  N64  1  0.55471299  0.88133931  0.33747725  1
  N  N65  1  0.42871941  0.78598881  0.13214663  1
  N  N66  1  0.19203882  0.89028222  0.90129761  1
  N  N67  1  0.13702935  0.75063385  0.58548107  1
  N  N68  1  0.88665523  0.87151074  0.34462135  1
  N  N69  1  0.77647411  0.75668778  0.09575569  1
  N  N70  1  0.57961349  0.89082573  0.82890934  1
  N  N71  1  0.44765242  0.76267069  0.63262230  1
