# generated using pymatgen
data_Gd5Al31N36
_symmetry_space_group_name_H-M   'P 1'
_cell_length_a   9.68599728
_cell_length_b   9.68479457
_cell_length_c   10.29641638
_cell_angle_alpha   89.89986365
_cell_angle_beta   90.00731676
_cell_angle_gamma   59.89539484
_symmetry_Int_Tables_number   1
_chemical_formula_structural   Gd5Al31N36
_chemical_formula_sum   'Gd5 Al31 N36'
_cell_volume   835.58721382
_cell_formula_units_Z   1
loop_
 _symmetry_equiv_pos_site_id
 _symmetry_equiv_pos_as_xyz
  1  'x, y, z'
loop_
 _atom_site_type_symbol
 _atom_site_label
 _atom_site_symmetry_multiplicity
 _atom_site_fract_x
 _atom_site_fract_y
 _atom_site_fract_z
 _atom_site_occupancy
  Al  Al0  1  0.11054808  0.09674738  0.29178090  1
  Al  Al1  1  0.22192925  0.20287425  0.05416859  1
  Al  Al2  1  0.77114825  0.09827773  0.81290303  1
  Al  Al3  1  0.44436052  0.09687351  0.30068634  1
  Al  Al4  1  0.55491236  0.19923976  0.05081921  1
  Al  Al5  1  0.11480522  0.09346657  0.81085256  1
  Al  Al6  1  0.23185105  0.19832353  0.55363574  1
  Al  Al7  1  0.77452354  0.09563404  0.28629144  1
  Al  Al8  1  0.89430332  0.20305492  0.04947229  1
  Al  Al9  1  0.44696677  0.09965843  0.80434483  1
  Al  Al10  1  0.55099755  0.20406686  0.55114015  1
  Al  Al11  1  0.10736395  0.42477095  0.30924080  1
  Al  Al12  1  0.77822169  0.42783665  0.79926416  1
  Al  Al13  1  0.88022050  0.54200651  0.55242626  1
  Al  Al14  1  0.44595390  0.41922918  0.31095767  1
  Al  Al15  1  0.11014486  0.42527620  0.79286421  1
  Al  Al16  1  0.22655681  0.53636463  0.55224712  1
  Al  Al17  1  0.78474251  0.42456714  0.29614319  1
  Al  Al18  1  0.89304231  0.53196572  0.05149940  1
  Al  Al19  1  0.44790299  0.42088170  0.78548998  1
  Al  Al20  1  0.55661162  0.53756871  0.53665890  1
  Al  Al21  1  0.10654784  0.76861260  0.29784476  1
  Al  Al22  1  0.21330407  0.88622220  0.05788589  1
  Al  Al23  1  0.77753540  0.76040285  0.81104490  1
  Al  Al24  1  0.44024716  0.77148737  0.31037095  1
  Al  Al25  1  0.55313634  0.88320188  0.05816605  1
  Al  Al26  1  0.11382694  0.76193636  0.79971079  1
  Al  Al27  1  0.23089367  0.86891022  0.54024858  1
  Al  Al28  1  0.77847169  0.75991184  0.29215655  1
  Al  Al29  1  0.88744457  0.87537872  0.05006018  1
  Al  Al30  1  0.55541875  0.87315703  0.54060426  1
  Gd  Gd31  1  0.89847326  0.20056010  0.55595328  1
  Gd  Gd32  1  0.21722669  0.53583675  0.05077960  1
  Gd  Gd33  1  0.55331589  0.54179295  0.06187281  1
  Gd  Gd34  1  0.88659270  0.86562471  0.55588465  1
  Gd  Gd35  1  0.44121977  0.77208142  0.78436184  1
  N  N36  1  0.22284590  0.20163618  0.36470461  1
  N  N37  1  0.10958809  0.09988195  0.10701050  1
  N  N38  1  0.89083259  0.20693094  0.85595260  1
  N  N39  1  0.74958079  0.10808447  0.63155029  1
  N  N40  1  0.56041467  0.19810887  0.36459453  1
  N  N41  1  0.44182525  0.09901752  0.11414909  1
  N  N42  1  0.22415540  0.20798444  0.86371914  1
  N  N43  1  0.15372007  0.06904397  0.62701771  1
  N  N44  1  0.88818139  0.20235014  0.33704608  1
  N  N45  1  0.77538152  0.09576386  0.09746704  1
  N  N46  1  0.54890555  0.21187049  0.86394137  1
  N  N47  1  0.44766679  0.09116772  0.61238517  1
  N  N48  1  0.21721678  0.54244505  0.35943355  1
  N  N49  1  0.09862603  0.41125157  0.12491843  1
  N  N50  1  0.89200928  0.53576659  0.86259456  1
  N  N51  1  0.76311039  0.45015456  0.61354257  1
  N  N52  1  0.55890228  0.53579849  0.34632680  1
  N  N53  1  0.45551740  0.39571631  0.13188600  1
  N  N54  1  0.22436160  0.53449113  0.83075293  1
  N  N55  1  0.10692916  0.42575172  0.60446442  1
  N  N56  1  0.88489911  0.54231638  0.36401082  1
  N  N57  1  0.80382354  0.41369136  0.11322880  1
  N  N58  1  0.56214978  0.51788337  0.84410158  1
  N  N59  1  0.44736381  0.42431595  0.59614496  1
  N  N60  1  0.21273980  0.88062478  0.35655987  1
  N  N61  1  0.09838670  0.78850291  0.11639092  1
  N  N62  1  0.89282115  0.86805302  0.85666691  1
  N  N63  1  0.75590416  0.74889747  0.62584309  1
  N  N64  1  0.56136129  0.87661287  0.35511448  1
  N  N65  1  0.42603650  0.79856110  0.12245840  1
  N  N66  1  0.19882142  0.88218040  0.87512118  1
  N  N67  1  0.14392783  0.75086941  0.61533817  1
  N  N68  1  0.88377675  0.87532652  0.33723615  1
  N  N69  1  0.78077781  0.75595021  0.10571409  1
  N  N70  1  0.56705717  0.88972733  0.87473942  1
  N  N71  1  0.44929498  0.75792472  0.56471101  1
