# generated using pymatgen
data_Gd5Al31N36
_symmetry_space_group_name_H-M   'P 1'
_cell_length_a   9.70464605
_cell_length_b   9.71739359
_cell_length_c   10.34016768
_cell_angle_alpha   90.01646212
_cell_angle_beta   89.87810227
_cell_angle_gamma   60.07409025
_symmetry_Int_Tables_number   1
_chemical_formula_structural   Gd5Al31N36
_chemical_formula_sum   'Gd5 Al31 N36'
_cell_volume   845.10359939
_cell_formula_units_Z   1
loop_
 _symmetry_equiv_pos_site_id
 _symmetry_equiv_pos_as_xyz
  1  'x, y, z'
loop_
 _atom_site_type_symbol
 _atom_site_label
 _atom_site_symmetry_multiplicity
 _atom_site_fract_x
 _atom_site_fract_y
 _atom_site_fract_z
 _atom_site_occupancy
  Al  Al0  1  0.10912364  0.09840486  0.30141761  1
  Al  Al1  1  0.22465681  0.20018954  0.06245861  1
  Al  Al2  1  0.77286916  0.09510591  0.82082841  1
  Al  Al3  1  0.44205244  0.09925113  0.30959545  1
  Al  Al4  1  0.55482806  0.19842107  0.05958995  1
  Al  Al5  1  0.12076846  0.08784371  0.81876627  1
  Al  Al6  1  0.23072652  0.19947434  0.56284974  1
  Al  Al7  1  0.77195488  0.09798365  0.29616700  1
  Al  Al8  1  0.89900948  0.19346606  0.06183178  1
  Al  Al9  1  0.44890657  0.09725683  0.81233167  1
  Al  Al10  1  0.55009046  0.20513818  0.56066177  1
  Al  Al11  1  0.11134726  0.42342944  0.32033924  1
  Al  Al12  1  0.79020993  0.41762643  0.86562116  1
  Al  Al13  1  0.87673163  0.53951382  0.63421899  1
  Al  Al14  1  0.44045367  0.41980399  0.31823221  1
  Al  Al15  1  0.12249598  0.41800287  0.80199701  1
  Al  Al16  1  0.22651840  0.53682385  0.56262008  1
  Al  Al17  1  0.77685804  0.42879672  0.32959355  1
  Al  Al18  1  0.89282628  0.53394215  0.12942196  1
  Al  Al19  1  0.45442138  0.41757939  0.79541976  1
  Al  Al20  1  0.55036128  0.54158559  0.53879644  1
  Al  Al21  1  0.10440104  0.77113622  0.30757125  1
  Al  Al22  1  0.21514262  0.88550597  0.06635923  1
  Al  Al23  1  0.77605119  0.76526349  0.82463698  1
  Al  Al24  1  0.43481131  0.77756340  0.31919376  1
  Al  Al25  1  0.55191759  0.88465503  0.06699383  1
  Al  Al26  1  0.11729691  0.75997920  0.80845363  1
  Al  Al27  1  0.22824414  0.87126688  0.55131955  1
  Al  Al28  1  0.77110118  0.77181734  0.30075031  1
  Al  Al29  1  0.88793973  0.87638628  0.05932455  1
  Al  Al30  1  0.55159748  0.87571688  0.54992144  1
  Gd  Gd31  1  0.89657639  0.20075341  0.56670697  1
  Gd  Gd32  1  0.21545279  0.53740223  0.05808706  1
  Gd  Gd33  1  0.54830874  0.54401485  0.08076180  1
  Gd  Gd34  1  0.88573122  0.86315349  0.56567373  1
  Gd  Gd35  1  0.45186028  0.76119338  0.79303433  1
  N  N36  1  0.22141029  0.20269887  0.37483326  1
  N  N37  1  0.11198147  0.09770207  0.11743176  1
  N  N38  1  0.89901220  0.19392742  0.86758570  1
  N  N39  1  0.74817760  0.10569157  0.64051712  1
  N  N40  1  0.55771331  0.20097008  0.37393431  1
  N  N41  1  0.44275564  0.09805170  0.12380208  1
  N  N42  1  0.22758207  0.20454220  0.87325584  1
  N  N43  1  0.15257247  0.07129643  0.63593524  1
  N  N44  1  0.88560942  0.20540313  0.34314329  1
  N  N45  1  0.77445683  0.09491757  0.10849737  1
  N  N46  1  0.55152449  0.20881425  0.87290603  1
  N  N47  1  0.44564835  0.09327570  0.62124843  1
  N  N48  1  0.21488195  0.54493668  0.37033071  1
  N  N49  1  0.11061171  0.40375620  0.13466221  1
  N  N50  1  0.89525143  0.53205327  0.82904939  1
  N  N51  1  0.76054657  0.45186656  0.58161820  1
  N  N52  1  0.54838743  0.54187591  0.34783274  1
  N  N53  1  0.45130959  0.39395533  0.14019168  1
  N  N54  1  0.23006563  0.53240610  0.83977365  1
  N  N55  1  0.11109514  0.42465995  0.61353601  1
  N  N56  1  0.88179133  0.54667309  0.32270547  1
  N  N57  1  0.80428455  0.41106276  0.09139261  1
  N  N58  1  0.56980999  0.51095117  0.86008422  1
  N  N59  1  0.44739610  0.42572072  0.60569633  1
  N  N60  1  0.20898114  0.88403580  0.36746901  1
  N  N61  1  0.09821628  0.78965630  0.12636135  1
  N  N62  1  0.89618890  0.86651524  0.86742924  1
  N  N63  1  0.74554514  0.75968309  0.63991319  1
  N  N64  1  0.55725176  0.88074230  0.36530646  1
  N  N65  1  0.42487493  0.80205212  0.13292366  1
  N  N66  1  0.20700737  0.87663025  0.88318675  1
  N  N67  1  0.14243992  0.75116536  0.62499994  1
  N  N68  1  0.88151237  0.87936180  0.34798641  1
  N  N69  1  0.77792728  0.76345374  0.11281309  1
  N  N70  1  0.56568519  0.88959519  0.88499786  1
  N  N71  1  0.44575256  0.75970881  0.57324175  1
