# generated using pymatgen
data_Gd5Al31N36
_symmetry_space_group_name_H-M   'P 1'
_cell_length_a   9.70125410
_cell_length_b   9.71569257
_cell_length_c   10.34245296
_cell_angle_alpha   89.99406800
_cell_angle_beta   89.87259096
_cell_angle_gamma   60.05237231
_symmetry_Int_Tables_number   1
_chemical_formula_structural   Gd5Al31N36
_chemical_formula_sum   'Gd5 Al31 N36'
_cell_volume   844.66289211
_cell_formula_units_Z   1
loop_
 _symmetry_equiv_pos_site_id
 _symmetry_equiv_pos_as_xyz
  1  'x, y, z'
loop_
 _atom_site_type_symbol
 _atom_site_label
 _atom_site_symmetry_multiplicity
 _atom_site_fract_x
 _atom_site_fract_y
 _atom_site_fract_z
 _atom_site_occupancy
  Al  Al0  1  0.10915483  0.09812460  0.30119939  1
  Al  Al1  1  0.22457655  0.20024796  0.06240681  1
  Al  Al2  1  0.77293507  0.09506802  0.82102174  1
  Al  Al3  1  0.44204428  0.09927022  0.30963868  1
  Al  Al4  1  0.55486380  0.19872438  0.05977863  1
  Al  Al5  1  0.12017198  0.08846461  0.81902701  1
  Al  Al6  1  0.23089469  0.19928721  0.56274652  1
  Al  Al7  1  0.77219464  0.09765530  0.29610094  1
  Al  Al8  1  0.89680500  0.19766103  0.06069974  1
  Al  Al9  1  0.44892336  0.09719685  0.81249315  1
  Al  Al10  1  0.55036653  0.20505900  0.56057874  1
  Al  Al11  1  0.11065299  0.42388923  0.32078079  1
  Al  Al12  1  0.78453023  0.41774237  0.83158083  1
  Al  Al13  1  0.87901731  0.54118613  0.63303853  1
  Al  Al14  1  0.44148561  0.42008158  0.31860548  1
  Al  Al15  1  0.12199490  0.41829228  0.80284732  1
  Al  Al16  1  0.22705375  0.53683515  0.56224582  1
  Al  Al17  1  0.77843427  0.42449473  0.30874882  1
  Al  Al18  1  0.89300765  0.53488241  0.12841216  1
  Al  Al19  1  0.45323782  0.41751409  0.79520644  1
  Al  Al20  1  0.55352392  0.53990457  0.54019972  1
  Al  Al21  1  0.10456569  0.77096899  0.30747611  1
  Al  Al22  1  0.21486103  0.88576488  0.06646527  1
  Al  Al23  1  0.77637791  0.76488531  0.82498784  1
  Al  Al24  1  0.43601467  0.77614301  0.31954739  1
  Al  Al25  1  0.55182590  0.88459966  0.06718133  1
  Al  Al26  1  0.11715824  0.76005480  0.80846446  1
  Al  Al27  1  0.22870959  0.87080929  0.55095601  1
  Al  Al28  1  0.77157266  0.77089385  0.30156966  1
  Al  Al29  1  0.88792277  0.87683340  0.05948811  1
  Al  Al30  1  0.55157427  0.87606995  0.54961900  1
  Gd  Gd31  1  0.89681050  0.20143326  0.56466851  1
  Gd  Gd32  1  0.21578175  0.53752942  0.05830862  1
  Gd  Gd33  1  0.54978040  0.54353787  0.07703970  1
  Gd  Gd34  1  0.88609279  0.86360823  0.56525408  1
  Gd  Gd35  1  0.45108058  0.76203132  0.79258253  1
  N  N36  1  0.22135693  0.20264386  0.37487065  1
  N  N37  1  0.11112354  0.09841618  0.11685351  1
  N  N38  1  0.89723252  0.19711248  0.86798264  1
  N  N39  1  0.74919476  0.10608424  0.64041777  1
  N  N40  1  0.55779356  0.20078316  0.37393414  1
  N  N41  1  0.44264592  0.09825316  0.12379931  1
  N  N42  1  0.22772613  0.20439994  0.87317700  1
  N  N43  1  0.15198322  0.07124413  0.63588584  1
  N  N44  1  0.88603607  0.20415537  0.34493826  1
  N  N45  1  0.77454834  0.09543485  0.10820737  1
  N  N46  1  0.55143870  0.20877789  0.87289964  1
  N  N47  1  0.44577634  0.09321527  0.62138452  1
  N  N48  1  0.21532715  0.54481069  0.37024743  1
  N  N49  1  0.11032237  0.40402818  0.13449295  1
  N  N50  1  0.89557343  0.53274561  0.83108481  1
  N  N51  1  0.75769907  0.44959108  0.61006191  1
  N  N52  1  0.55191882  0.53974208  0.35065617  1
  N  N53  1  0.45203977  0.39484670  0.14030037  1
  N  N54  1  0.22969895  0.53254807  0.83995765  1
  N  N55  1  0.11144354  0.42455626  0.61364466  1
  N  N56  1  0.88188743  0.54647813  0.32630374  1
  N  N57  1  0.80185837  0.40979273  0.11430762  1
  N  N58  1  0.56757315  0.51154160  0.86006253  1
  N  N59  1  0.44767094  0.42538400  0.60576925  1
  N  N60  1  0.20947357  0.88358312  0.36728542  1
  N  N61  1  0.09818760  0.78967510  0.12633824  1
  N  N62  1  0.89605914  0.86685253  0.86746725  1
  N  N63  1  0.74581566  0.76020071  0.63938261  1
  N  N64  1  0.55719899  0.88088389  0.36524124  1
  N  N65  1  0.42513645  0.80117299  0.13304317  1
  N  N66  1  0.20653603  0.87712387  0.88316097  1
  N  N67  1  0.14276140  0.75102064  0.62505864  1
  N  N68  1  0.88163872  0.87921406  0.34783492  1
  N  N69  1  0.77791802  0.76351795  0.11315658  1
  N  N70  1  0.56570527  0.88942904  0.88504426  1
  N  N71  1  0.44660355  0.75925178  0.57292049  1
