# generated using pymatgen
data_Gd5Al31N36
_symmetry_space_group_name_H-M   'P 1'
_cell_length_a   9.70423375
_cell_length_b   9.71585202
_cell_length_c   10.34291425
_cell_angle_alpha   90.02856162
_cell_angle_beta   89.89474774
_cell_angle_gamma   60.08451927
_symmetry_Int_Tables_number   1
_chemical_formula_structural   Gd5Al31N36
_chemical_formula_sum   'Gd5 Al31 N36'
_cell_volume   845.24698826
_cell_formula_units_Z   1
loop_
 _symmetry_equiv_pos_site_id
 _symmetry_equiv_pos_as_xyz
  1  'x, y, z'
loop_
 _atom_site_type_symbol
 _atom_site_label
 _atom_site_symmetry_multiplicity
 _atom_site_fract_x
 _atom_site_fract_y
 _atom_site_fract_z
 _atom_site_occupancy
  Al  Al0  1  0.10873377  0.09883400  0.30157095  1
  Al  Al1  1  0.22456265  0.20023896  0.06245902  1
  Al  Al2  1  0.77293789  0.09508036  0.82083776  1
  Al  Al3  1  0.44204050  0.09924936  0.30952188  1
  Al  Al4  1  0.55482595  0.19834215  0.05948544  1
  Al  Al5  1  0.12072725  0.08770678  0.81877168  1
  Al  Al6  1  0.23076441  0.19949933  0.56273355  1
  Al  Al7  1  0.77195864  0.09849334  0.29626398  1
  Al  Al8  1  0.89976782  0.19237891  0.06152032  1
  Al  Al9  1  0.44887990  0.09727307  0.81233403  1
  Al  Al10  1  0.54993043  0.20508451  0.56057177  1
  Al  Al11  1  0.11165208  0.42325425  0.32005982  1
  Al  Al12  1  0.79209480  0.41781489  0.87617936  1
  Al  Al13  1  0.87600341  0.53902287  0.63434525  1
  Al  Al14  1  0.44021312  0.41976687  0.31805709  1
  Al  Al15  1  0.12229706  0.41798919  0.80165464  1
  Al  Al16  1  0.22628126  0.53677240  0.56268190  1
  Al  Al17  1  0.77650237  0.43181962  0.34702303  1
  Al  Al18  1  0.89233148  0.53272665  0.13009213  1
  Al  Al19  1  0.45472030  0.41777647  0.79581577  1
  Al  Al20  1  0.54794063  0.54266302  0.53891169  1
  Al  Al21  1  0.10433440  0.77119940  0.30757319  1
  Al  Al22  1  0.21520347  0.88535290  0.06634117  1
  Al  Al23  1  0.77605947  0.76498949  0.82444553  1
  Al  Al24  1  0.43439421  0.77795136  0.31889529  1
  Al  Al25  1  0.55203846  0.88460797  0.06687702  1
  Al  Al26  1  0.11725847  0.75993725  0.80849260  1
  Al  Al27  1  0.22827706  0.87120338  0.55140677  1
  Al  Al28  1  0.77094833  0.77215118  0.30031155  1
  Al  Al29  1  0.88789927  0.87619993  0.05926173  1
  Al  Al30  1  0.55144031  0.87572467  0.55000074  1
  Gd  Gd31  1  0.89702827  0.19954880  0.56845425  1
  Gd  Gd32  1  0.21532068  0.53736680  0.05796423  1
  Gd  Gd33  1  0.54943297  0.54331098  0.08260708  1
  Gd  Gd34  1  0.88554031  0.86273107  0.56569457  1
  Gd  Gd35  1  0.45186281  0.76106756  0.79374382  1
  N  N36  1  0.22147787  0.20270748  0.37481086  1
  N  N37  1  0.11210708  0.09752659  0.11770203  1
  N  N38  1  0.89936070  0.19292831  0.86625829  1
  N  N39  1  0.74783927  0.10540744  0.64043164  1
  N  N40  1  0.55763599  0.20106564  0.37393830  1
  N  N41  1  0.44278470  0.09796696  0.12379591  1
  N  N42  1  0.22751627  0.20454609  0.87325103  1
  N  N43  1  0.15286909  0.07116002  0.63582718  1
  N  N44  1  0.88527412  0.20639369  0.34336989  1
  N  N45  1  0.77450462  0.09492719  0.10859947  1
  N  N46  1  0.55155972  0.20877656  0.87287543  1
  N  N47  1  0.44558900  0.09329176  0.62121312  1
  N  N48  1  0.21476134  0.54498239  0.37039921  1
  N  N49  1  0.11058822  0.40369207  0.13482642  1
  N  N50  1  0.89483919  0.53153983  0.82702968  1
  N  N51  1  0.76220096  0.45295300  0.56812771  1
  N  N52  1  0.54698572  0.54273298  0.34739288  1
  N  N53  1  0.45116788  0.39377116  0.14009813  1
  N  N54  1  0.22999369  0.53233904  0.83965491  1
  N  N55  1  0.11099211  0.42454568  0.61323907  1
  N  N56  1  0.88164749  0.54666700  0.32141567  1
  N  N57  1  0.80640849  0.41162513  0.07819461  1
  N  N58  1  0.57053002  0.51085254  0.85977281  1
  N  N59  1  0.44738760  0.42570801  0.60584386  1
  N  N60  1  0.20886347  0.88421518  0.36757793  1
  N  N61  1  0.09817923  0.78962757  0.12641004  1
  N  N62  1  0.89617472  0.86626430  0.86737975  1
  N  N63  1  0.74525836  0.75932797  0.63977823  1
  N  N64  1  0.55720200  0.88063908  0.36535814  1
  N  N65  1  0.42491652  0.80201714  0.13271080  1
  N  N66  1  0.20696021  0.87653607  0.88328730  1
  N  N67  1  0.14227927  0.75123569  0.62495742  1
  N  N68  1  0.88143823  0.87953111  0.34805474  1
  N  N69  1  0.77796126  0.76321287  0.11274627  1
  N  N70  1  0.56582812  0.88965210  0.88499799  1
  N  N71  1  0.44561461  0.75976092  0.57385214  1
