# generated using pymatgen
data_Gd5Al31N36
_symmetry_space_group_name_H-M   'P 1'
_cell_length_a   9.70493507
_cell_length_b   9.72670739
_cell_length_c   10.55216485
_cell_angle_alpha   89.54535806
_cell_angle_beta   89.71357418
_cell_angle_gamma   59.73221444
_symmetry_Int_Tables_number   1
_chemical_formula_structural   Gd5Al31N36
_chemical_formula_sum   'Gd5 Al31 N36'
_cell_volume   860.27735526
_cell_formula_units_Z   1
loop_
 _symmetry_equiv_pos_site_id
 _symmetry_equiv_pos_as_xyz
  1  'x, y, z'
loop_
 _atom_site_type_symbol
 _atom_site_label
 _atom_site_symmetry_multiplicity
 _atom_site_fract_x
 _atom_site_fract_y
 _atom_site_fract_z
 _atom_site_occupancy
  Al  Al0  1  0.11071491  0.10278648  0.39380928  1
  Al  Al1  1  0.21388407  0.20485553  0.15024716  1
  Al  Al2  1  0.77914894  0.09490933  0.91809445  1
  Al  Al3  1  0.44105863  0.09648865  0.33323996  1
  Al  Al4  1  0.56068922  0.19498893  0.15115014  1
  Al  Al5  1  0.10765445  0.10427162  0.91444684  1
  Al  Al6  1  0.22798689  0.20228085  0.65055625  1
  Al  Al7  1  0.77140277  0.09841102  0.39303436  1
  Al  Al8  1  0.89797846  0.19687833  0.15533472  1
  Al  Al9  1  0.45054661  0.09739274  0.85586039  1
  Al  Al10  1  0.55113549  0.20977410  0.64615158  1
  Al  Al11  1  0.10870991  0.42598043  0.41460841  1
  Al  Al12  1  0.79054234  0.41945255  0.91574291  1
  Al  Al13  1  0.87969756  0.54443177  0.64918765  1
  Al  Al14  1  0.43838875  0.41989668  0.40833386  1
  Al  Al15  1  0.10864773  0.42517727  0.89311565  1
  Al  Al16  1  0.22696886  0.53863100  0.65104707  1
  Al  Al17  1  0.78505669  0.42842653  0.39285841  1
  Al  Al18  1  0.89507376  0.52934854  0.15335201  1
  Al  Al19  1  0.44998194  0.41427164  0.89656742  1
  Al  Al20  1  0.54896337  0.55130679  0.56392556  1
  Al  Al21  1  0.10994223  0.75687790  0.40315909  1
  Al  Al22  1  0.22059261  0.87895675  0.08787552  1
  Al  Al23  1  0.79029425  0.75737763  0.92053338  1
  Al  Al24  1  0.43327310  0.77725971  0.32882499  1
  Al  Al25  1  0.55236652  0.88060731  0.09297555  1
  Al  Al26  1  0.10627238  0.76340725  0.91195620  1
  Al  Al27  1  0.23461235  0.86937289  0.56438876  1
  Al  Al28  1  0.78164884  0.75457972  0.39191694  1
  Al  Al29  1  0.88837625  0.87354605  0.15726197  1
  Al  Al30  1  0.54455656  0.88171598  0.56151443  1
  Gd  Gd31  1  0.88735343  0.21138622  0.65325965  1
  Gd  Gd32  1  0.21308856  0.52760481  0.15512673  1
  Gd  Gd33  1  0.55558870  0.52606009  0.12875773  1
  Gd  Gd34  1  0.88134500  0.87050586  0.65488168  1
  Gd  Gd35  1  0.45403035  0.75965837  0.82694133  1
  N  N36  1  0.21203616  0.21793558  0.33706059  1
  N  N37  1  0.11029086  0.09846243  0.09929170  1
  N  N38  1  0.89189311  0.20282172  0.86849369  1
  N  N39  1  0.75116407  0.10996711  0.56912811  1
  N  N40  1  0.55305190  0.21311933  0.33522408  1
  N  N41  1  0.44216967  0.09232093  0.14299595  1
  N  N42  1  0.22166372  0.20372653  0.83931257  1
  N  N43  1  0.13622102  0.09154783  0.57631701  1
  N  N44  1  0.88828309  0.20643321  0.34144202  1
  N  N45  1  0.77826697  0.09288241  0.10238442  1
  N  N46  1  0.56794343  0.20168201  0.83302792  1
  N  N47  1  0.44832904  0.09190026  0.62362546  1
  N  N48  1  0.21918836  0.53456105  0.36874971  1
  N  N49  1  0.09624422  0.40848604  0.07215157  1
  N  N50  1  0.88242364  0.54432552  0.83853505  1
  N  N51  1  0.77041592  0.45190743  0.57299185  1
  N  N52  1  0.54801887  0.54331949  0.37117445  1
  N  N53  1  0.44580529  0.38556532  0.07137392  1
  N  N54  1  0.22120801  0.54077479  0.84132076  1
  N  N55  1  0.10798344  0.42806476  0.59964082  1
  N  N56  1  0.89606667  0.53549634  0.33672965  1
  N  N57  1  0.81027160  0.40796875  0.09770681  1
  N  N58  1  0.57158227  0.51376132  0.89462162  1
  N  N59  1  0.44477051  0.42739465  0.59141268  1
  N  N60  1  0.21789690  0.87523984  0.37924847  1
  N  N61  1  0.09908415  0.77887449  0.09612556  1
  N  N62  1  0.88814585  0.87385830  0.87011653  1
  N  N63  1  0.76865720  0.74620237  0.57368506  1
  N  N64  1  0.54941344  0.87907780  0.37911549  1
  N  N65  1  0.42954142  0.79094258  0.14783506  1
  N  N66  1  0.20763863  0.88288604  0.89985814  1
  N  N67  1  0.13314107  0.74980932  0.58605490  1
  N  N68  1  0.88837592  0.87143714  0.34357829  1
  N  N69  1  0.78851494  0.75074763  0.10524054  1
  N  N70  1  0.56724330  0.89036505  0.91202096  1
  N  N71  1  0.44655718  0.76353917  0.61079603  1
