# generated using pymatgen
data_Gd5Al31N36
_symmetry_space_group_name_H-M   'P 1'
_cell_length_a   9.71694576
_cell_length_b   9.75001059
_cell_length_c   10.43818373
_cell_angle_alpha   89.59982539
_cell_angle_beta   89.62946744
_cell_angle_gamma   59.82741225
_symmetry_Int_Tables_number   1
_chemical_formula_structural   Gd5Al31N36
_chemical_formula_sum   'Gd5 Al31 N36'
_cell_volume   854.90801037
_cell_formula_units_Z   1
loop_
 _symmetry_equiv_pos_site_id
 _symmetry_equiv_pos_as_xyz
  1  'x, y, z'
loop_
 _atom_site_type_symbol
 _atom_site_label
 _atom_site_symmetry_multiplicity
 _atom_site_fract_x
 _atom_site_fract_y
 _atom_site_fract_z
 _atom_site_occupancy
  Al  Al0  1  0.11193318  0.10253956  0.39174274  1
  Al  Al1  1  0.22059273  0.20306584  0.14925106  1
  Al  Al2  1  0.77783046  0.09503263  0.91771163  1
  Al  Al3  1  0.43651837  0.10825404  0.39308064  1
  Al  Al4  1  0.55572224  0.19410570  0.15199551  1
  Al  Al5  1  0.10884399  0.10488573  0.91325130  1
  Al  Al6  1  0.23045623  0.20143600  0.65087242  1
  Al  Al7  1  0.77089814  0.09786699  0.39205530  1
  Al  Al8  1  0.89771276  0.19781280  0.15468186  1
  Al  Al9  1  0.44887608  0.09918061  0.90491271  1
  Al  Al10  1  0.54818324  0.20827832  0.64732911  1
  Al  Al11  1  0.10873240  0.42654876  0.41358875  1
  Al  Al12  1  0.79198958  0.41839961  0.91402197  1
  Al  Al13  1  0.88069420  0.54280797  0.64937180  1
  Al  Al14  1  0.43794334  0.42142773  0.40688404  1
  Al  Al15  1  0.11050691  0.42371771  0.89153246  1
  Al  Al16  1  0.22622963  0.53950957  0.65141167  1
  Al  Al17  1  0.78514139  0.42856063  0.39213158  1
  Al  Al18  1  0.89671142  0.52794318  0.15179611  1
  Al  Al19  1  0.45060325  0.41248899  0.89563447  1
  Al  Al20  1  0.54945706  0.54896594  0.56548088  1
  Al  Al21  1  0.10861779  0.75799353  0.40291340  1
  Al  Al22  1  0.21904481  0.88186531  0.08902869  1
  Al  Al23  1  0.78734877  0.75760820  0.91858614  1
  Al  Al24  1  0.43202170  0.77643483  0.33143085  1
  Al  Al25  1  0.55595115  0.87748811  0.11321353  1
  Al  Al26  1  0.10641035  0.76478176  0.91204058  1
  Al  Al27  1  0.23211859  0.87087830  0.56558554  1
  Al  Al28  1  0.78312300  0.75426827  0.38810130  1
  Al  Al29  1  0.88807837  0.87582411  0.15555279  1
  Al  Al30  1  0.54963070  0.87380774  0.56223260  1
  Gd  Gd31  1  0.88713318  0.21014454  0.65117383  1
  Gd  Gd32  1  0.21190277  0.53021286  0.15341373  1
  Gd  Gd33  1  0.55569159  0.52755483  0.12592264  1
  Gd  Gd34  1  0.87898391  0.87001616  0.65657345  1
  Gd  Gd35  1  0.45280077  0.75798250  0.82719213  1
  N  N36  1  0.21891698  0.21537107  0.33618924  1
  N  N37  1  0.11090476  0.10045814  0.10115442  1
  N  N38  1  0.89269378  0.20168062  0.86806457  1
  N  N39  1  0.74915221  0.10846878  0.57023447  1
  N  N40  1  0.54965114  0.21126537  0.33543263  1
  N  N41  1  0.44013077  0.09793231  0.09561006  1
  N  N42  1  0.22798283  0.20077772  0.83828843  1
  N  N43  1  0.13693974  0.09175896  0.57669143  1
  N  N44  1  0.88836803  0.20655230  0.34284394  1
  N  N45  1  0.77561587  0.09514496  0.10402238  1
  N  N46  1  0.56302798  0.19804932  0.83382143  1
  N  N47  1  0.44148172  0.10201119  0.58189961  1
  N  N48  1  0.21876811  0.53575198  0.36898549  1
  N  N49  1  0.09758415  0.40779615  0.07221716  1
  N  N50  1  0.88551463  0.54182185  0.83864659  1
  N  N51  1  0.76992639  0.45168931  0.57391039  1
  N  N52  1  0.54839811  0.54241057  0.37088479  1
  N  N53  1  0.44596363  0.38711876  0.07372990  1
  N  N54  1  0.22164859  0.54148953  0.84256693  1
  N  N55  1  0.10830224  0.42774273  0.59990364  1
  N  N56  1  0.89757243  0.53427030  0.33614119  1
  N  N57  1  0.81053928  0.40802821  0.09781253  1
  N  N58  1  0.57404889  0.50963506  0.89232584  1
  N  N59  1  0.44434483  0.42683062  0.59222785  1
  N  N60  1  0.21631040  0.87587593  0.37903814  1
  N  N61  1  0.09885801  0.78128158  0.09785502  1
  N  N62  1  0.88908503  0.87334868  0.87309065  1
  N  N63  1  0.76977592  0.74364094  0.57117268  1
  N  N64  1  0.55164507  0.88044549  0.36861375  1
  N  N65  1  0.42735452  0.79164107  0.14924349  1
  N  N66  1  0.20607632  0.88511894  0.89977470  1
  N  N67  1  0.13116793  0.75122841  0.58796330  1
  N  N68  1  0.88859613  0.87196095  0.34330368  1
  N  N69  1  0.78666538  0.75201956  0.10685534  1
  N  N70  1  0.57391178  0.88268734  0.89101649  1
  N  N71  1  0.44572126  0.76330111  0.60732402  1
