# generated using pymatgen
data_Gd5Al31N36
_symmetry_space_group_name_H-M   'P 1'
_cell_length_a   9.71945104
_cell_length_b   9.75244904
_cell_length_c   10.42434434
_cell_angle_alpha   89.60750365
_cell_angle_beta   89.62543300
_cell_angle_gamma   59.79998440
_symmetry_Int_Tables_number   1
_chemical_formula_structural   Gd5Al31N36
_chemical_formula_sum   'Gd5 Al31 N36'
_cell_volume   853.97073572
_cell_formula_units_Z   1
loop_
 _symmetry_equiv_pos_site_id
 _symmetry_equiv_pos_as_xyz
  1  'x, y, z'
loop_
 _atom_site_type_symbol
 _atom_site_label
 _atom_site_symmetry_multiplicity
 _atom_site_fract_x
 _atom_site_fract_y
 _atom_site_fract_z
 _atom_site_occupancy
  Al  Al0  1  0.11190618  0.10265770  0.39153735  1
  Al  Al1  1  0.22136495  0.20265027  0.14822215  1
  Al  Al2  1  0.77793293  0.09543168  0.91765278  1
  Al  Al3  1  0.43649978  0.10870482  0.39356315  1
  Al  Al4  1  0.55598480  0.19383670  0.15117524  1
  Al  Al5  1  0.10905900  0.10506930  0.91312184  1
  Al  Al6  1  0.23010858  0.20167269  0.65118615  1
  Al  Al7  1  0.77108950  0.09754920  0.39190223  1
  Al  Al8  1  0.89782758  0.19798644  0.15463242  1
  Al  Al9  1  0.45187371  0.09473531  0.90317719  1
  Al  Al10  1  0.54844754  0.20827815  0.64781241  1
  Al  Al11  1  0.10887806  0.42640757  0.41339469  1
  Al  Al12  1  0.79235879  0.41855209  0.91375882  1
  Al  Al13  1  0.88047637  0.54276443  0.64955123  1
  Al  Al14  1  0.43794110  0.42108239  0.40681250  1
  Al  Al15  1  0.11049944  0.42391393  0.89130634  1
  Al  Al16  1  0.22595931  0.53978399  0.65160488  1
  Al  Al17  1  0.78534258  0.42846407  0.39189236  1
  Al  Al18  1  0.89633843  0.52843102  0.15102847  1
  Al  Al19  1  0.45056701  0.41244410  0.89552966  1
  Al  Al20  1  0.54974230  0.54830569  0.56558572  1
  Al  Al21  1  0.10779415  0.75817509  0.40319606  1
  Al  Al22  1  0.21920488  0.88200374  0.08904028  1
  Al  Al23  1  0.78214062  0.76111444  0.91765816  1
  Al  Al24  1  0.43033897  0.77353996  0.33355542  1
  Al  Al25  1  0.55634001  0.87963741  0.14628709  1
  Al  Al26  1  0.10651856  0.76492411  0.91227412  1
  Al  Al27  1  0.23097496  0.87136156  0.56601911  1
  Al  Al28  1  0.78434755  0.75371503  0.38828100  1
  Al  Al29  1  0.88802198  0.87613441  0.15434137  1
  Al  Al30  1  0.55072024  0.87486228  0.57210390  1
  Gd  Gd31  1  0.88708350  0.20988490  0.65112058  1
  Gd  Gd32  1  0.21185199  0.53034497  0.15350061  1
  Gd  Gd33  1  0.55560492  0.52784546  0.12466276  1
  Gd  Gd34  1  0.87735260  0.86986798  0.65847496  1
  Gd  Gd35  1  0.45236613  0.75779024  0.82697916  1
  N  N36  1  0.21958676  0.21491155  0.33573104  1
  N  N37  1  0.11106454  0.10057446  0.10138001  1
  N  N38  1  0.89295633  0.20181299  0.86798208  1
  N  N39  1  0.74928481  0.10770363  0.57037360  1
  N  N40  1  0.54966804  0.21094882  0.33517191  1
  N  N41  1  0.44350290  0.09303756  0.09441985  1
  N  N42  1  0.22821547  0.20092584  0.83842150  1
  N  N43  1  0.13696616  0.09203245  0.57672224  1
  N  N44  1  0.88840425  0.20652897  0.34306475  1
  N  N45  1  0.77577332  0.09568882  0.10416549  1
  N  N46  1  0.56310057  0.19894958  0.83399729  1
  N  N47  1  0.44133896  0.10214040  0.58043543  1
  N  N48  1  0.21871860  0.53582666  0.36928640  1
  N  N49  1  0.09773253  0.40787576  0.07220168  1
  N  N50  1  0.88570017  0.54193572  0.83866224  1
  N  N51  1  0.76999092  0.45162259  0.57390243  1
  N  N52  1  0.54854773  0.54165225  0.37114930  1
  N  N53  1  0.44566226  0.38685141  0.07392868  1
  N  N54  1  0.22170794  0.54167637  0.84262568  1
  N  N55  1  0.10823127  0.42779259  0.59978882  1
  N  N56  1  0.89777094  0.53424487  0.33565302  1
  N  N57  1  0.81067401  0.40807709  0.09798439  1
  N  N58  1  0.57457621  0.50906652  0.89258422  1
  N  N59  1  0.44425029  0.42672821  0.59226811  1
  N  N60  1  0.21518817  0.87614251  0.37961055  1
  N  N61  1  0.09922350  0.78116585  0.09829697  1
  N  N62  1  0.88953784  0.87351317  0.87486864  1
  N  N63  1  0.76954935  0.74339251  0.56909709  1
  N  N64  1  0.55335855  0.88072328  0.35746473  1
  N  N65  1  0.42655164  0.79105901  0.15054300  1
  N  N66  1  0.20567269  0.88566186  0.89999252  1
  N  N67  1  0.12993596  0.75183949  0.58854850  1
  N  N68  1  0.88848704  0.87188364  0.34265295  1
  N  N69  1  0.78246625  0.75440775  0.10633827  1
  N  N70  1  0.57741987  0.88457651  0.86407389  1
  N  N71  1  0.44540407  0.76340133  0.60522595  1
