# generated using pymatgen
data_Gd5Al31N36
_symmetry_space_group_name_H-M   'P 1'
_cell_length_a   9.69187290
_cell_length_b   9.69515428
_cell_length_c   10.37721110
_cell_angle_alpha   89.76580765
_cell_angle_beta   89.84829721
_cell_angle_gamma   60.02753040
_symmetry_Int_Tables_number   1
_chemical_formula_structural   Gd5Al31N36
_chemical_formula_sum   'Gd5 Al31 N36'
_cell_volume   844.67646991
_cell_formula_units_Z   1
loop_
 _symmetry_equiv_pos_site_id
 _symmetry_equiv_pos_as_xyz
  1  'x, y, z'
loop_
 _atom_site_type_symbol
 _atom_site_label
 _atom_site_symmetry_multiplicity
 _atom_site_fract_x
 _atom_site_fract_y
 _atom_site_fract_z
 _atom_site_occupancy
  Al  Al0  1  0.10979885  0.09699310  0.30067267  1
  Al  Al1  1  0.22419199  0.20061983  0.06240327  1
  Al  Al2  1  0.77200903  0.09647215  0.82063251  1
  Al  Al3  1  0.44270169  0.09859070  0.30952017  1
  Al  Al4  1  0.55540869  0.19968946  0.05998988  1
  Al  Al5  1  0.11612750  0.09120464  0.81960086  1
  Al  Al6  1  0.23218792  0.19795171  0.56299357  1
  Al  Al7  1  0.77344824  0.09669240  0.29540517  1
  Al  Al8  1  0.89526458  0.20134733  0.05754185  1
  Al  Al9  1  0.44850440  0.09767341  0.81329026  1
  Al  Al10  1  0.55119681  0.20440717  0.56032404  1
  Al  Al11  1  0.11181543  0.42295490  0.32165755  1
  Al  Al12  1  0.77620586  0.42141711  0.81100308  1
  Al  Al13  1  0.88126424  0.54251855  0.63118943  1
  Al  Al14  1  0.44482192  0.41995290  0.31878957  1
  Al  Al15  1  0.11908135  0.41916414  0.80394515  1
  Al  Al16  1  0.22769583  0.53602533  0.56128127  1
  Al  Al17  1  0.77937530  0.42198981  0.30656347  1
  Al  Al18  1  0.89352524  0.53464602  0.12955889  1
  Al  Al19  1  0.44893464  0.41916373  0.79465244  1
  Al  Al20  1  0.55487669  0.53852223  0.54450593  1
  Al  Al21  1  0.10554516  0.76948884  0.30712789  1
  Al  Al22  1  0.21376864  0.88595577  0.06709591  1
  Al  Al23  1  0.77597404  0.76414667  0.82383019  1
  Al  Al24  1  0.43867269  0.77251559  0.31948841  1
  Al  Al25  1  0.55210114  0.88430415  0.06765955  1
  Al  Al26  1  0.11487571  0.76064153  0.80883196  1
  Al  Al27  1  0.23017686  0.86902506  0.54993523  1
  Al  Al28  1  0.77266930  0.76915897  0.30309101  1
  Al  Al29  1  0.88750001  0.87700444  0.05932036  1
  Al  Al30  1  0.55232733  0.87570623  0.54888383  1
  Gd  Gd31  1  0.89883053  0.20189854  0.56375856  1
  Gd  Gd32  1  0.21784719  0.53720101  0.05898753  1
  Gd  Gd33  1  0.55387468  0.54318613  0.07013273  1
  Gd  Gd34  1  0.88710794  0.86525474  0.56416240  1
  Gd  Gd35  1  0.44384524  0.76931115  0.79228991  1
  N  N36  1  0.22231520  0.20107759  0.37539809  1
  N  N37  1  0.10994980  0.09930137  0.11648908  1
  N  N38  1  0.89234615  0.20293781  0.86597726  1
  N  N39  1  0.75067187  0.10765154  0.64001410  1
  N  N40  1  0.55895471  0.19956363  0.37390528  1
  N  N41  1  0.44265560  0.09884919  0.12390524  1
  N  N42  1  0.22687232  0.20421719  0.87351457  1
  N  N43  1  0.15296193  0.06916878  0.63666238  1
  N  N44  1  0.88759144  0.20168634  0.34695664  1
  N  N45  1  0.77527822  0.09608415  0.10767608  1
  N  N46  1  0.55035133  0.20991747  0.87314095  1
  N  N47  1  0.44684329  0.09214930  0.62208838  1
  N  N48  1  0.21749728  0.54340289  0.37009167  1
  N  N49  1  0.11095086  0.40439025  0.13554155  1
  N  N50  1  0.89347885  0.53335225  0.82938664  1
  N  N51  1  0.75732044  0.44860816  0.62311919  1
  N  N52  1  0.55607578  0.53681290  0.35615239  1
  N  N53  1  0.45600439  0.39666770  0.14047594  1
  N  N54  1  0.22669981  0.53316470  0.84112379  1
  N  N55  1  0.11248234  0.42327748  0.61362187  1
  N  N56  1  0.88325874  0.54438850  0.33062876  1
  N  N57  1  0.80226827  0.40903036  0.12161256  1
  N  N58  1  0.56137087  0.51641626  0.85511464  1
  N  N59  1  0.44747561  0.42409381  0.60632869  1
  N  N60  1  0.21140076  0.88138680  0.36684603  1
  N  N61  1  0.09770582  0.78908799  0.12675903  1
  N  N62  1  0.89409005  0.86782753  0.86756129  1
  N  N63  1  0.74726604  0.76113057  0.63719582  1
  N  N64  1  0.55764477  0.87975432  0.36509968  1
  N  N65  1  0.42573228  0.79895843  0.13315145  1
  N  N66  1  0.20145539  0.87977012  0.88466637  1
  N  N67  1  0.14382826  0.74996530  0.62562696  1
  N  N68  1  0.88274732  0.87790388  0.34763644  1
  N  N69  1  0.77786454  0.76307765  0.11502787  1
  N  N70  1  0.56583755  0.88899036  0.88569245  1
  N  N71  1  0.44810077  0.75839843  0.57380918  1
