# generated using pymatgen
data_Gd5Al31N36
_symmetry_space_group_name_H-M   'P 1'
_cell_length_a   9.72738486
_cell_length_b   9.73767736
_cell_length_c   10.29873187
_cell_angle_alpha   89.66477463
_cell_angle_beta   90.05714826
_cell_angle_gamma   59.79261186
_symmetry_Int_Tables_number   1
_chemical_formula_structural   Gd5Al31N36
_chemical_formula_sum   'Gd5 Al31 N36'
_cell_volume   843.02903960
_cell_formula_units_Z   1
loop_
 _symmetry_equiv_pos_site_id
 _symmetry_equiv_pos_as_xyz
  1  'x, y, z'
loop_
 _atom_site_type_symbol
 _atom_site_label
 _atom_site_symmetry_multiplicity
 _atom_site_fract_x
 _atom_site_fract_y
 _atom_site_fract_z
 _atom_site_occupancy
  Al  Al0  1  0.11797824  0.09668282  0.38826560  1
  Al  Al1  1  0.22253200  0.20223796  0.14626487  1
  Al  Al2  1  0.77552630  0.09590929  0.91522727  1
  Al  Al3  1  0.44315162  0.09846832  0.39566236  1
  Al  Al4  1  0.55697613  0.19757760  0.14655306  1
  Al  Al5  1  0.10224841  0.10710051  0.90983165  1
  Al  Al6  1  0.22962327  0.20269021  0.64758577  1
  Al  Al7  1  0.77135784  0.09790492  0.38717631  1
  Al  Al8  1  0.89168154  0.20455708  0.14966827  1
  Al  Al9  1  0.44926569  0.09752592  0.89575665  1
  Al  Al10  1  0.54962735  0.20494741  0.64699085  1
  Al  Al11  1  0.11093943  0.42576666  0.40703561  1
  Al  Al12  1  0.78168515  0.42414379  0.90182838  1
  Al  Al13  1  0.88279213  0.54166747  0.64750196  1
  Al  Al14  1  0.44407912  0.42382896  0.41356283  1
  Al  Al15  1  0.10628936  0.42510298  0.89053627  1
  Al  Al16  1  0.22492089  0.53713120  0.65033543  1
  Al  Al17  1  0.78214314  0.42869490  0.40143471  1
  Al  Al18  1  0.89135408  0.53207838  0.14704736  1
  Al  Al19  1  0.45213766  0.41385700  0.88477810  1
  Al  Al20  1  0.56019354  0.53165431  0.63978858  1
  Al  Al21  1  0.11528149  0.75578300  0.39878693  1
  Al  Al22  1  0.21478258  0.88408784  0.10255588  1
  Al  Al23  1  0.77730787  0.76377480  0.90740255  1
  Al  Al24  1  0.45349785  0.76010273  0.40443338  1
  Al  Al25  1  0.55090148  0.87972825  0.15057242  1
  Al  Al26  1  0.09938193  0.76819568  0.90686853  1
  Al  Al27  1  0.23061963  0.87062381  0.58300426  1
  Al  Al28  1  0.77776461  0.75635586  0.39041363  1
  Al  Al29  1  0.88500966  0.87478051  0.15162884  1
  Al  Al30  1  0.55842125  0.87813326  0.63902547  1
  Gd  Gd31  1  0.89422581  0.20060260  0.65027841  1
  Gd  Gd32  1  0.22169591  0.52701693  0.14528143  1
  Gd  Gd33  1  0.55295279  0.53945328  0.15149290  1
  Gd  Gd34  1  0.88315925  0.86834569  0.65078279  1
  Gd  Gd35  1  0.44020586  0.76777438  0.86504178  1
  N  N36  1  0.22421756  0.21094806  0.33433854  1
  N  N37  1  0.10813656  0.10208926  0.09922514  1
  N  N38  1  0.88577324  0.20607297  0.86849523  1
  N  N39  1  0.74796469  0.10855846  0.56762755  1
  N  N40  1  0.54835151  0.21183034  0.33357602  1
  N  N41  1  0.44446607  0.09454049  0.08667598  1
  N  N42  1  0.22395829  0.20215161  0.83684742  1
  N  N43  1  0.14038088  0.08948791  0.57400064  1
  N  N44  1  0.89001155  0.20695236  0.34128181  1
  N  N45  1  0.77645196  0.09442600  0.10294151  1
  N  N46  1  0.56196857  0.19793811  0.83385407  1
  N  N47  1  0.44313694  0.09815503  0.58337274  1
  N  N48  1  0.22433846  0.53339764  0.36398831  1
  N  N49  1  0.09619994  0.40956156  0.07386772  1
  N  N50  1  0.88283552  0.54437856  0.83676513  1
  N  N51  1  0.77241669  0.44617518  0.58315417  1
  N  N52  1  0.55493040  0.53739291  0.37072215  1
  N  N53  1  0.46200986  0.39515505  0.06552880  1
  N  N54  1  0.21784311  0.54197218  0.84344527  1
  N  N55  1  0.10838714  0.42801532  0.59621025  1
  N  N56  1  0.89384599  0.53480316  0.33545833  1
  N  N57  1  0.79797928  0.41766068  0.08667006  1
  N  N58  1  0.57442116  0.50505338  0.82814018  1
  N  N59  1  0.44321865  0.42383801  0.59867955  1
  N  N60  1  0.22855296  0.86868068  0.37366879  1
  N  N61  1  0.09781414  0.78205809  0.09469177  1
  N  N62  1  0.88288910  0.87559763  0.87005481  1
  N  N63  1  0.76449243  0.74604668  0.57236406  1
  N  N64  1  0.55446498  0.87529923  0.33914879  1
  N  N65  1  0.43223672  0.79104294  0.08948930  1
  N  N66  1  0.18318741  0.89596277  0.87048766  1
  N  N67  1  0.13469542  0.74748027  0.58541811  1
  N  N68  1  0.89031574  0.86911518  0.34233300  1
  N  N69  1  0.77532909  0.75823149  0.09669470  1
  N  N70  1  0.57699632  0.89142234  0.82366001  1
  N  N71  1  0.45179792  0.76023557  0.60242297  1
