# generated using pymatgen
data_Gd5Al31N36
_symmetry_space_group_name_H-M   'P 1'
_cell_length_a   9.71205130
_cell_length_b   9.71686913
_cell_length_c   10.59179262
_cell_angle_alpha   89.53166435
_cell_angle_beta   89.70959531
_cell_angle_gamma   59.66396445
_symmetry_Int_Tables_number   1
_chemical_formula_structural   Gd5Al31N36
_chemical_formula_sum   'Gd5 Al31 N36'
_cell_volume   862.66484840
_cell_formula_units_Z   1
loop_
 _symmetry_equiv_pos_site_id
 _symmetry_equiv_pos_as_xyz
  1  'x, y, z'
loop_
 _atom_site_type_symbol
 _atom_site_label
 _atom_site_symmetry_multiplicity
 _atom_site_fract_x
 _atom_site_fract_y
 _atom_site_fract_z
 _atom_site_occupancy
  Al  Al0  1  0.11062817  0.10542855  0.39403312  1
  Al  Al1  1  0.21355663  0.20493283  0.15022146  1
  Al  Al2  1  0.78145600  0.09255973  0.91789353  1
  Al  Al3  1  0.44086205  0.09709849  0.32830171  1
  Al  Al4  1  0.56171514  0.19472138  0.15017234  1
  Al  Al5  1  0.10920956  0.10112024  0.91715755  1
  Al  Al6  1  0.22456906  0.20334811  0.65114242  1
  Al  Al7  1  0.76793477  0.10293555  0.39271113  1
  Al  Al8  1  0.89800611  0.19667865  0.15523357  1
  Al  Al9  1  0.45666199  0.08896051  0.83040987  1
  Al  Al10  1  0.55354791  0.21320015  0.64609685  1
  Al  Al11  1  0.10720685  0.42999767  0.41325067  1
  Al  Al12  1  0.79200130  0.41754423  0.91618991  1
  Al  Al13  1  0.88018433  0.54323826  0.64962768  1
  Al  Al14  1  0.43565082  0.42398906  0.40668317  1
  Al  Al15  1  0.11009115  0.41962533  0.89303285  1
  Al  Al16  1  0.22601250  0.53982449  0.64915885  1
  Al  Al17  1  0.78498963  0.42917036  0.39314025  1
  Al  Al18  1  0.89352684  0.53091718  0.15308400  1
  Al  Al19  1  0.45515395  0.40906692  0.89659165  1
  Al  Al20  1  0.54908045  0.55128964  0.56379472  1
  Al  Al21  1  0.10687815  0.76519193  0.37313311  1
  Al  Al22  1  0.21942782  0.87852617  0.09512283  1
  Al  Al23  1  0.79118447  0.75496811  0.91900847  1
  Al  Al24  1  0.43494870  0.77969230  0.32955369  1
  Al  Al25  1  0.55015517  0.88408745  0.08742416  1
  Al  Al26  1  0.11156646  0.75640189  0.89862323  1
  Al  Al27  1  0.23269000  0.86675268  0.56226147  1
  Al  Al28  1  0.77799202  0.75748308  0.39519413  1
  Al  Al29  1  0.88293007  0.87553190  0.15905109  1
  Al  Al30  1  0.54309585  0.88092136  0.56620602  1
  Gd  Gd31  1  0.88964290  0.20983908  0.65436797  1
  Gd  Gd32  1  0.21634035  0.52221087  0.15189843  1
  Gd  Gd33  1  0.55540300  0.52784041  0.12934414  1
  Gd  Gd34  1  0.87936177  0.87249728  0.65241122  1
  Gd  Gd35  1  0.45115526  0.75843114  0.82807542  1
  N  N36  1  0.21136132  0.22090346  0.33694697  1
  N  N37  1  0.11052612  0.09895501  0.10039888  1
  N  N38  1  0.89435749  0.19991195  0.86931799  1
  N  N39  1  0.75023649  0.11385251  0.56749422  1
  N  N40  1  0.55046290  0.21675777  0.33440900  1
  N  N41  1  0.44294506  0.09184402  0.14653835  1
  N  N42  1  0.22080289  0.19979593  0.83749904  1
  N  N43  1  0.13770692  0.09096687  0.57476906  1
  N  N44  1  0.88815247  0.20734849  0.34050069  1
  N  N45  1  0.77834444  0.09245151  0.10098681  1
  N  N46  1  0.57369726  0.19909371  0.83035694  1
  N  N47  1  0.45223979  0.08645618  0.64269178  1
  N  N48  1  0.21701014  0.53854220  0.36574677  1
  N  N49  1  0.09432390  0.40770587  0.07104243  1
  N  N50  1  0.88436833  0.54136952  0.83788165  1
  N  N51  1  0.77115504  0.45036464  0.57303897  1
  N  N52  1  0.54793431  0.54552475  0.37162834  1
  N  N53  1  0.45012500  0.38431267  0.06996188  1
  N  N54  1  0.22527603  0.53403211  0.84206813  1
  N  N55  1  0.10882720  0.42786340  0.59797691  1
  N  N56  1  0.89339880  0.53892943  0.33649940  1
  N  N57  1  0.80957000  0.40834695  0.09766253  1
  N  N58  1  0.57314966  0.51275785  0.89400559  1
  N  N59  1  0.44289678  0.42825833  0.58892574  1
  N  N60  1  0.21888179  0.87756341  0.37894766  1
  N  N61  1  0.10167142  0.78152277  0.13029329  1
  N  N62  1  0.89292965  0.86915013  0.87075116  1
  N  N63  1  0.76730295  0.74535665  0.57555397  1
  N  N64  1  0.54523475  0.88456487  0.38572108  1
  N  N65  1  0.43111323  0.79344864  0.14928818  1
  N  N66  1  0.20743635  0.87682262  0.91027762  1
  N  N67  1  0.13159142  0.75266982  0.59497935  1
  N  N68  1  0.87818463  0.87804062  0.34467968  1
  N  N69  1  0.78679914  0.75189183  0.10274114  1
  N  N70  1  0.56755643  0.88983634  0.90758096  1
  N  N71  1  0.44469469  0.76310504  0.61257187  1
