# generated using pymatgen
data_Gd5Al31N36
_symmetry_space_group_name_H-M   'P 1'
_cell_length_a   9.68817929
_cell_length_b   9.71003769
_cell_length_c   10.54541838
_cell_angle_alpha   89.48477842
_cell_angle_beta   89.09823809
_cell_angle_gamma   60.00439245
_symmetry_Int_Tables_number   1
_chemical_formula_structural   Gd5Al31N36
_chemical_formula_sum   'Gd5 Al31 N36'
_cell_volume   859.05821014
_cell_formula_units_Z   1
loop_
 _symmetry_equiv_pos_site_id
 _symmetry_equiv_pos_as_xyz
  1  'x, y, z'
loop_
 _atom_site_type_symbol
 _atom_site_label
 _atom_site_symmetry_multiplicity
 _atom_site_fract_x
 _atom_site_fract_y
 _atom_site_fract_z
 _atom_site_occupancy
  Al  Al0  1  0.11228114  0.09833617  0.31709848  1
  Al  Al1  1  0.22488070  0.19699525  0.06179388  1
  Al  Al2  1  0.79544652  0.08190663  0.90158750  1
  Al  Al3  1  0.43430248  0.10187764  0.31010807  1
  Al  Al4  1  0.54983744  0.20158360  0.06648630  1
  Al  Al5  1  0.12716653  0.08015133  0.82397663  1
  Al  Al6  1  0.23157138  0.19515135  0.57095807  1
  Al  Al7  1  0.76481065  0.10161978  0.37790689  1
  Al  Al8  1  0.88990485  0.20250470  0.13818787  1
  Al  Al9  1  0.45693722  0.09082094  0.81704268  1
  Al  Al10  1  0.53594512  0.21267607  0.55643298  1
  Al  Al11  1  0.10211821  0.43336989  0.39331323  1
  Al  Al12  1  0.79974032  0.40866048  0.89588971  1
  Al  Al13  1  0.87876698  0.54196595  0.63137102  1
  Al  Al14  1  0.43367431  0.42492026  0.32062954  1
  Al  Al15  1  0.11112447  0.41918466  0.87170555  1
  Al  Al16  1  0.22796862  0.54019586  0.57449359  1
  Al  Al17  1  0.77923223  0.43156560  0.37412071  1
  Al  Al18  1  0.89998682  0.53048966  0.13689909  1
  Al  Al19  1  0.45922892  0.41132077  0.80700446  1
  Al  Al20  1  0.54371530  0.54661971  0.54367637  1
  Al  Al21  1  0.10624957  0.77296678  0.32615030  1
  Al  Al22  1  0.20919283  0.89236691  0.07611368  1
  Al  Al23  1  0.79578555  0.75336238  0.90188292  1
  Al  Al24  1  0.42978296  0.77995031  0.31754209  1
  Al  Al25  1  0.55039820  0.88489805  0.07311722  1
  Al  Al26  1  0.12501124  0.75322851  0.81486667  1
  Al  Al27  1  0.22906259  0.87115762  0.56167712  1
  Al  Al28  1  0.77396160  0.75635641  0.37672546  1
  Al  Al29  1  0.87668196  0.88277987  0.14832450  1
  Al  Al30  1  0.54281291  0.87731979  0.54828725  1
  Gd  Gd31  1  0.88042379  0.21648175  0.63000977  1
  Gd  Gd32  1  0.21658287  0.55581908  0.06652445  1
  Gd  Gd33  1  0.55723957  0.53970217  0.09563261  1
  Gd  Gd34  1  0.87461899  0.87119820  0.62921774  1
  Gd  Gd35  1  0.45855855  0.75320678  0.80925834  1
  N  N36  1  0.21908120  0.20364260  0.38241736  1
  N  N37  1  0.11494116  0.10117921  0.13444170  1
  N  N38  1  0.90073969  0.19363382  0.84657226  1
  N  N39  1  0.75385478  0.10829386  0.55543843  1
  N  N40  1  0.53307802  0.21227178  0.37515526  1
  N  N41  1  0.44006506  0.09880608  0.12749463  1
  N  N42  1  0.23650933  0.18801957  0.87512582  1
  N  N43  1  0.15017626  0.07087492  0.63971799  1
  N  N44  1  0.87758693  0.21124075  0.32562859  1
  N  N45  1  0.77856202  0.09376339  0.08433369  1
  N  N46  1  0.56023208  0.20047705  0.87754350  1
  N  N47  1  0.45047571  0.08903450  0.62865182  1
  N  N48  1  0.21504824  0.55116742  0.38141100  1
  N  N49  1  0.09857224  0.41857739  0.05939863  1
  N  N50  1  0.88717356  0.53664229  0.81981282  1
  N  N51  1  0.76535170  0.45535863  0.55290881  1
  N  N52  1  0.54324447  0.54637005  0.35422461  1
  N  N53  1  0.44964212  0.39557743  0.14594270  1
  N  N54  1  0.23165699  0.52820550  0.84866958  1
  N  N55  1  0.10401155  0.42947800  0.58044053  1
  N  N56  1  0.89334948  0.53698591  0.31834038  1
  N  N57  1  0.81504054  0.40827657  0.07680518  1
  N  N58  1  0.57539561  0.50275966  0.87479384  1
  N  N59  1  0.45033434  0.42450330  0.61850194  1
  N  N60  1  0.21071984  0.88471485  0.38165856  1
  N  N61  1  0.09797147  0.79920612  0.14905695  1
  N  N62  1  0.89938320  0.86394290  0.84733572  1
  N  N63  1  0.76395633  0.74274057  0.55762351  1
  N  N64  1  0.54319484  0.88449382  0.36612957  1
  N  N65  1  0.42319755  0.80117832  0.13523967  1
  N  N66  1  0.20726523  0.87253471  0.89476635  1
  N  N67  1  0.14384760  0.75043726  0.63214801  1
  N  N68  1  0.87204133  0.87942563  0.33501881  1
  N  N69  1  0.78828726  0.75349978  0.08719523  1
  N  N70  1  0.57221604  0.88396689  0.89005640  1
  N  N71  1  0.44698789  0.75814676  0.59435138  1
