# generated using pymatgen
data_Gd5Al31N36
_symmetry_space_group_name_H-M   'P 1'
_cell_length_a   9.63575034
_cell_length_b   9.69230748
_cell_length_c   10.72783103
_cell_angle_alpha   89.49572009
_cell_angle_beta   88.93678943
_cell_angle_gamma   59.63021233
_symmetry_Int_Tables_number   1
_chemical_formula_structural   Gd5Al31N36
_chemical_formula_sum   'Gd5 Al31 N36'
_cell_volume   864.27118358
_cell_formula_units_Z   1
loop_
 _symmetry_equiv_pos_site_id
 _symmetry_equiv_pos_as_xyz
  1  'x, y, z'
loop_
 _atom_site_type_symbol
 _atom_site_label
 _atom_site_symmetry_multiplicity
 _atom_site_fract_x
 _atom_site_fract_y
 _atom_site_fract_z
 _atom_site_occupancy
  Al  Al0  1  0.10745835  0.10312879  0.40089970  1
  Al  Al1  1  0.21655978  0.21039838  0.15455425  1
  Al  Al2  1  0.78215823  0.08916273  0.92414669  1
  Al  Al3  1  0.43797097  0.09143468  0.33500018  1
  Al  Al4  1  0.56331795  0.19694669  0.16320651  1
  Al  Al5  1  0.11597746  0.09337300  0.91745013  1
  Al  Al6  1  0.22279741  0.20224527  0.65155321  1
  Al  Al7  1  0.77630587  0.09593819  0.39515000  1
  Al  Al8  1  0.90078129  0.19903539  0.15625401  1
  Al  Al9  1  0.46444288  0.08896233  0.82624957  1
  Al  Al10  1  0.54083801  0.21197466  0.58038957  1
  Al  Al11  1  0.10451735  0.42831928  0.40894758  1
  Al  Al12  1  0.79881326  0.41017835  0.91627483  1
  Al  Al13  1  0.88008701  0.53989767  0.64717147  1
  Al  Al14  1  0.42958841  0.43477742  0.34496227  1
  Al  Al15  1  0.11329225  0.41300156  0.88836504  1
  Al  Al16  1  0.21915819  0.54611003  0.58970830  1
  Al  Al17  1  0.78229063  0.42832216  0.39338926  1
  Al  Al18  1  0.89966774  0.53108168  0.15559190  1
  Al  Al19  1  0.46152297  0.40977310  0.81465696  1
  Al  Al20  1  0.54380765  0.54766738  0.56083939  1
  Al  Al21  1  0.10625249  0.76850870  0.33988597  1
  Al  Al22  1  0.21765314  0.88141334  0.09664066  1
  Al  Al23  1  0.79738680  0.75208686  0.92286735  1
  Al  Al24  1  0.43205052  0.77550716  0.33305021  1
  Al  Al25  1  0.55073845  0.88767548  0.08939047  1
  Al  Al26  1  0.12430223  0.75393294  0.83151309  1
  Al  Al27  1  0.22398699  0.86749641  0.57194019  1
  Al  Al28  1  0.77703942  0.75510041  0.39705199  1
  Al  Al29  1  0.87939816  0.87905801  0.16359048  1
  Al  Al30  1  0.53942857  0.87483884  0.56425094  1
  Gd  Gd31  1  0.88034912  0.21404590  0.66215415  1
  Gd  Gd32  1  0.21845442  0.55370242  0.07318564  1
  Gd  Gd33  1  0.55448650  0.54089361  0.10721515  1
  Gd  Gd34  1  0.85286607  0.88469144  0.66351023  1
  Gd  Gd35  1  0.45978899  0.75472652  0.82601083  1
  N  N36  1  0.20826218  0.21743222  0.33851445  1
  N  N37  1  0.11575748  0.10177952  0.09730028  1
  N  N38  1  0.90006106  0.19275374  0.87447496  1
  N  N39  1  0.75979733  0.11009525  0.56591313  1
  N  N40  1  0.54378401  0.20715956  0.37562734  1
  N  N41  1  0.44917375  0.09343019  0.15431290  1
  N  N42  1  0.22482549  0.19408820  0.83465663  1
  N  N43  1  0.13090028  0.09269233  0.57972762  1
  N  N44  1  0.88823256  0.20615226  0.33851482  1
  N  N45  1  0.77676407  0.09693194  0.10736537  1
  N  N46  1  0.58090676  0.19058702  0.84494704  1
  N  N47  1  0.45473379  0.08296423  0.63789165  1
  N  N48  1  0.21158534  0.55200420  0.40355944  1
  N  N49  1  0.10342100  0.41078493  0.07454654  1
  N  N50  1  0.88605906  0.53713491  0.83705009  1
  N  N51  1  0.76843179  0.44921209  0.57187164  1
  N  N52  1  0.54634918  0.54560825  0.37600779  1
  N  N53  1  0.43993977  0.40980248  0.17251512  1
  N  N54  1  0.23249147  0.52416774  0.85994955  1
  N  N55  1  0.10665622  0.42332526  0.59317022  1
  N  N56  1  0.89234136  0.53775055  0.33576863  1
  N  N57  1  0.81353616  0.41003323  0.09670280  1
  N  N58  1  0.57341375  0.50261739  0.89123779  1
  N  N59  1  0.44465599  0.43054173  0.62755491  1
  N  N60  1  0.21498609  0.87288330  0.39361478  1
  N  N61  1  0.10228401  0.79264689  0.16565646  1
  N  N62  1  0.90149655  0.86348917  0.87597923  1
  N  N63  1  0.76589152  0.74232858  0.57521329  1
  N  N64  1  0.54294663  0.87885535  0.38797759  1
  N  N65  1  0.42810345  0.80046857  0.15591923  1
  N  N66  1  0.21404877  0.86299462  0.91470873  1
  N  N67  1  0.12797634  0.76007100  0.65064084  1
  N  N68  1  0.87197724  0.87735717  0.34636019  1
  N  N69  1  0.78961945  0.75174652  0.10346111  1
  N  N70  1  0.56984094  0.88855005  0.90974572  1
  N  N71  1  0.44030463  0.76053235  0.61543741  1
