# generated using pymatgen
data_Gd5Al31N36
_symmetry_space_group_name_H-M   'P 1'
_cell_length_a   9.74156287
_cell_length_b   9.71101700
_cell_length_c   10.36490902
_cell_angle_alpha   89.93479649
_cell_angle_beta   89.59910193
_cell_angle_gamma   60.21518249
_symmetry_Int_Tables_number   1
_chemical_formula_structural   Gd5Al31N36
_chemical_formula_sum   'Gd5 Al31 N36'
_cell_volume   850.97124196
_cell_formula_units_Z   1
loop_
 _symmetry_equiv_pos_site_id
 _symmetry_equiv_pos_as_xyz
  1  'x, y, z'
loop_
 _atom_site_type_symbol
 _atom_site_label
 _atom_site_symmetry_multiplicity
 _atom_site_fract_x
 _atom_site_fract_y
 _atom_site_fract_z
 _atom_site_occupancy
  Al  Al0  1  0.11720900  0.09530227  0.30919381  1
  Al  Al1  1  0.22308091  0.20198387  0.06069429  1
  Al  Al2  1  0.77108164  0.09789521  0.81765286  1
  Al  Al3  1  0.43923185  0.10077057  0.30622991  1
  Al  Al4  1  0.55550086  0.19902241  0.05935331  1
  Al  Al5  1  0.11964457  0.08864698  0.81395622  1
  Al  Al6  1  0.23003342  0.20006287  0.56193740  1
  Al  Al7  1  0.76547184  0.09560953  0.30317432  1
  Al  Al8  1  0.89627726  0.20380372  0.12516848  1
  Al  Al9  1  0.44885977  0.09674286  0.81044333  1
  Al  Al10  1  0.54501145  0.20578712  0.55954711  1
  Al  Al11  1  0.11219615  0.42400969  0.31778421  1
  Al  Al12  1  0.79888364  0.40804557  0.87879542  1
  Al  Al13  1  0.87254963  0.54345048  0.62800255  1
  Al  Al14  1  0.43846230  0.42150800  0.31790371  1
  Al  Al15  1  0.11869430  0.41991993  0.79931456  1
  Al  Al16  1  0.22604474  0.53574024  0.56388288  1
  Al  Al17  1  0.77548370  0.43762081  0.36909222  1
  Al  Al18  1  0.89388364  0.53416259  0.12944597  1
  Al  Al19  1  0.45485876  0.41726335  0.79801582  1
  Al  Al20  1  0.54321613  0.54463827  0.54038002  1
  Al  Al21  1  0.10237051  0.77169469  0.30998034  1
  Al  Al22  1  0.21316890  0.88809569  0.06579454  1
  Al  Al23  1  0.78704127  0.75365665  0.88287158  1
  Al  Al24  1  0.43123717  0.77736486  0.31269857  1
  Al  Al25  1  0.55014436  0.88535824  0.06560240  1
  Al  Al26  1  0.11861901  0.76000030  0.80957810  1
  Al  Al27  1  0.23219921  0.86756485  0.55377977  1
  Al  Al28  1  0.77014651  0.76285548  0.35509615  1
  Al  Al29  1  0.89182263  0.88175897  0.06197516  1
  Al  Al30  1  0.54350600  0.87930536  0.54625221  1
  Gd  Gd31  1  0.89387991  0.20049927  0.58748809  1
  Gd  Gd32  1  0.21788208  0.53990287  0.05881793  1
  Gd  Gd33  1  0.56141964  0.53629384  0.08742452  1
  Gd  Gd34  1  0.89123873  0.86506764  0.57566600  1
  Gd  Gd35  1  0.45138200  0.75797921  0.80071220  1
  N  N36  1  0.22161514  0.20545187  0.37485203  1
  N  N37  1  0.11727951  0.09644572  0.12501873  1
  N  N38  1  0.89733064  0.19850244  0.82355871  1
  N  N39  1  0.73795701  0.10704416  0.63769090  1
  N  N40  1  0.55265368  0.20270708  0.37378012  1
  N  N41  1  0.44243141  0.09844654  0.12130651  1
  N  N42  1  0.22531422  0.20543478  0.87172753  1
  N  N43  1  0.15615179  0.06845878  0.62988463  1
  N  N44  1  0.88318802  0.21157494  0.32703703  1
  N  N45  1  0.77265833  0.09747396  0.11500670  1
  N  N46  1  0.55167463  0.20774876  0.87351809  1
  N  N47  1  0.44293212  0.09346659  0.62041245  1
  N  N48  1  0.21358275  0.54554383  0.37072909  1
  N  N49  1  0.11276450  0.40532256  0.13388124  1
  N  N50  1  0.88594819  0.53871293  0.81677793  1
  N  N51  1  0.76284969  0.45296139  0.55175379  1
  N  N52  1  0.54426263  0.54509059  0.34786008  1
  N  N53  1  0.45266704  0.39458695  0.14016210  1
  N  N54  1  0.22815122  0.53192213  0.84116336  1
  N  N55  1  0.11015199  0.42357310  0.61226490  1
  N  N56  1  0.87971118  0.54604087  0.31435396  1
  N  N57  1  0.82017733  0.40631031  0.06256295  1
  N  N58  1  0.57289477  0.50684788  0.86421205  1
  N  N59  1  0.44616767  0.42542583  0.60716734  1
  N  N60  1  0.21074551  0.88116973  0.36997342  1
  N  N61  1  0.09763363  0.79256216  0.12951951  1
  N  N62  1  0.89780064  0.87010128  0.86622792  1
  N  N63  1  0.75694092  0.74803278  0.57120154  1
  N  N64  1  0.54509365  0.88448208  0.35956179  1
  N  N65  1  0.42537315  0.79804802  0.12671401  1
  N  N66  1  0.20359497  0.88049990  0.88404588  1
  N  N67  1  0.14945516  0.74618534  0.62776582  1
  N  N68  1  0.88031560  0.87854966  0.35282500  1
  N  N69  1  0.78687807  0.75333976  0.07639895  1
  N  N70  1  0.56560312  0.88969261  0.88041269  1
  N  N71  1  0.44718689  0.75798927  0.58236573  1
