# generated using pymatgen
data_Gd5Al31N36
_symmetry_space_group_name_H-M   'P 1'
_cell_length_a   9.73732643
_cell_length_b   9.71049871
_cell_length_c   10.35828144
_cell_angle_alpha   89.97306214
_cell_angle_beta   89.61214849
_cell_angle_gamma   60.23061602
_symmetry_Int_Tables_number   1
_chemical_formula_structural   Gd5Al31N36
_chemical_formula_sum   'Gd5 Al31 N36'
_cell_volume   850.14262384
_cell_formula_units_Z   1
loop_
 _symmetry_equiv_pos_site_id
 _symmetry_equiv_pos_as_xyz
  1  'x, y, z'
loop_
 _atom_site_type_symbol
 _atom_site_label
 _atom_site_symmetry_multiplicity
 _atom_site_fract_x
 _atom_site_fract_y
 _atom_site_fract_z
 _atom_site_occupancy
  Al  Al0  1  0.11716950  0.09534616  0.30912604  1
  Al  Al1  1  0.22343520  0.20160170  0.06065110  1
  Al  Al2  1  0.77143688  0.09704152  0.81715222  1
  Al  Al3  1  0.43911364  0.10106932  0.30684145  1
  Al  Al4  1  0.55548216  0.19905775  0.05926113  1
  Al  Al5  1  0.11995211  0.08821966  0.81388027  1
  Al  Al6  1  0.23016972  0.19988335  0.56221768  1
  Al  Al7  1  0.76512952  0.09696954  0.30301667  1
  Al  Al8  1  0.89625817  0.20341804  0.12523785  1
  Al  Al9  1  0.44929064  0.09636746  0.81022161  1
  Al  Al10  1  0.54532097  0.20539464  0.55989837  1
  Al  Al11  1  0.11220842  0.42421172  0.31810287  1
  Al  Al12  1  0.79925953  0.40706952  0.87941199  1
  Al  Al13  1  0.87214662  0.54307454  0.63105183  1
  Al  Al14  1  0.43849138  0.42158447  0.31793813  1
  Al  Al15  1  0.11954747  0.41904970  0.80003170  1
  Al  Al16  1  0.22572264  0.53591551  0.56436067  1
  Al  Al17  1  0.77557595  0.43852304  0.36939399  1
  Al  Al18  1  0.89531033  0.53110534  0.12826339  1
  Al  Al19  1  0.45505563  0.41732761  0.79797811  1
  Al  Al20  1  0.54325414  0.54467123  0.54009973  1
  Al  Al21  1  0.10300373  0.77157647  0.30944590  1
  Al  Al22  1  0.21343644  0.88793386  0.06553331  1
  Al  Al23  1  0.78562549  0.75520435  0.87359631  1
  Al  Al24  1  0.43141038  0.77702036  0.31389667  1
  Al  Al25  1  0.54870362  0.88617755  0.06582728  1
  Al  Al26  1  0.11836462  0.76011172  0.80922047  1
  Al  Al27  1  0.23123517  0.86780738  0.55363651  1
  Al  Al28  1  0.76907451  0.76843814  0.32160654  1
  Al  Al29  1  0.89171305  0.88230709  0.06170273  1
  Al  Al30  1  0.54775257  0.87670060  0.54668526  1
  Gd  Gd31  1  0.89392067  0.20038374  0.58744020  1
  Gd  Gd32  1  0.21804694  0.53987288  0.05847610  1
  Gd  Gd33  1  0.56076331  0.53687457  0.08732275  1
  Gd  Gd34  1  0.88882922  0.86252392  0.57156020  1
  Gd  Gd35  1  0.45306217  0.75793125  0.79883412  1
  N  N36  1  0.22170207  0.20538331  0.37491201  1
  N  N37  1  0.11721917  0.09641620  0.12484167  1
  N  N38  1  0.89746371  0.19780076  0.82375043  1
  N  N39  1  0.73932270  0.10520746  0.63702042  1
  N  N40  1  0.55269078  0.20288953  0.37387223  1
  N  N41  1  0.44219843  0.09882234  0.12194217  1
  N  N42  1  0.22616519  0.20458605  0.87182382  1
  N  N43  1  0.15591305  0.06854422  0.62985463  1
  N  N44  1  0.88328444  0.21183241  0.32723365  1
  N  N45  1  0.77244157  0.09784099  0.11498923  1
  N  N46  1  0.55196591  0.20758540  0.87331425  1
  N  N47  1  0.44285970  0.09339199  0.62012794  1
  N  N48  1  0.21354725  0.54576482  0.37075548  1
  N  N49  1  0.11327311  0.40493684  0.13378668  1
  N  N50  1  0.88901270  0.53517843  0.82121850  1
  N  N51  1  0.76297631  0.45378033  0.55168308  1
  N  N52  1  0.54456478  0.54476185  0.34757773  1
  N  N53  1  0.45257468  0.39467614  0.14005766  1
  N  N54  1  0.22862410  0.53181708  0.84097642  1
  N  N55  1  0.10984210  0.42364186  0.61271210  1
  N  N56  1  0.88011327  0.54630706  0.31452355  1
  N  N57  1  0.81939242  0.40568219  0.06310649  1
  N  N58  1  0.57306463  0.50724383  0.86388451  1
  N  N59  1  0.44633181  0.42538328  0.60714252  1
  N  N60  1  0.21022715  0.88155581  0.36976147  1
  N  N61  1  0.09780927  0.79240255  0.12909430  1
  N  N62  1  0.89791577  0.86950101  0.86867713  1
  N  N63  1  0.75112412  0.75296264  0.60102599  1
  N  N64  1  0.54857937  0.88284171  0.35950860  1
  N  N65  1  0.42503803  0.79835230  0.12771488  1
  N  N66  1  0.20468000  0.87979564  0.88354640  1
  N  N67  1  0.14736457  0.74713187  0.62746163  1
  N  N68  1  0.87955812  0.87856092  0.34986219  1
  N  N69  1  0.78395204  0.75654359  0.08789635  1
  N  N70  1  0.56556101  0.88986261  0.88284095  1
  N  N71  1  0.44624444  0.75838006  0.57998221  1
