# generated using pymatgen
data_Gd5Al31N36
_symmetry_space_group_name_H-M   'P 1'
_cell_length_a   9.74635405
_cell_length_b   9.75577087
_cell_length_c   10.33750018
_cell_angle_alpha   89.82310214
_cell_angle_beta   90.21524601
_cell_angle_gamma   59.76857132
_symmetry_Int_Tables_number   1
_chemical_formula_structural   Gd5Al31N36
_chemical_formula_sum   'Gd5 Al31 N36'
_cell_volume   849.22377247
_cell_formula_units_Z   1
loop_
 _symmetry_equiv_pos_site_id
 _symmetry_equiv_pos_as_xyz
  1  'x, y, z'
loop_
 _atom_site_type_symbol
 _atom_site_label
 _atom_site_symmetry_multiplicity
 _atom_site_fract_x
 _atom_site_fract_y
 _atom_site_fract_z
 _atom_site_occupancy
  Al  Al0  1  0.11449492  0.10214718  0.38911129  1
  Al  Al1  1  0.22339093  0.20110981  0.14723185  1
  Al  Al2  1  0.77694394  0.09626526  0.91515257  1
  Al  Al3  1  0.44272938  0.09850199  0.39863774  1
  Al  Al4  1  0.55563675  0.19094339  0.14882751  1
  Al  Al5  1  0.10529716  0.10657965  0.91368368  1
  Al  Al6  1  0.23023007  0.20283319  0.64896204  1
  Al  Al7  1  0.76996675  0.09899108  0.38988540  1
  Al  Al8  1  0.89677649  0.19923902  0.15394551  1
  Al  Al9  1  0.45110768  0.09607124  0.89573667  1
  Al  Al10  1  0.55062563  0.20806382  0.64772661  1
  Al  Al11  1  0.10921282  0.42702585  0.41036756  1
  Al  Al12  1  0.78951937  0.41885377  0.90837680  1
  Al  Al13  1  0.88149296  0.54414207  0.64884353  1
  Al  Al14  1  0.43988310  0.42261533  0.40940587  1
  Al  Al15  1  0.10856760  0.42402029  0.89089896  1
  Al  Al16  1  0.22657164  0.54000475  0.65030528  1
  Al  Al17  1  0.78177612  0.43234451  0.39556623  1
  Al  Al18  1  0.89365782  0.53092421  0.14850599  1
  Al  Al19  1  0.45012856  0.41148606  0.89168006  1
  Al  Al20  1  0.55080732  0.54948846  0.58799634  1
  Al  Al21  1  0.11100354  0.75781594  0.40007639  1
  Al  Al22  1  0.21264842  0.88231942  0.09258539  1
  Al  Al23  1  0.78009781  0.76287534  0.90731602  1
  Al  Al24  1  0.43482599  0.77291203  0.33009249  1
  Al  Al25  1  0.55649789  0.87903671  0.15020073  1
  Al  Al26  1  0.10076261  0.76494898  0.91269057  1
  Al  Al27  1  0.24064221  0.86881582  0.56747909  1
  Al  Al28  1  0.77423760  0.75897049  0.39387701  1
  Al  Al29  1  0.88383682  0.87507695  0.15437890  1
  Al  Al30  1  0.55822806  0.87902921  0.64127253  1
  Gd  Gd31  1  0.89280037  0.20712647  0.64792592  1
  Gd  Gd32  1  0.21602061  0.52736645  0.15123196  1
  Gd  Gd33  1  0.55996830  0.51955829  0.13326012  1
  Gd  Gd34  1  0.88645491  0.86983225  0.65133372  1
  Gd  Gd35  1  0.44430180  0.75992542  0.85170971  1
  N  N36  1  0.22381519  0.21294180  0.33564421  1
  N  N37  1  0.11004482  0.10072476  0.10356660  1
  N  N38  1  0.89145331  0.20174525  0.86585577  1
  N  N39  1  0.74914226  0.11039890  0.56959986  1
  N  N40  1  0.54799720  0.21061529  0.33504645  1
  N  N41  1  0.44490208  0.08842445  0.08507204  1
  N  N42  1  0.22567683  0.20065358  0.83764078  1
  N  N43  1  0.14085995  0.09030074  0.57428665  1
  N  N44  1  0.88762443  0.20879932  0.34346501  1
  N  N45  1  0.77541026  0.09511076  0.10358910  1
  N  N46  1  0.56268622  0.19843466  0.83357731  1
  N  N47  1  0.44397286  0.09976069  0.58570695  1
  N  N48  1  0.22054641  0.53510230  0.36810010  1
  N  N49  1  0.09708019  0.40769612  0.07325012  1
  N  N50  1  0.88462126  0.54214459  0.83755840  1
  N  N51  1  0.77032770  0.45192130  0.57767273  1
  N  N52  1  0.54803412  0.54399422  0.37130974  1
  N  N53  1  0.44917863  0.38483855  0.07052184  1
  N  N54  1  0.21881569  0.54220815  0.84297596  1
  N  N55  1  0.10813958  0.42922659  0.59827784  1
  N  N56  1  0.89358644  0.53797356  0.33605233  1
  N  N57  1  0.80984814  0.40861088  0.09278634  1
  N  N58  1  0.57493920  0.50423046  0.87726132  1
  N  N59  1  0.44516218  0.42684053  0.59559946  1
  N  N60  1  0.22105576  0.87447478  0.37602091  1
  N  N61  1  0.09454750  0.78021680  0.10053573  1
  N  N62  1  0.88632808  0.87515731  0.86988514  1
  N  N63  1  0.76441486  0.74890399  0.57533307  1
  N  N64  1  0.55540189  0.88085963  0.33799741  1
  N  N65  1  0.42836658  0.78509427  0.13666786  1
  N  N66  1  0.19349947  0.88928653  0.90092556  1
  N  N67  1  0.13771050  0.75047831  0.58562742  1
  N  N68  1  0.88697484  0.87131854  0.34476041  1
  N  N69  1  0.77686183  0.75631499  0.09584812  1
  N  N70  1  0.57939748  0.88962967  0.82841782  1
  N  N71  1  0.44751123  0.76460549  0.62622115  1
