# generated using pymatgen
data_Gd5Al31N36
_symmetry_space_group_name_H-M   'P 1'
_cell_length_a   9.73910681
_cell_length_b   9.71095086
_cell_length_c   10.36065535
_cell_angle_alpha   89.96216100
_cell_angle_beta   89.60529938
_cell_angle_gamma   60.22629986
_symmetry_Int_Tables_number   1
_chemical_formula_structural   Gd5Al31N36
_chemical_formula_sum   'Gd5 Al31 N36'
_cell_volume   850.49560720
_cell_formula_units_Z   1
loop_
 _symmetry_equiv_pos_site_id
 _symmetry_equiv_pos_as_xyz
  1  'x, y, z'
loop_
 _atom_site_type_symbol
 _atom_site_label
 _atom_site_symmetry_multiplicity
 _atom_site_fract_x
 _atom_site_fract_y
 _atom_site_fract_z
 _atom_site_occupancy
  Al  Al0  1  0.11716213  0.09533833  0.30913594  1
  Al  Al1  1  0.22332187  0.20171481  0.06063193  1
  Al  Al2  1  0.77134443  0.09722204  0.81728713  1
  Al  Al3  1  0.43904512  0.10112289  0.30660810  1
  Al  Al4  1  0.55548422  0.19905285  0.05925344  1
  Al  Al5  1  0.11987751  0.08833049  0.81390452  1
  Al  Al6  1  0.23010406  0.19995287  0.56217679  1
  Al  Al7  1  0.76514951  0.09673645  0.30299078  1
  Al  Al8  1  0.89628359  0.20353025  0.12517578  1
  Al  Al9  1  0.44920031  0.09643047  0.81025232  1
  Al  Al10  1  0.54519879  0.20553458  0.55982471  1
  Al  Al11  1  0.11229667  0.42411097  0.31798327  1
  Al  Al12  1  0.79917238  0.40734671  0.87922789  1
  Al  Al13  1  0.87227045  0.54319925  0.63028999  1
  Al  Al14  1  0.43847834  0.42157482  0.31792862  1
  Al  Al15  1  0.11925945  0.41932190  0.79982813  1
  Al  Al16  1  0.22579030  0.53586336  0.56428810  1
  Al  Al17  1  0.77549416  0.43820138  0.36934652  1
  Al  Al18  1  0.89488516  0.53206660  0.12849404  1
  Al  Al19  1  0.45500347  0.41729670  0.79798280  1
  Al  Al20  1  0.54325496  0.54467244  0.54020781  1
  Al  Al21  1  0.10294611  0.77154547  0.30955360  1
  Al  Al22  1  0.21339137  0.88797992  0.06557542  1
  Al  Al23  1  0.78630373  0.75444364  0.87838225  1
  Al  Al24  1  0.43125151  0.77706765  0.31353635  1
  Al  Al25  1  0.54900572  0.88597843  0.06568679  1
  Al  Al26  1  0.11840087  0.76009355  0.80931234  1
  Al  Al27  1  0.23147083  0.86772445  0.55371510  1
  Al  Al28  1  0.76930550  0.76691474  0.33239476  1
  Al  Al29  1  0.89188771  0.88221935  0.06173796  1
  Al  Al30  1  0.54644683  0.87752959  0.54657085  1
  Gd  Gd31  1  0.89389280  0.20041837  0.58754054  1
  Gd  Gd32  1  0.21799621  0.53987183  0.05855654  1
  Gd  Gd33  1  0.56094310  0.53669965  0.08729962  1
  Gd  Gd34  1  0.88960471  0.86345804  0.57274819  1
  Gd  Gd35  1  0.45257989  0.75793742  0.79932435  1
  N  N36  1  0.22165239  0.20541284  0.37489042  1
  N  N37  1  0.11724891  0.09641525  0.12489566  1
  N  N38  1  0.89743891  0.19798376  0.82372777  1
  N  N39  1  0.73879933  0.10590812  0.63724865  1
  N  N40  1  0.55267395  0.20282010  0.37383449  1
  N  N41  1  0.44227663  0.09870763  0.12175696  1
  N  N42  1  0.22591446  0.20483668  0.87180305  1
  N  N43  1  0.15598695  0.06850553  0.62986575  1
  N  N44  1  0.88325797  0.21175831  0.32715515  1
  N  N45  1  0.77249866  0.09774846  0.11501005  1
  N  N46  1  0.55187174  0.20763038  0.87338184  1
  N  N47  1  0.44283349  0.09344520  0.62016343  1
  N  N48  1  0.21352660  0.54571850  0.37073897  1
  N  N49  1  0.11311887  0.40503246  0.13384682  1
  N  N50  1  0.88803686  0.53629093  0.81995168  1
  N  N51  1  0.76296193  0.45347349  0.55166483  1
  N  N52  1  0.54447079  0.54486039  0.34764629  1
  N  N53  1  0.45259603  0.39464395  0.14009690  1
  N  N54  1  0.22848990  0.53182851  0.84105406  1
  N  N55  1  0.10996414  0.42356717  0.61260259  1
  N  N56  1  0.87993409  0.54621861  0.31433834  1
  N  N57  1  0.81961023  0.40586527  0.06297970  1
  N  N58  1  0.57302273  0.50712028  0.86397933  1
  N  N59  1  0.44626373  0.42541192  0.60712959  1
  N  N60  1  0.21032634  0.88146163  0.36982984  1
  N  N61  1  0.09782381  0.79244092  0.12923032  1
  N  N62  1  0.89791978  0.86974115  0.86796095  1
  N  N63  1  0.75302410  0.75141597  0.59166676  1
  N  N64  1  0.54727814  0.88345713  0.35943730  1
  N  N65  1  0.42513550  0.79825409  0.12746192  1
  N  N66  1  0.20441669  0.87997632  0.88369095  1
  N  N67  1  0.14808456  0.74675346  0.62758946  1
  N  N68  1  0.87979746  0.87861866  0.35050240  1
  N  N69  1  0.78515294  0.75518009  0.08289737  1
  N  N70  1  0.56551672  0.88981676  0.88201998  1
  N  N71  1  0.44644116  0.75830860  0.58059757  1
