# generated using pymatgen
data_Gd5Al31N36
_symmetry_space_group_name_H-M   'P 1'
_cell_length_a   9.71047852
_cell_length_b   9.69119798
_cell_length_c   10.38356583
_cell_angle_alpha   90.20200854
_cell_angle_beta   90.03647259
_cell_angle_gamma   60.22366716
_symmetry_Int_Tables_number   1
_chemical_formula_structural   Gd5Al31N36
_chemical_formula_sum   'Gd5 Al31 N36'
_cell_volume   848.13816899
_cell_formula_units_Z   1
loop_
 _symmetry_equiv_pos_site_id
 _symmetry_equiv_pos_as_xyz
  1  'x, y, z'
loop_
 _atom_site_type_symbol
 _atom_site_label
 _atom_site_symmetry_multiplicity
 _atom_site_fract_x
 _atom_site_fract_y
 _atom_site_fract_z
 _atom_site_occupancy
  Al  Al0  1  0.11309644  0.09796511  0.30792087  1
  Al  Al1  1  0.22467124  0.20082843  0.06239876  1
  Al  Al2  1  0.77273162  0.09353317  0.81774473  1
  Al  Al3  1  0.44197905  0.09926274  0.30902439  1
  Al  Al4  1  0.55556851  0.19855997  0.05934762  1
  Al  Al5  1  0.11959952  0.08803640  0.81566972  1
  Al  Al6  1  0.23000253  0.20014142  0.56167517  1
  Al  Al7  1  0.76887551  0.09927614  0.30141743  1
  Al  Al8  1  0.89837747  0.19821750  0.10475509  1
  Al  Al9  1  0.44788939  0.09710633  0.81197306  1
  Al  Al10  1  0.54751183  0.20429021  0.56015360  1
  Al  Al11  1  0.11324529  0.42425671  0.31931796  1
  Al  Al12  1  0.79850647  0.40976918  0.88035052  1
  Al  Al13  1  0.87391796  0.53903574  0.63414855  1
  Al  Al14  1  0.43946140  0.42142057  0.31772586  1
  Al  Al15  1  0.12073583  0.41804283  0.80041277  1
  Al  Al16  1  0.22654459  0.53636426  0.56419803  1
  Al  Al17  1  0.77771475  0.43883391  0.37009066  1
  Al  Al18  1  0.89522121  0.53116328  0.13073971  1
  Al  Al19  1  0.45579080  0.41739254  0.79830923  1
  Al  Al20  1  0.54269614  0.54573561  0.53920049  1
  Al  Al21  1  0.10394332  0.77172930  0.30748636  1
  Al  Al22  1  0.21401285  0.88583230  0.06600002  1
  Al  Al23  1  0.77499731  0.76389017  0.82314854  1
  Al  Al24  1  0.43337384  0.77830178  0.31602742  1
  Al  Al25  1  0.55206582  0.88448178  0.06544395  1
  Al  Al26  1  0.11515923  0.76087933  0.80844084  1
  Al  Al27  1  0.22891868  0.87008536  0.55240802  1
  Al  Al28  1  0.76934391  0.77321217  0.29881859  1
  Al  Al29  1  0.88731848  0.87722018  0.05913076  1
  Al  Al30  1  0.54876059  0.87605400  0.55181517  1
  Gd  Gd31  1  0.89274729  0.20107136  0.58604297  1
  Gd  Gd32  1  0.21814649  0.53839730  0.05634733  1
  Gd  Gd33  1  0.56049032  0.53801617  0.08906932  1
  Gd  Gd34  1  0.88650643  0.85675774  0.56357252  1
  Gd  Gd35  1  0.45088828  0.75832563  0.79925082  1
  N  N36  1  0.22324154  0.20418251  0.37503265  1
  N  N37  1  0.11678314  0.09575394  0.12347632  1
  N  N38  1  0.89713867  0.19549961  0.83340221  1
  N  N39  1  0.74487809  0.09778912  0.63657530  1
  N  N40  1  0.55532740  0.20291357  0.37443358  1
  N  N41  1  0.44348262  0.09772438  0.12369661  1
  N  N42  1  0.22667895  0.20434352  0.87336880  1
  N  N43  1  0.15376652  0.07067707  0.63154108  1
  N  N44  1  0.88445744  0.21150497  0.33539647  1
  N  N45  1  0.77373398  0.09606567  0.11260238  1
  N  N46  1  0.55248961  0.20734658  0.87307327  1
  N  N47  1  0.44291793  0.09432948  0.62165919  1
  N  N48  1  0.21520978  0.54601182  0.37164025  1
  N  N49  1  0.11353046  0.40492650  0.13509761  1
  N  N50  1  0.89340662  0.53005787  0.82229640  1
  N  N51  1  0.76206377  0.45703690  0.55264623  1
  N  N52  1  0.54537068  0.54524905  0.34800678  1
  N  N53  1  0.45286321  0.39457792  0.14010638  1
  N  N54  1  0.22954919  0.53214369  0.83879138  1
  N  N55  1  0.10960467  0.42498880  0.61219349  1
  N  N56  1  0.88253485  0.54721776  0.31891394  1
  N  N57  1  0.81859115  0.40745700  0.06358134  1
  N  N58  1  0.57263113  0.50840727  0.86504125  1
  N  N59  1  0.44826179  0.42510556  0.60787450  1
  N  N60  1  0.21067028  0.88272567  0.36880184  1
  N  N61  1  0.09680608  0.79053561  0.12704540  1
  N  N62  1  0.89495848  0.86576819  0.86819602  1
  N  N63  1  0.74284410  0.75872395  0.63952669  1
  N  N64  1  0.55590190  0.88031303  0.36619707  1
  N  N65  1  0.42548818  0.79973532  0.12988072  1
  N  N66  1  0.20359635  0.87890678  0.88393097  1
  N  N67  1  0.14140415  0.75146842  0.62579574  1
  N  N68  1  0.88080063  0.87994611  0.34777655  1
  N  N69  1  0.77700159  0.76317433  0.11245145  1
  N  N70  1  0.56557892  0.88956050  0.88454753  1
  N  N71  1  0.44461109  0.75942525  0.58016081  1
