# generated using pymatgen
data_Gd5Al31N36
_symmetry_space_group_name_H-M   'P 1'
_cell_length_a   9.69446416
_cell_length_b   9.70692944
_cell_length_c   10.35902971
_cell_angle_alpha   89.92396544
_cell_angle_beta   89.87335834
_cell_angle_gamma   60.02315537
_symmetry_Int_Tables_number   1
_chemical_formula_structural   Gd5Al31N36
_chemical_formula_sum   'Gd5 Al31 N36'
_cell_volume   844.41434688
_cell_formula_units_Z   1
loop_
 _symmetry_equiv_pos_site_id
 _symmetry_equiv_pos_as_xyz
  1  'x, y, z'
loop_
 _atom_site_type_symbol
 _atom_site_label
 _atom_site_symmetry_multiplicity
 _atom_site_fract_x
 _atom_site_fract_y
 _atom_site_fract_z
 _atom_site_occupancy
  Al  Al0  1  0.10933802  0.09770897  0.30077151  1
  Al  Al1  1  0.22424802  0.20053675  0.06229342  1
  Al  Al2  1  0.77283145  0.09555799  0.82082952  1
  Al  Al3  1  0.44217659  0.09912828  0.30953054  1
  Al  Al4  1  0.55503184  0.19925779  0.05985963  1
  Al  Al5  1  0.11816480  0.08991505  0.81915208  1
  Al  Al6  1  0.23139992  0.19879443  0.56263956  1
  Al  Al7  1  0.77272046  0.09738595  0.29568966  1
  Al  Al8  1  0.89560272  0.20047872  0.05808028  1
  Al  Al9  1  0.44882797  0.09718480  0.81287066  1
  Al  Al10  1  0.55086848  0.20459172  0.56036824  1
  Al  Al11  1  0.11080067  0.42382758  0.32119798  1
  Al  Al12  1  0.77871624  0.41961298  0.81432799  1
  Al  Al13  1  0.88064282  0.54220708  0.63224416  1
  Al  Al14  1  0.44321263  0.42018300  0.31888625  1
  Al  Al15  1  0.12029604  0.41880059  0.80369242  1
  Al  Al16  1  0.22756087  0.53648913  0.56173996  1
  Al  Al17  1  0.77921923  0.42273244  0.30613193  1
  Al  Al18  1  0.89296968  0.53483522  0.12813674  1
  Al  Al19  1  0.45092816  0.41799352  0.79513209  1
  Al  Al20  1  0.55481943  0.53874368  0.54323909  1
  Al  Al21  1  0.10502979  0.77048595  0.30722749  1
  Al  Al22  1  0.21444693  0.88594109  0.06663450  1
  Al  Al23  1  0.77664446  0.76406264  0.82480093  1
  Al  Al24  1  0.43764603  0.77407261  0.31970263  1
  Al  Al25  1  0.55193328  0.88441366  0.06744784  1
  Al  Al26  1  0.11638037  0.76025715  0.80859915  1
  Al  Al27  1  0.22962068  0.86984165  0.55042643  1
  Al  Al28  1  0.77211145  0.76996937  0.30239219  1
  Al  Al29  1  0.88776295  0.87719143  0.05943869  1
  Al  Al30  1  0.55176861  0.87614318  0.54925600  1
  Gd  Gd31  1  0.89767702  0.20185014  0.56406829  1
  Gd  Gd32  1  0.21659685  0.53753999  0.05863913  1
  Gd  Gd33  1  0.55231339  0.54284409  0.07304496  1
  Gd  Gd34  1  0.88671329  0.86405986  0.56459014  1
  Gd  Gd35  1  0.44829174  0.76485670  0.79262729  1
  N  N36  1  0.22157681  0.20219467  0.37496312  1
  N  N37  1  0.11022960  0.09910835  0.11637800  1
  N  N38  1  0.89445367  0.20069713  0.86625541  1
  N  N39  1  0.75036085  0.10659600  0.63998744  1
  N  N40  1  0.55820977  0.20030658  0.37388174  1
  N  N41  1  0.44254233  0.09859986  0.12382198  1
  N  N42  1  0.22745281  0.20423903  0.87322489  1
  N  N43  1  0.15202728  0.07050891  0.63584077  1
  N  N44  1  0.88676675  0.20294508  0.34651864  1
  N  N45  1  0.77489588  0.09612783  0.10778911  1
  N  N46  1  0.55107759  0.20896261  0.87292881  1
  N  N47  1  0.44619343  0.09280608  0.62165612  1
  N  N48  1  0.21627079  0.54439356  0.37018046  1
  N  N49  1  0.11027521  0.40444557  0.13493160  1
  N  N50  1  0.89453081  0.53301584  0.83069270  1
  N  N51  1  0.75673567  0.44868782  0.62344631  1
  N  N52  1  0.55494288  0.53765046  0.35445918  1
  N  N53  1  0.45383000  0.39598131  0.14049595  1
  N  N54  1  0.22818502  0.53280750  0.84047606  1
  N  N55  1  0.11198426  0.42399753  0.61356849  1
  N  N56  1  0.88224649  0.54557942  0.32949964  1
  N  N57  1  0.80194809  0.40908919  0.12023298  1
  N  N58  1  0.56403981  0.51346274  0.85792524  1
  N  N59  1  0.44784156  0.42452517  0.60614277  1
  N  N60  1  0.21051952  0.88261165  0.36704979  1
  N  N61  1  0.09804258  0.78958534  0.12646037  1
  N  N62  1  0.89538891  0.86726523  0.86751853  1
  N  N63  1  0.74636535  0.76061373  0.63826067  1
  N  N64  1  0.55726057  0.88057354  0.36519297  1
  N  N65  1  0.42567862  0.79968855  0.13316382  1
  N  N66  1  0.20452382  0.87841305  0.88363592  1
  N  N67  1  0.14342650  0.75052610  0.62527416  1
  N  N68  1  0.88205968  0.87880559  0.34762612  1
  N  N69  1  0.77801212  0.76326739  0.11410714  1
  N  N70  1  0.56598470  0.88910189  0.88542732  1
  N  N71  1  0.44770870  0.75858081  0.57341588  1
