# generated using pymatgen
data_Gd5Al31N36
_symmetry_space_group_name_H-M   'P 1'
_cell_length_a   9.71003540
_cell_length_b   9.70860231
_cell_length_c   10.61185819
_cell_angle_alpha   89.43929989
_cell_angle_beta   89.57530739
_cell_angle_gamma   59.68680088
_symmetry_Int_Tables_number   1
_chemical_formula_structural   Gd5Al31N36
_chemical_formula_sum   'Gd5 Al31 N36'
_cell_volume   863.57032822
_cell_formula_units_Z   1
loop_
 _symmetry_equiv_pos_site_id
 _symmetry_equiv_pos_as_xyz
  1  'x, y, z'
loop_
 _atom_site_type_symbol
 _atom_site_label
 _atom_site_symmetry_multiplicity
 _atom_site_fract_x
 _atom_site_fract_y
 _atom_site_fract_z
 _atom_site_occupancy
  Al  Al0  1  0.11088249  0.10426307  0.39660971  1
  Al  Al1  1  0.21360869  0.20406278  0.15062178  1
  Al  Al2  1  0.78320399  0.09036287  0.91698243  1
  Al  Al3  1  0.44056508  0.09729221  0.32812485  1
  Al  Al4  1  0.56148244  0.19492578  0.15022691  1
  Al  Al5  1  0.10987428  0.09915655  0.91723287  1
  Al  Al6  1  0.22477849  0.20298425  0.65153900  1
  Al  Al7  1  0.76641666  0.10441763  0.39248941  1
  Al  Al8  1  0.89894498  0.19579329  0.15498336  1
  Al  Al9  1  0.45716795  0.08844249  0.83048321  1
  Al  Al10  1  0.55244347  0.21475018  0.64587857  1
  Al  Al11  1  0.10726380  0.43160097  0.41203074  1
  Al  Al12  1  0.79246385  0.41704254  0.91646403  1
  Al  Al13  1  0.88039049  0.54261704  0.64979667  1
  Al  Al14  1  0.43363391  0.42609024  0.40534734  1
  Al  Al15  1  0.11097020  0.41785342  0.89341278  1
  Al  Al16  1  0.22901464  0.53419110  0.65293269  1
  Al  Al17  1  0.78559198  0.42844472  0.39316669  1
  Al  Al18  1  0.89377310  0.53041033  0.15332054  1
  Al  Al19  1  0.45608228  0.40767753  0.89698124  1
  Al  Al20  1  0.54971684  0.55103338  0.56344549  1
  Al  Al21  1  0.10621442  0.77239205  0.33863067  1
  Al  Al22  1  0.21736977  0.87667973  0.09299423  1
  Al  Al23  1  0.79321549  0.75485814  0.91850571  1
  Al  Al24  1  0.43371742  0.77948215  0.33129140  1
  Al  Al25  1  0.54948992  0.88387267  0.08758282  1
  Al  Al26  1  0.11833540  0.75907860  0.84558651  1
  Al  Al27  1  0.23106924  0.86501811  0.56857687  1
  Al  Al28  1  0.77713152  0.75721513  0.39495933  1
  Al  Al29  1  0.87954928  0.87796004  0.15914265  1
  Al  Al30  1  0.54204464  0.88064518  0.56553223  1
  Gd  Gd31  1  0.88922557  0.21002822  0.65552059  1
  Gd  Gd32  1  0.21462890  0.52571970  0.14539833  1
  Gd  Gd33  1  0.55569272  0.52809346  0.12998842  1
  Gd  Gd34  1  0.87194297  0.87626240  0.64853922  1
  Gd  Gd35  1  0.45210939  0.75804852  0.82822619  1
  N  N36  1  0.21105796  0.22031208  0.33735820  1
  N  N37  1  0.11128625  0.09788771  0.09955092  1
  N  N38  1  0.89504846  0.19926737  0.86975162  1
  N  N39  1  0.74837122  0.11757311  0.56660440  1
  N  N40  1  0.54937521  0.21794016  0.33391793  1
  N  N41  1  0.44307803  0.09168551  0.14665606  1
  N  N42  1  0.22136019  0.19807496  0.83741684  1
  N  N43  1  0.13743207  0.09084018  0.57651525  1
  N  N44  1  0.88904428  0.20637290  0.34015172  1
  N  N45  1  0.77802941  0.09246805  0.09992007  1
  N  N46  1  0.57475668  0.19830455  0.82983833  1
  N  N47  1  0.45299216  0.08600378  0.64278024  1
  N  N48  1  0.21448671  0.54348986  0.36433369  1
  N  N49  1  0.09450072  0.40688416  0.07155639  1
  N  N50  1  0.88523287  0.54046025  0.83783416  1
  N  N51  1  0.77176982  0.44956304  0.57284029  1
  N  N52  1  0.54861029  0.54527551  0.37171528  1
  N  N53  1  0.45075732  0.38450036  0.07035956  1
  N  N54  1  0.22948154  0.52507008  0.84301535  1
  N  N55  1  0.10918772  0.42838468  0.59712352  1
  N  N56  1  0.89317769  0.53892309  0.33617231  1
  N  N57  1  0.80970123  0.40809773  0.09768921  1
  N  N58  1  0.57363684  0.51238516  0.89406223  1
  N  N59  1  0.44148192  0.42942108  0.58720924  1
  N  N60  1  0.21829705  0.87388109  0.38784837  1
  N  N61  1  0.10077628  0.78938295  0.15694067  1
  N  N62  1  0.89410365  0.86827345  0.86729083  1
  N  N63  1  0.76621145  0.74376056  0.57468874  1
  N  N64  1  0.54417087  0.88478899  0.38563806  1
  N  N65  1  0.42884952  0.79432172  0.15073392  1
  N  N66  1  0.20685124  0.87262952  0.91232963  1
  N  N67  1  0.13797681  0.75799320  0.64825909  1
  N  N68  1  0.87423261  0.88011912  0.34738610  1
  N  N69  1  0.78780540  0.75165453  0.10232180  1
  N  N70  1  0.56830217  0.88919645  0.90815872  1
  N  N71  1  0.44564208  0.76238747  0.61282250  1
