# generated using pymatgen
data_Gd5Al31N36
_symmetry_space_group_name_H-M   'P 1'
_cell_length_a   9.69165840
_cell_length_b   9.69040095
_cell_length_c   10.29508121
_cell_angle_alpha   89.59657741
_cell_angle_beta   89.68736483
_cell_angle_gamma   59.85674085
_symmetry_Int_Tables_number   1
_chemical_formula_structural   Gd5Al31N36
_chemical_formula_sum   'Gd5 Al31 N36'
_cell_volume   836.10278248
_cell_formula_units_Z   1
loop_
 _symmetry_equiv_pos_site_id
 _symmetry_equiv_pos_as_xyz
  1  'x, y, z'
loop_
 _atom_site_type_symbol
 _atom_site_label
 _atom_site_symmetry_multiplicity
 _atom_site_fract_x
 _atom_site_fract_y
 _atom_site_fract_z
 _atom_site_occupancy
  Al  Al0  1  0.11807875  0.09413326  0.40321650  1
  Al  Al1  1  0.22281196  0.20131323  0.15714454  1
  Al  Al2  1  0.77350758  0.09680261  0.92785491  1
  Al  Al3  1  0.44275061  0.09807043  0.40864893  1
  Al  Al4  1  0.55514935  0.19840181  0.15935239  1
  Al  Al5  1  0.10620643  0.09810242  0.91994481  1
  Al  Al6  1  0.22964833  0.20086405  0.65816139  1
  Al  Al7  1  0.77181543  0.09784136  0.39832895  1
  Al  Al8  1  0.89448189  0.20291096  0.15937015  1
  Al  Al9  1  0.44928701  0.09641685  0.90807351  1
  Al  Al10  1  0.54962839  0.20438024  0.65891678  1
  Al  Al11  1  0.11104768  0.42589525  0.41749031  1
  Al  Al12  1  0.78315333  0.42324051  0.91482601  1
  Al  Al13  1  0.88326064  0.54110327  0.65991654  1
  Al  Al14  1  0.44318030  0.42420460  0.42660443  1
  Al  Al15  1  0.10733429  0.42385752  0.90243185  1
  Al  Al16  1  0.22476106  0.53751452  0.66093832  1
  Al  Al17  1  0.78132786  0.42939306  0.41507134  1
  Al  Al18  1  0.89201864  0.53182231  0.15993071  1
  Al  Al19  1  0.45152173  0.41473520  0.89669113  1
  Al  Al20  1  0.55829828  0.53450827  0.65239312  1
  Al  Al21  1  0.11710379  0.75864329  0.41205499  1
  Al  Al22  1  0.21869961  0.88316845  0.16684328  1
  Al  Al23  1  0.77915584  0.76226941  0.92006163  1
  Al  Al24  1  0.44280078  0.76557833  0.42242781  1
  Al  Al25  1  0.55202751  0.87885564  0.16568506  1
  Al  Al26  1  0.10137863  0.77385351  0.91441431  1
  Al  Al27  1  0.22358529  0.87389709  0.65217746  1
  Al  Al28  1  0.77681782  0.75689473  0.40292027  1
  Al  Al29  1  0.88745694  0.87597429  0.16089002  1
  Al  Al30  1  0.55666845  0.87589278  0.65277688  1
  Gd  Gd31  1  0.89478183  0.19955400  0.66361679  1
  Gd  Gd32  1  0.21769348  0.53421754  0.15438778  1
  Gd  Gd33  1  0.55441441  0.53619755  0.16886432  1
  Gd  Gd34  1  0.88422443  0.86758547  0.66211814  1
  Gd  Gd35  1  0.43944878  0.76724719  0.89171913  1
  N  N36  1  0.22373409  0.20968340  0.34618039  1
  N  N37  1  0.11348777  0.09457934  0.10710623  1
  N  N38  1  0.88735478  0.20376762  0.88275303  1
  N  N39  1  0.74870857  0.10802974  0.57918635  1
  N  N40  1  0.54824701  0.21203123  0.34621493  1
  N  N41  1  0.44539500  0.09299911  0.09867325  1
  N  N42  1  0.22467874  0.19967662  0.84817705  1
  N  N43  1  0.14332963  0.08206133  0.58467754  1
  N  N44  1  0.89049096  0.20720865  0.35238468  1
  N  N45  1  0.77486281  0.09614274  0.11506765  1
  N  N46  1  0.56187939  0.19759060  0.84577410  1
  N  N47  1  0.44382851  0.09673354  0.59638933  1
  N  N48  1  0.22455427  0.53475541  0.37385181  1
  N  N49  1  0.09748393  0.40931817  0.08592682  1
  N  N50  1  0.88460361  0.54320786  0.84897625  1
  N  N51  1  0.77242921  0.44561071  0.59666911  1
  N  N52  1  0.55273881  0.53986925  0.38726929  1
  N  N53  1  0.45967735  0.39640341  0.07764934  1
  N  N54  1  0.21772943  0.54384716  0.85457157  1
  N  N55  1  0.10875040  0.42717336  0.60722901  1
  N  N56  1  0.89352916  0.53505542  0.34778252  1
  N  N57  1  0.79857094  0.41762924  0.09904074  1
  N  N58  1  0.57464081  0.50765234  0.84151101  1
  N  N59  1  0.44324395  0.42337985  0.61173163  1
  N  N60  1  0.22507159  0.87069547  0.35347016  1
  N  N61  1  0.10190747  0.79138943  0.09881761  1
  N  N62  1  0.88306986  0.87644567  0.88193247  1
  N  N63  1  0.76398400  0.74597367  0.58525549  1
  N  N64  1  0.55271062  0.87534313  0.35381947  1
  N  N65  1  0.43062541  0.78998797  0.10882740  1
  N  N66  1  0.18075959  0.89762774  0.83488562  1
  N  N67  1  0.13777300  0.74908331  0.59422799  1
  N  N68  1  0.89204225  0.86841732  0.35268487  1
  N  N69  1  0.77711754  0.75781719  0.10918817  1
  N  N70  1  0.57651601  0.88700625  0.83804962  1
  N  N71  1  0.44535226  0.76300690  0.61540399  1
