# generated using pymatgen
data_Gd5Al31N36
_symmetry_space_group_name_H-M   'P 1'
_cell_length_a   9.67339202
_cell_length_b   9.70211828
_cell_length_c   10.62866166
_cell_angle_alpha   89.18570360
_cell_angle_beta   89.04413403
_cell_angle_gamma   59.84548956
_symmetry_Int_Tables_number   1
_chemical_formula_structural   Gd5Al31N36
_chemical_formula_sum   'Gd5 Al31 N36'
_cell_volume   862.39447322
_cell_formula_units_Z   1
loop_
 _symmetry_equiv_pos_site_id
 _symmetry_equiv_pos_as_xyz
  1  'x, y, z'
loop_
 _atom_site_type_symbol
 _atom_site_label
 _atom_site_symmetry_multiplicity
 _atom_site_fract_x
 _atom_site_fract_y
 _atom_site_fract_z
 _atom_site_occupancy
  Al  Al0  1  0.10754323  0.09832000  0.36154878  1
  Al  Al1  1  0.21739123  0.21190884  0.15113184  1
  Al  Al2  1  0.79382016  0.08240773  0.92208160  1
  Al  Al3  1  0.44427255  0.09743505  0.32680096  1
  Al  Al4  1  0.54979562  0.20237789  0.08490814  1
  Al  Al5  1  0.11535070  0.09459096  0.91137621  1
  Al  Al6  1  0.22828955  0.19995973  0.65944555  1
  Al  Al7  1  0.76772382  0.10055144  0.39691971  1
  Al  Al8  1  0.88932854  0.20245596  0.15250992  1
  Al  Al9  1  0.46390457  0.08942204  0.83669989  1
  Al  Al10  1  0.53903075  0.21091408  0.57527446  1
  Al  Al11  1  0.10681720  0.42491874  0.40971953  1
  Al  Al12  1  0.79497857  0.41556798  0.91485799  1
  Al  Al13  1  0.88106787  0.53874694  0.64729647  1
  Al  Al14  1  0.43399563  0.42438053  0.33938339  1
  Al  Al15  1  0.11136349  0.41745382  0.89207473  1
  Al  Al16  1  0.22834514  0.53887215  0.59030114  1
  Al  Al17  1  0.78112065  0.42896497  0.39279209  1
  Al  Al18  1  0.89795057  0.53183653  0.15538173  1
  Al  Al19  1  0.45700652  0.41413805  0.82453565  1
  Al  Al20  1  0.54642629  0.54330516  0.56279767  1
  Al  Al21  1  0.10675065  0.76784766  0.34290066  1
  Al  Al22  1  0.21420901  0.88309839  0.09900242  1
  Al  Al23  1  0.79572950  0.75409597  0.91904079  1
  Al  Al24  1  0.43345928  0.77624184  0.33593156  1
  Al  Al25  1  0.55088029  0.88428649  0.09016132  1
  Al  Al26  1  0.12427154  0.75517188  0.83153589  1
  Al  Al27  1  0.22907415  0.86967245  0.57228843  1
  Al  Al28  1  0.77519757  0.75421276  0.39651920  1
  Al  Al29  1  0.87557518  0.88251911  0.16746508  1
  Al  Al30  1  0.54147774  0.87778667  0.56616743  1
  Gd  Gd31  1  0.88742050  0.21175064  0.65801120  1
  Gd  Gd32  1  0.21474086  0.55494799  0.08237124  1
  Gd  Gd33  1  0.55281675  0.54124285  0.11125389  1
  Gd  Gd34  1  0.87327345  0.87129882  0.64679347  1
  Gd  Gd35  1  0.45326848  0.75927015  0.82404295  1
  N  N36  1  0.21209864  0.21717478  0.33588458  1
  N  N37  1  0.11032595  0.10144320  0.11461697  1
  N  N38  1  0.89796074  0.19743701  0.87399153  1
  N  N39  1  0.75890481  0.10955013  0.57248993  1
  N  N40  1  0.53484187  0.21129748  0.39542276  1
  N  N41  1  0.44866963  0.09431413  0.14573975  1
  N  N42  1  0.22761458  0.19821897  0.84515251  1
  N  N43  1  0.14155930  0.08177134  0.60611750  1
  N  N44  1  0.88039941  0.20870488  0.33704047  1
  N  N45  1  0.77800671  0.09305492  0.10270382  1
  N  N46  1  0.55930532  0.20368143  0.89796628  1
  N  N47  1  0.46134906  0.08254661  0.65085024  1
  N  N48  1  0.21568697  0.54842375  0.40098977  1
  N  N49  1  0.09963850  0.41287154  0.07612203  1
  N  N50  1  0.88695980  0.53819263  0.83713475  1
  N  N51  1  0.76940507  0.44922661  0.57085963  1
  N  N52  1  0.54533244  0.54322173  0.37368471  1
  N  N53  1  0.44689934  0.39564235  0.16565174  1
  N  N54  1  0.22941368  0.52991622  0.86762690  1
  N  N55  1  0.10980939  0.42117938  0.59558378  1
  N  N56  1  0.89310719  0.53686812  0.33626410  1
  N  N57  1  0.81019038  0.41292642  0.09546881  1
  N  N58  1  0.57125898  0.50818228  0.89154908  1
  N  N59  1  0.45047695  0.42299888  0.63763388  1
  N  N60  1  0.21433241  0.87638208  0.39227725  1
  N  N61  1  0.09791481  0.79511875  0.16793766  1
  N  N62  1  0.89728249  0.86702358  0.86346747  1
  N  N63  1  0.76511894  0.74041616  0.57503639  1
  N  N64  1  0.54296156  0.88403122  0.38614657  1
  N  N65  1  0.42574044  0.80056560  0.15669812  1
  N  N66  1  0.20821709  0.86893506  0.91680298  1
  N  N67  1  0.14385881  0.75028732  0.64933147  1
  N  N68  1  0.87168515  0.87862399  0.35270117  1
  N  N69  1  0.79032145  0.75293844  0.10319704  1
  N  N70  1  0.57023600  0.88426946  0.90980198  1
  N  N71  1  0.44657487  0.75688809  0.61077254  1
