# generated using pymatgen
data_Gd5Al31N36
_symmetry_space_group_name_H-M   'P 1'
_cell_length_a   9.69724802
_cell_length_b   9.69986702
_cell_length_c   10.34067798
_cell_angle_alpha   89.80804176
_cell_angle_beta   89.87809054
_cell_angle_gamma   59.99072323
_symmetry_Int_Tables_number   1
_chemical_formula_structural   Gd5Al31N36
_chemical_formula_sum   'Gd5 Al31 N36'
_cell_volume   842.26902257
_cell_formula_units_Z   1
loop_
 _symmetry_equiv_pos_site_id
 _symmetry_equiv_pos_as_xyz
  1  'x, y, z'
loop_
 _atom_site_type_symbol
 _atom_site_label
 _atom_site_symmetry_multiplicity
 _atom_site_fract_x
 _atom_site_fract_y
 _atom_site_fract_z
 _atom_site_occupancy
  Al  Al0  1  0.10987450  0.09712626  0.30103709  1
  Al  Al1  1  0.22402235  0.20073082  0.06256431  1
  Al  Al2  1  0.77187526  0.09672351  0.82105508  1
  Al  Al3  1  0.44300565  0.09831138  0.30983610  1
  Al  Al4  1  0.55534449  0.19939924  0.05998495  1
  Al  Al5  1  0.11604159  0.09159114  0.81974470  1
  Al  Al6  1  0.23215155  0.19785593  0.56292434  1
  Al  Al7  1  0.77363269  0.09652250  0.29567783  1
  Al  Al8  1  0.89526285  0.20111811  0.05779121  1
  Al  Al9  1  0.44818185  0.09800381  0.81339276  1
  Al  Al10  1  0.55111447  0.20430220  0.56044822  1
  Al  Al11  1  0.10948830  0.42413271  0.32156088  1
  Al  Al12  1  0.77673782  0.42282732  0.81164128  1
  Al  Al13  1  0.88125464  0.54231227  0.61941518  1
  Al  Al14  1  0.44500445  0.41966532  0.31945007  1
  Al  Al15  1  0.11686754  0.42067828  0.80443280  1
  Al  Al16  1  0.22758236  0.53629205  0.56134742  1
  Al  Al17  1  0.78140784  0.42323467  0.30710949  1
  Al  Al18  1  0.89338693  0.53432543  0.11332785  1
  Al  Al19  1  0.44879838  0.41942334  0.79502619  1
  Al  Al20  1  0.55489971  0.53847736  0.54464722  1
  Al  Al21  1  0.10572074  0.76942216  0.30736338  1
  Al  Al22  1  0.21374329  0.88613752  0.06714918  1
  Al  Al23  1  0.77650472  0.76314311  0.82378230  1
  Al  Al24  1  0.43897155  0.77247581  0.31986400  1
  Al  Al25  1  0.55187087  0.88437939  0.06782431  1
  Al  Al26  1  0.11479404  0.76087759  0.80903753  1
  Al  Al27  1  0.23025903  0.86910531  0.55008901  1
  Al  Al28  1  0.77473786  0.76561774  0.30352809  1
  Al  Al29  1  0.88781459  0.87688912  0.05938970  1
  Al  Al30  1  0.55263897  0.87542503  0.54903907  1
  Gd  Gd31  1  0.89849447  0.20167068  0.56433035  1
  Gd  Gd32  1  0.21809362  0.53699757  0.05960010  1
  Gd  Gd33  1  0.55337687  0.54276308  0.07150847  1
  Gd  Gd34  1  0.88697001  0.86522607  0.56437363  1
  Gd  Gd35  1  0.44409540  0.76918202  0.79318453  1
  N  N36  1  0.22237945  0.20138892  0.37502320  1
  N  N37  1  0.10991058  0.09949330  0.11642734  1
  N  N38  1  0.89219753  0.20340679  0.86582505  1
  N  N39  1  0.75044504  0.10752685  0.63998536  1
  N  N40  1  0.55924064  0.19923447  0.37393698  1
  N  N41  1  0.44245803  0.09894335  0.12385085  1
  N  N42  1  0.22646439  0.20484107  0.87340399  1
  N  N43  1  0.15288041  0.06941082  0.63636649  1
  N  N44  1  0.88761047  0.20193763  0.34683944  1
  N  N45  1  0.77524174  0.09598372  0.10744895  1
  N  N46  1  0.55009654  0.21013769  0.87301560  1
  N  N47  1  0.44687473  0.09205035  0.62192288  1
  N  N48  1  0.21744601  0.54326604  0.36972820  1
  N  N49  1  0.10884891  0.40555607  0.13525640  1
  N  N50  1  0.89294166  0.53397097  0.83825583  1
  N  N51  1  0.75749663  0.44873203  0.62404975  1
  N  N52  1  0.55659724  0.53662137  0.35576191  1
  N  N53  1  0.45589219  0.39600462  0.14071929  1
  N  N54  1  0.22636600  0.53346057  0.84112310  1
  N  N55  1  0.11187892  0.42357422  0.61422325  1
  N  N56  1  0.88361158  0.54386089  0.34180051  1
  N  N57  1  0.80249033  0.40939632  0.12193722  1
  N  N58  1  0.56147989  0.51631685  0.85573778  1
  N  N59  1  0.44744136  0.42416488  0.60615881  1
  N  N60  1  0.21163198  0.88136285  0.36666154  1
  N  N61  1  0.09799538  0.78911618  0.12643717  1
  N  N62  1  0.89395135  0.86794030  0.86730018  1
  N  N63  1  0.74818649  0.75963424  0.63743346  1
  N  N64  1  0.55844765  0.87916656  0.36478631  1
  N  N65  1  0.42571516  0.79903947  0.13279512  1
  N  N66  1  0.20121613  0.88020893  0.88439185  1
  N  N67  1  0.14374396  0.75021202  0.62531722  1
  N  N68  1  0.88288023  0.87740394  0.34719383  1
  N  N69  1  0.77846102  0.76179628  0.11501457  1
  N  N70  1  0.56608877  0.88936491  0.88554272  1
  N  N71  1  0.44827168  0.75836509  0.57397171  1
