# generated using pymatgen
data_Gd5Al31N36
_symmetry_space_group_name_H-M   'P 1'
_cell_length_a   9.66944475
_cell_length_b   9.69103244
_cell_length_c   10.55767763
_cell_angle_alpha   89.72645701
_cell_angle_beta   89.34819920
_cell_angle_gamma   60.01580287
_symmetry_Int_Tables_number   1
_chemical_formula_structural   Gd5Al31N36
_chemical_formula_sum   'Gd5 Al31 N36'
_cell_volume   856.86302868
_cell_formula_units_Z   1
loop_
 _symmetry_equiv_pos_site_id
 _symmetry_equiv_pos_as_xyz
  1  'x, y, z'
loop_
 _atom_site_type_symbol
 _atom_site_label
 _atom_site_symmetry_multiplicity
 _atom_site_fract_x
 _atom_site_fract_y
 _atom_site_fract_z
 _atom_site_occupancy
  Al  Al0  1  0.11210817  0.09669645  0.30875771  1
  Al  Al1  1  0.22111792  0.20318063  0.06094657  1
  Al  Al2  1  0.79582217  0.08320346  0.89353590  1
  Al  Al3  1  0.43495526  0.10055413  0.30212649  1
  Al  Al4  1  0.54998767  0.20210794  0.05887437  1
  Al  Al5  1  0.12738974  0.08392268  0.81792701  1
  Al  Al6  1  0.22973088  0.19871958  0.56055077  1
  Al  Al7  1  0.76511255  0.10180638  0.36793286  1
  Al  Al8  1  0.89199645  0.20269736  0.12879034  1
  Al  Al9  1  0.45506016  0.09457649  0.81095072  1
  Al  Al10  1  0.53568937  0.21317596  0.54696478  1
  Al  Al11  1  0.11169726  0.42360813  0.31794260  1
  Al  Al12  1  0.80270687  0.41027692  0.88560128  1
  Al  Al13  1  0.87386335  0.54453386  0.62175173  1
  Al  Al14  1  0.43162462  0.42584662  0.31048047  1
  Al  Al15  1  0.12096032  0.41884006  0.79528937  1
  Al  Al16  1  0.22481353  0.53717216  0.56193641  1
  Al  Al17  1  0.77613010  0.43276785  0.36865865  1
  Al  Al18  1  0.89292989  0.53374884  0.13536593  1
  Al  Al19  1  0.46094972  0.41224868  0.79742327  1
  Al  Al20  1  0.54099147  0.54653923  0.53602472  1
  Al  Al21  1  0.10708745  0.76883869  0.31730711  1
  Al  Al22  1  0.21169925  0.88770533  0.06719588  1
  Al  Al23  1  0.79642351  0.75366062  0.89256998  1
  Al  Al24  1  0.43000107  0.77869539  0.30938345  1
  Al  Al25  1  0.55092264  0.88458965  0.06434853  1
  Al  Al26  1  0.12629733  0.75480100  0.80510501  1
  Al  Al27  1  0.22827681  0.87116895  0.55345438  1
  Al  Al28  1  0.77187161  0.75859052  0.37104141  1
  Al  Al29  1  0.87925914  0.88101961  0.13888840  1
  Al  Al30  1  0.54042231  0.87933304  0.54133326  1
  Gd  Gd31  1  0.88236128  0.21510430  0.62136097  1
  Gd  Gd32  1  0.20827201  0.54748857  0.05262398  1
  Gd  Gd33  1  0.55922029  0.53804733  0.08538505  1
  Gd  Gd34  1  0.87324550  0.87350780  0.62251299  1
  Gd  Gd35  1  0.45980862  0.75390252  0.80013072  1
  N  N36  1  0.21716051  0.20513606  0.37608861  1
  N  N37  1  0.11676258  0.09631806  0.12554817  1
  N  N38  1  0.90084921  0.19442184  0.83725872  1
  N  N39  1  0.75397517  0.10886030  0.54509367  1
  N  N40  1  0.53280557  0.21285486  0.36516551  1
  N  N41  1  0.44214630  0.09730731  0.11973686  1
  N  N42  1  0.22790803  0.20498822  0.87241889  1
  N  N43  1  0.15273468  0.07094748  0.63294571  1
  N  N44  1  0.87709802  0.21271980  0.31623032  1
  N  N45  1  0.77988044  0.09372461  0.07625673  1
  N  N46  1  0.56067485  0.20230640  0.86994825  1
  N  N47  1  0.44971157  0.09073332  0.62153867  1
  N  N48  1  0.21119884  0.54599943  0.37414264  1
  N  N49  1  0.11450547  0.40573949  0.13629957  1
  N  N50  1  0.88483011  0.54132183  0.81168718  1
  N  N51  1  0.76297692  0.45500407  0.54686390  1
  N  N52  1  0.54047181  0.54606677  0.34691709  1
  N  N53  1  0.44533827  0.40000991  0.13460848  1
  N  N54  1  0.23200134  0.52918833  0.83739541  1
  N  N55  1  0.11243456  0.42156738  0.61208686  1
  N  N56  1  0.87851341  0.54479007  0.31485917  1
  N  N57  1  0.82119935  0.40717729  0.06410576  1
  N  N58  1  0.57701484  0.50365264  0.86553217  1
  N  N59  1  0.44880399  0.42478598  0.60924951  1
  N  N60  1  0.21014417  0.88316511  0.37298478  1
  N  N61  1  0.10360534  0.78954257  0.13888399  1
  N  N62  1  0.90057954  0.86476590  0.83980940  1
  N  N63  1  0.76235560  0.74528733  0.55096647  1
  N  N64  1  0.54108763  0.88571128  0.35962574  1
  N  N65  1  0.42606173  0.79862302  0.12702551  1
  N  N66  1  0.20878188  0.87437698  0.88563142  1
  N  N67  1  0.14264180  0.74948239  0.62159753  1
  N  N68  1  0.87244482  0.87905881  0.32471335  1
  N  N69  1  0.79197046  0.75109226  0.07664759  1
  N  N70  1  0.57101766  0.88707992  0.88232731  1
  N  N71  1  0.44630454  0.75829438  0.58610740  1
