# generated using pymatgen
data_Gd5Al31N36
_symmetry_space_group_name_H-M   'P 1'
_cell_length_a   9.69007123
_cell_length_b   9.69265260
_cell_length_c   10.31743480
_cell_angle_alpha   89.82693877
_cell_angle_beta   89.89734915
_cell_angle_gamma   59.97613865
_symmetry_Int_Tables_number   1
_chemical_formula_structural   Gd5Al31N36
_chemical_formula_sum   'Gd5 Al31 N36'
_cell_volume   839.00684575
_cell_formula_units_Z   1
loop_
 _symmetry_equiv_pos_site_id
 _symmetry_equiv_pos_as_xyz
  1  'x, y, z'
loop_
 _atom_site_type_symbol
 _atom_site_label
 _atom_site_symmetry_multiplicity
 _atom_site_fract_x
 _atom_site_fract_y
 _atom_site_fract_z
 _atom_site_occupancy
  Al  Al0  1  0.10986931  0.09720180  0.30130889  1
  Al  Al1  1  0.22335901  0.20151053  0.06330932  1
  Al  Al2  1  0.77187787  0.09693555  0.82152510  1
  Al  Al3  1  0.44324390  0.09808975  0.31015776  1
  Al  Al4  1  0.55529230  0.19935488  0.06000947  1
  Al  Al5  1  0.11593819  0.09182402  0.82008605  1
  Al  Al6  1  0.23199463  0.19788729  0.56325512  1
  Al  Al7  1  0.77373220  0.09641108  0.29593053  1
  Al  Al8  1  0.89498879  0.20168031  0.05857558  1
  Al  Al9  1  0.44790500  0.09826819  0.81377701  1
  Al  Al10  1  0.55111752  0.20423894  0.56049372  1
  Al  Al11  1  0.10712403  0.42528732  0.32121017  1
  Al  Al12  1  0.77796069  0.42495481  0.81166632  1
  Al  Al13  1  0.87999563  0.54288015  0.58396103  1
  Al  Al14  1  0.44515787  0.41961820  0.31985237  1
  Al  Al15  1  0.11321854  0.42288281  0.80454795  1
  Al  Al16  1  0.22732193  0.53644947  0.56175400  1
  Al  Al17  1  0.78349996  0.42467275  0.30727639  1
  Al  Al18  1  0.89400793  0.53265227  0.07804441  1
  Al  Al19  1  0.44868111  0.41960000  0.79537278  1
  Al  Al20  1  0.55522290  0.53822485  0.54530554  1
  Al  Al21  1  0.10579867  0.76936130  0.30756102  1
  Al  Al22  1  0.21375399  0.88615056  0.06722512  1
  Al  Al23  1  0.77747374  0.76111357  0.82354983  1
  Al  Al24  1  0.43912630  0.77240070  0.32015706  1
  Al  Al25  1  0.55219177  0.88406138  0.06826406  1
  Al  Al26  1  0.11471892  0.76095509  0.80929645  1
  Al  Al27  1  0.23029029  0.86912540  0.55015345  1
  Al  Al28  1  0.77684834  0.76189228  0.30357776  1
  Al  Al29  1  0.88780919  0.87645775  0.05984270  1
  Al  Al30  1  0.55330486  0.87488925  0.54968706  1
  Gd  Gd31  1  0.89833175  0.20162211  0.56493596  1
  Gd  Gd32  1  0.21790341  0.53668200  0.06022345  1
  Gd  Gd33  1  0.55361050  0.54248542  0.07226134  1
  Gd  Gd34  1  0.88676194  0.86524512  0.56490917  1
  Gd  Gd35  1  0.44412341  0.76924807  0.79366285  1
  N  N36  1  0.22231908  0.20174364  0.37505023  1
  N  N37  1  0.10987069  0.09957356  0.11654826  1
  N  N38  1  0.89197201  0.20423856  0.86597049  1
  N  N39  1  0.75034788  0.10753141  0.64016957  1
  N  N40  1  0.55938584  0.19910821  0.37404307  1
  N  N41  1  0.44219135  0.09917412  0.12396783  1
  N  N42  1  0.22580600  0.20573263  0.87358124  1
  N  N43  1  0.15292665  0.06932914  0.63641874  1
  N  N44  1  0.88758242  0.20230899  0.34693184  1
  N  N45  1  0.77519509  0.09599264  0.10746119  1
  N  N46  1  0.54998844  0.21029851  0.87307743  1
  N  N47  1  0.44714067  0.09176879  0.62204212  1
  N  N48  1  0.21728222  0.54311374  0.36972427  1
  N  N49  1  0.10379970  0.40854637  0.13611128  1
  N  N50  1  0.89265982  0.53456130  0.86345434  1
  N  N51  1  0.75936925  0.44968911  0.62568533  1
  N  N52  1  0.55732026  0.53643668  0.35589856  1
  N  N53  1  0.45581135  0.39588676  0.14092465  1
  N  N54  1  0.22586780  0.53359170  0.84107483  1
  N  N55  1  0.10935332  0.42462432  0.61569473  1
  N  N56  1  0.88379970  0.54342008  0.36673609  1
  N  N57  1  0.80358637  0.41132447  0.12366078  1
  N  N58  1  0.56190306  0.51625561  0.85587034  1
  N  N59  1  0.44749416  0.42412123  0.60618585  1
  N  N60  1  0.21175826  0.88133125  0.36663941  1
  N  N61  1  0.09823305  0.78900507  0.12636468  1
  N  N62  1  0.89374712  0.86790714  0.86724130  1
  N  N63  1  0.75116378  0.75490037  0.63835331  1
  N  N64  1  0.55937052  0.87847181  0.36493108  1
  N  N65  1  0.42564651  0.79904234  0.13280290  1
  N  N66  1  0.20106971  0.88040291  0.88437544  1
  N  N67  1  0.14363690  0.75043821  0.62523655  1
  N  N68  1  0.88296290  0.87681853  0.34712854  1
  N  N69  1  0.77975823  0.75862262  0.11632021  1
  N  N70  1  0.56653592  0.88939029  0.88561800  1
  N  N71  1  0.44848890  0.75823930  0.57410122  1
