# generated using pymatgen
data_Gd5Al31N36
_symmetry_space_group_name_H-M   'P 1'
_cell_length_a   9.69559440
_cell_length_b   9.70828477
_cell_length_c   10.59603947
_cell_angle_alpha   89.42574008
_cell_angle_beta   88.97550281
_cell_angle_gamma   60.06962734
_symmetry_Int_Tables_number   1
_chemical_formula_structural   Gd5Al31N36
_chemical_formula_sum   'Gd5 Al31 N36'
_cell_volume   864.22264467
_cell_formula_units_Z   1
loop_
 _symmetry_equiv_pos_site_id
 _symmetry_equiv_pos_as_xyz
  1  'x, y, z'
loop_
 _atom_site_type_symbol
 _atom_site_label
 _atom_site_symmetry_multiplicity
 _atom_site_fract_x
 _atom_site_fract_y
 _atom_site_fract_z
 _atom_site_occupancy
  Al  Al0  1  0.10712690  0.09627505  0.33323302  1
  Al  Al1  1  0.21792118  0.21380940  0.15306876  1
  Al  Al2  1  0.79574890  0.08214104  0.92013562  1
  Al  Al3  1  0.44246522  0.09877448  0.32862140  1
  Al  Al4  1  0.55222323  0.20085578  0.08469117  1
  Al  Al5  1  0.12231784  0.08061255  0.84291937  1
  Al  Al6  1  0.23148398  0.20101035  0.65989024  1
  Al  Al7  1  0.76488422  0.10137379  0.39473576  1
  Al  Al8  1  0.88788572  0.20324007  0.15496293  1
  Al  Al9  1  0.46389960  0.08863045  0.83631249  1
  Al  Al10  1  0.53678184  0.21135570  0.57297759  1
  Al  Al11  1  0.11002159  0.42980609  0.40909914  1
  Al  Al12  1  0.79851999  0.41004042  0.91451279  1
  Al  Al13  1  0.87855357  0.54031358  0.64851381  1
  Al  Al14  1  0.42917570  0.42680525  0.33651690  1
  Al  Al15  1  0.11024259  0.41444353  0.89457123  1
  Al  Al16  1  0.22800612  0.53120234  0.63575907  1
  Al  Al17  1  0.77899700  0.43267597  0.39219517  1
  Al  Al18  1  0.90104607  0.53132571  0.15542925  1
  Al  Al19  1  0.46634352  0.40785578  0.82761139  1
  Al  Al20  1  0.54191533  0.54596876  0.56007484  1
  Al  Al21  1  0.10694438  0.76833725  0.33967358  1
  Al  Al22  1  0.20894634  0.89349320  0.09309194  1
  Al  Al23  1  0.79459717  0.75328573  0.91924029  1
  Al  Al24  1  0.42812081  0.78117657  0.33603951  1
  Al  Al25  1  0.54884463  0.88565751  0.09017585  1
  Al  Al26  1  0.12038932  0.75991750  0.83416864  1
  Al  Al27  1  0.22838255  0.86878270  0.57756499  1
  Al  Al28  1  0.77525814  0.75491298  0.39464848  1
  Al  Al29  1  0.87670865  0.88205345  0.16479251  1
  Al  Al30  1  0.54292857  0.87612300  0.56590838  1
  Gd  Gd31  1  0.87946398  0.21585567  0.64632375  1
  Gd  Gd32  1  0.22082330  0.55523771  0.08091738  1
  Gd  Gd33  1  0.55985671  0.54125790  0.11773488  1
  Gd  Gd34  1  0.87498785  0.87043664  0.64546066  1
  Gd  Gd35  1  0.45713367  0.75354220  0.82558998  1
  N  N36  1  0.21327880  0.21800168  0.34341193  1
  N  N37  1  0.10980436  0.09934661  0.14944345  1
  N  N38  1  0.89769922  0.19586842  0.86354700  1
  N  N39  1  0.75490470  0.10666140  0.57129645  1
  N  N40  1  0.53343630  0.21414392  0.39346760  1
  N  N41  1  0.44805051  0.09556928  0.14626330  1
  N  N42  1  0.23147348  0.20088893  0.84522459  1
  N  N43  1  0.14657463  0.06600195  0.65593805  1
  N  N44  1  0.87495558  0.21274159  0.34278588  1
  N  N45  1  0.77958755  0.09312075  0.10137321  1
  N  N46  1  0.56198193  0.20010482  0.89773175  1
  N  N47  1  0.46003396  0.08269261  0.64785537  1
  N  N48  1  0.21201440  0.55020479  0.38233707  1
  N  N49  1  0.10352344  0.41402601  0.07728251  1
  N  N50  1  0.88695060  0.53691011  0.83799021  1
  N  N51  1  0.76384598  0.45535151  0.57053468  1
  N  N52  1  0.54213513  0.54673223  0.37190517  1
  N  N53  1  0.45214407  0.39560401  0.16128431  1
  N  N54  1  0.22866438  0.52759151  0.85458684  1
  N  N55  1  0.10946358  0.42092526  0.59816258  1
  N  N56  1  0.89272752  0.53748533  0.33652998  1
  N  N57  1  0.81699662  0.40865695  0.09388199  1
  N  N58  1  0.57354414  0.50541938  0.89660012  1
  N  N59  1  0.45503150  0.42001159  0.64137310  1
  N  N60  1  0.20864616  0.88418341  0.39849094  1
  N  N61  1  0.09779164  0.79786974  0.16238442  1
  N  N62  1  0.89639188  0.86597472  0.86416507  1
  N  N63  1  0.76525357  0.74091081  0.57511785  1
  N  N64  1  0.54294304  0.88421805  0.38568994  1
  N  N65  1  0.42151475  0.80326676  0.15433495  1
  N  N66  1  0.20704010  0.87409307  0.91303291  1
  N  N67  1  0.14384242  0.74996104  0.65356390  1
  N  N68  1  0.87108299  0.87978737  0.35015161  1
  N  N69  1  0.78848128  0.75260758  0.10307219  1
  N  N70  1  0.57019861  0.88376316  0.90850158  1
  N  N71  1  0.44613823  0.75710816  0.61125332  1
