# generated using pymatgen
data_Gd5Al31N36
_symmetry_space_group_name_H-M   'P 1'
_cell_length_a   9.70542717
_cell_length_b   9.73062299
_cell_length_c   10.52692101
_cell_angle_alpha   89.52512532
_cell_angle_beta   89.70421167
_cell_angle_gamma   59.76008035
_symmetry_Int_Tables_number   1
_chemical_formula_structural   Gd5Al31N36
_chemical_formula_sum   'Gd5 Al31 N36'
_cell_volume   858.84949637
_cell_formula_units_Z   1
loop_
 _symmetry_equiv_pos_site_id
 _symmetry_equiv_pos_as_xyz
  1  'x, y, z'
loop_
 _atom_site_type_symbol
 _atom_site_label
 _atom_site_symmetry_multiplicity
 _atom_site_fract_x
 _atom_site_fract_y
 _atom_site_fract_z
 _atom_site_occupancy
  Al  Al0  1  0.11068522  0.10260821  0.39367309  1
  Al  Al1  1  0.21495920  0.20425813  0.15018194  1
  Al  Al2  1  0.77910961  0.09458175  0.91793652  1
  Al  Al3  1  0.43972615  0.10004464  0.35136526  1
  Al  Al4  1  0.55979862  0.19474382  0.15138580  1
  Al  Al5  1  0.10767548  0.10413353  0.91423971  1
  Al  Al6  1  0.23097088  0.20089944  0.64993392  1
  Al  Al7  1  0.77170294  0.09819797  0.39314640  1
  Al  Al8  1  0.89788388  0.19687881  0.15511117  1
  Al  Al9  1  0.44723678  0.10289952  0.88628535  1
  Al  Al10  1  0.54917008  0.20812602  0.64585160  1
  Al  Al11  1  0.10870488  0.42603653  0.41481193  1
  Al  Al12  1  0.79054674  0.41943862  0.91549493  1
  Al  Al13  1  0.87983548  0.54435920  0.64905503  1
  Al  Al14  1  0.43840268  0.42021672  0.40856919  1
  Al  Al15  1  0.10864906  0.42523697  0.89260581  1
  Al  Al16  1  0.22701031  0.53854978  0.65096166  1
  Al  Al17  1  0.78496866  0.42848678  0.39281750  1
  Al  Al18  1  0.89555608  0.52882588  0.15319271  1
  Al  Al19  1  0.44992112  0.41465003  0.89587071  1
  Al  Al20  1  0.54898151  0.55115384  0.56441906  1
  Al  Al21  1  0.11013576  0.75682956  0.40305383  1
  Al  Al22  1  0.22030873  0.87918879  0.08796076  1
  Al  Al23  1  0.79080759  0.75670993  0.92029049  1
  Al  Al24  1  0.43316515  0.77707204  0.32843689  1
  Al  Al25  1  0.55403528  0.87787033  0.09425918  1
  Al  Al26  1  0.10631869  0.76350146  0.91180415  1
  Al  Al27  1  0.23439268  0.86964912  0.56456838  1
  Al  Al28  1  0.78224975  0.75408454  0.39105961  1
  Al  Al29  1  0.88847838  0.87366102  0.15717869  1
  Al  Al30  1  0.54513990  0.88080020  0.55997370  1
  Gd  Gd31  1  0.88719934  0.21162282  0.65290813  1
  Gd  Gd32  1  0.21296000  0.52768124  0.15471975  1
  Gd  Gd33  1  0.55561556  0.52596375  0.12859204  1
  Gd  Gd34  1  0.88129940  0.87050228  0.65460157  1
  Gd  Gd35  1  0.45388724  0.76016559  0.82684555  1
  N  N36  1  0.21292844  0.21741067  0.33604043  1
  N  N37  1  0.11020719  0.09854553  0.09949354  1
  N  N38  1  0.89177272  0.20277050  0.86848505  1
  N  N39  1  0.75080506  0.11016117  0.56961262  1
  N  N40  1  0.55276424  0.21291604  0.33436258  1
  N  N41  1  0.44055951  0.09520143  0.12729752  1
  N  N42  1  0.22471506  0.20221986  0.83953173  1
  N  N43  1  0.13604794  0.09155262  0.57663787  1
  N  N44  1  0.88823179  0.20649340  0.34161860  1
  N  N45  1  0.77789591  0.09300201  0.10257396  1
  N  N46  1  0.56533573  0.20000147  0.83369210  1
  N  N47  1  0.44475364  0.09780969  0.60064208  1
  N  N48  1  0.21933595  0.53440338  0.36879567  1
  N  N49  1  0.09634908  0.40819826  0.07194600  1
  N  N50  1  0.88289975  0.54382590  0.83846695  1
  N  N51  1  0.77021752  0.45222339  0.57303904  1
  N  N52  1  0.54798985  0.54311383  0.37104649  1
  N  N53  1  0.44585504  0.38600618  0.07132178  1
  N  N54  1  0.22107124  0.54101902  0.84143884  1
  N  N55  1  0.10776783  0.42811685  0.60001543  1
  N  N56  1  0.89665323  0.53489057  0.33676163  1
  N  N57  1  0.81025806  0.40792222  0.09771994  1
  N  N58  1  0.57185051  0.51344238  0.89381582  1
  N  N59  1  0.44508044  0.42728866  0.59198847  1
  N  N60  1  0.21790340  0.87534074  0.37899120  1
  N  N61  1  0.09907465  0.77899047  0.09631090  1
  N  N62  1  0.88828552  0.87374090  0.87017341  1
  N  N63  1  0.76853501  0.74615971  0.57328651  1
  N  N64  1  0.55088184  0.87756930  0.37571807  1
  N  N65  1  0.42920833  0.79058699  0.14755813  1
  N  N66  1  0.20738479  0.88315915  0.89962295  1
  N  N67  1  0.13332489  0.74975046  0.58616527  1
  N  N68  1  0.88861123  0.87146221  0.34375274  1
  N  N69  1  0.78930189  0.75020718  0.10570064  1
  N  N70  1  0.56909313  0.88727090  0.91140622  1
  N  N71  1  0.44663510  0.76387995  0.61023327  1
