# generated using pymatgen
data_Gd5Al31N36
_symmetry_space_group_name_H-M   'P 1'
_cell_length_a   9.71638080
_cell_length_b   9.69283052
_cell_length_c   10.38447714
_cell_angle_alpha   90.12128666
_cell_angle_beta   89.84323611
_cell_angle_gamma   60.22055203
_symmetry_Int_Tables_number   1
_chemical_formula_structural   Gd5Al31N36
_chemical_formula_sum   'Gd5 Al31 N36'
_cell_volume   848.84072820
_cell_formula_units_Z   1
loop_
 _symmetry_equiv_pos_site_id
 _symmetry_equiv_pos_as_xyz
  1  'x, y, z'
loop_
 _atom_site_type_symbol
 _atom_site_label
 _atom_site_symmetry_multiplicity
 _atom_site_fract_x
 _atom_site_fract_y
 _atom_site_fract_z
 _atom_site_occupancy
  Al  Al0  1  0.11765188  0.09549007  0.30891920  1
  Al  Al1  1  0.22396348  0.20108770  0.06168753  1
  Al  Al2  1  0.77282523  0.09476750  0.81596737  1
  Al  Al3  1  0.44115915  0.09944499  0.30826517  1
  Al  Al4  1  0.55590383  0.19884932  0.05930878  1
  Al  Al5  1  0.11964421  0.08838132  0.81383439  1
  Al  Al6  1  0.23059791  0.19996062  0.56185849  1
  Al  Al7  1  0.76579742  0.09716155  0.30248574  1
  Al  Al8  1  0.89579199  0.20307770  0.12587419  1
  Al  Al9  1  0.44847237  0.09693004  0.81175641  1
  Al  Al10  1  0.54692709  0.20410696  0.55985939  1
  Al  Al11  1  0.11234054  0.42467510  0.31824180  1
  Al  Al12  1  0.80022398  0.40662374  0.88070409  1
  Al  Al13  1  0.87359821  0.53839703  0.63483456  1
  Al  Al14  1  0.43874872  0.42178370  0.31731994  1
  Al  Al15  1  0.12060068  0.41829240  0.80094373  1
  Al  Al16  1  0.22648602  0.53592324  0.56413430  1
  Al  Al17  1  0.77668951  0.43993811  0.36915175  1
  Al  Al18  1  0.89484123  0.53139629  0.12869408  1
  Al  Al19  1  0.45573156  0.41753136  0.79817752  1
  Al  Al20  1  0.54330682  0.54468669  0.53924252  1
  Al  Al21  1  0.10331031  0.77189618  0.30775044  1
  Al  Al22  1  0.21281929  0.88781406  0.06576090  1
  Al  Al23  1  0.77592576  0.76355851  0.82504162  1
  Al  Al24  1  0.43361955  0.77724259  0.31522510  1
  Al  Al25  1  0.55177983  0.88499673  0.06543080  1
  Al  Al26  1  0.11603813  0.76112129  0.80867434  1
  Al  Al27  1  0.23048603  0.86854306  0.55269885  1
  Al  Al28  1  0.76918817  0.77265502  0.29816012  1
  Al  Al29  1  0.88726272  0.87967726  0.05906208  1
  Al  Al30  1  0.54950188  0.87535693  0.55116805  1
  Gd  Gd31  1  0.89373286  0.20025469  0.58698850  1
  Gd  Gd32  1  0.21773169  0.53972175  0.05686171  1
  Gd  Gd33  1  0.55999130  0.53816075  0.08714570  1
  Gd  Gd34  1  0.88751304  0.85547325  0.56507175  1
  Gd  Gd35  1  0.45223333  0.75825649  0.79906972  1
  N  N36  1  0.22301197  0.20491109  0.37526039  1
  N  N37  1  0.11693989  0.09651846  0.12510146  1
  N  N38  1  0.89673703  0.19767264  0.82245284  1
  N  N39  1  0.74432965  0.09744185  0.63457701  1
  N  N40  1  0.55347468  0.20332775  0.37435573  1
  N  N41  1  0.44279873  0.09842984  0.12316911  1
  N  N42  1  0.22670823  0.20408306  0.87265520  1
  N  N43  1  0.15549371  0.06929835  0.62974751  1
  N  N44  1  0.88361978  0.21236589  0.32751182  1
  N  N45  1  0.77275058  0.09706605  0.11451298  1
  N  N46  1  0.55303066  0.20736286  0.87269077  1
  N  N47  1  0.44325733  0.09363619  0.62145348  1
  N  N48  1  0.21433218  0.54609368  0.37129520  1
  N  N49  1  0.11316311  0.40542649  0.13400927  1
  N  N50  1  0.89326572  0.53006920  0.82347203  1
  N  N51  1  0.76305480  0.45601294  0.55107212  1
  N  N52  1  0.54514145  0.54479483  0.34779121  1
  N  N53  1  0.45235685  0.39518526  0.13983222  1
  N  N54  1  0.22954503  0.53227417  0.83948413  1
  N  N55  1  0.10960581  0.42473213  0.61275196  1
  N  N56  1  0.88195877  0.54710510  0.31720408  1
  N  N57  1  0.81886648  0.40555440  0.06402667  1
  N  N58  1  0.57342090  0.50788045  0.86420222  1
  N  N59  1  0.44797629  0.42473632  0.60763138  1
  N  N60  1  0.21104853  0.88160198  0.36938681  1
  N  N61  1  0.09609184  0.79212575  0.12753023  1
  N  N62  1  0.89529508  0.86715587  0.86782321  1
  N  N63  1  0.74292142  0.75799496  0.63992593  1
  N  N64  1  0.55522246  0.88018970  0.36512993  1
  N  N65  1  0.42510143  0.79975326  0.12930156  1
  N  N66  1  0.20377016  0.87989634  0.88353511  1
  N  N67  1  0.14268558  0.75046502  0.62615189  1
  N  N68  1  0.88018727  0.87901964  0.34916838  1
  N  N69  1  0.77739239  0.76369768  0.11128628  1
  N  N70  1  0.56590415  0.88983317  0.88470688  1
  N  N71  1  0.44595317  0.75819809  0.58003346  1
