# generated using pymatgen
data_Gd5Al31N36
_symmetry_space_group_name_H-M   'P 1'
_cell_length_a   9.71607372
_cell_length_b   9.74158505
_cell_length_c   10.54476832
_cell_angle_alpha   89.65342482
_cell_angle_beta   89.61207416
_cell_angle_gamma   60.10095363
_symmetry_Int_Tables_number   1
_chemical_formula_structural   Gd5Al31N36
_chemical_formula_sum   'Gd5 Al31 N36'
_cell_volume   865.20093663
_cell_formula_units_Z   1
loop_
 _symmetry_equiv_pos_site_id
 _symmetry_equiv_pos_as_xyz
  1  'x, y, z'
loop_
 _atom_site_type_symbol
 _atom_site_label
 _atom_site_symmetry_multiplicity
 _atom_site_fract_x
 _atom_site_fract_y
 _atom_site_fract_z
 _atom_site_occupancy
  Al  Al0  1  0.11133430  0.10091455  0.39868846  1
  Al  Al1  1  0.21554202  0.20871534  0.15244475  1
  Al  Al2  1  0.78321828  0.08699833  0.91694525  1
  Al  Al3  1  0.44088953  0.09338108  0.32935154  1
  Al  Al4  1  0.56289436  0.19530102  0.15469201  1
  Al  Al5  1  0.11022050  0.09847488  0.91639825  1
  Al  Al6  1  0.22554441  0.20220864  0.65029814  1
  Al  Al7  1  0.76619231  0.10277450  0.39639919  1
  Al  Al8  1  0.89983092  0.19505211  0.15553275  1
  Al  Al9  1  0.45622702  0.08561648  0.83262584  1
  Al  Al10  1  0.55075563  0.21352289  0.64610984  1
  Al  Al11  1  0.11085331  0.43131025  0.40543645  1
  Al  Al12  1  0.79744113  0.41160478  0.91709273  1
  Al  Al13  1  0.87955724  0.54055463  0.64775451  1
  Al  Al14  1  0.43207575  0.42833534  0.36335525  1
  Al  Al15  1  0.10885902  0.41388098  0.89397347  1
  Al  Al16  1  0.23215223  0.53025543  0.65573747  1
  Al  Al17  1  0.78543697  0.42617785  0.39201928  1
  Al  Al18  1  0.89900931  0.52865748  0.15507502  1
  Al  Al19  1  0.45969952  0.40787475  0.89009893  1
  Al  Al20  1  0.54515622  0.54455983  0.56028324  1
  Al  Al21  1  0.10563539  0.77080462  0.33507193  1
  Al  Al22  1  0.21459010  0.88602443  0.09545001  1
  Al  Al23  1  0.79338597  0.75409321  0.91665292  1
  Al  Al24  1  0.43075568  0.77909295  0.33409000  1
  Al  Al25  1  0.54827037  0.88658554  0.08830148  1
  Al  Al26  1  0.11676968  0.76543208  0.83862741  1
  Al  Al27  1  0.23216201  0.86283740  0.57183252  1
  Al  Al28  1  0.77568005  0.75364149  0.39551207  1
  Al  Al29  1  0.87350170  0.88405084  0.16370090  1
  Al  Al30  1  0.54219198  0.87771741  0.56647906  1
  Gd  Gd31  1  0.88755973  0.21212095  0.65493043  1
  Gd  Gd32  1  0.20304304  0.55677770  0.10495048  1
  Gd  Gd33  1  0.56141452  0.54165055  0.12161320  1
  Gd  Gd34  1  0.87719795  0.87148460  0.63998933  1
  Gd  Gd35  1  0.45359093  0.75370050  0.82576258  1
  N  N36  1  0.21249186  0.21599469  0.33979816  1
  N  N37  1  0.11127405  0.10387201  0.09836028  1
  N  N38  1  0.89543724  0.19607152  0.86976826  1
  N  N39  1  0.74856339  0.11563344  0.57154276  1
  N  N40  1  0.55308529  0.20804832  0.33916058  1
  N  N41  1  0.44413884  0.09328846  0.14492004  1
  N  N42  1  0.22086904  0.19809171  0.83740547  1
  N  N43  1  0.13752928  0.08767140  0.57997573  1
  N  N44  1  0.88953659  0.20356235  0.34231460  1
  N  N45  1  0.77585647  0.09359514  0.09988059  1
  N  N46  1  0.57149728  0.19656111  0.83767351  1
  N  N47  1  0.45324020  0.08271501  0.64443022  1
  N  N48  1  0.21146341  0.54439667  0.34702025  1
  N  N49  1  0.09867601  0.40839997  0.07493468  1
  N  N50  1  0.88661417  0.53675118  0.83777659  1
  N  N51  1  0.76784126  0.44957646  0.57163273  1
  N  N52  1  0.54831333  0.54321174  0.36696776  1
  N  N53  1  0.45184129  0.39796896  0.10496804  1
  N  N54  1  0.22849080  0.52683154  0.85564010  1
  N  N55  1  0.11016485  0.42870525  0.59587304  1
  N  N56  1  0.89283299  0.53700629  0.33735546  1
  N  N57  1  0.81641848  0.40498961  0.09835822  1
  N  N58  1  0.57726650  0.50907700  0.89611815  1
  N  N59  1  0.44295978  0.42847096  0.60322923  1
  N  N60  1  0.21680325  0.87090425  0.39188683  1
  N  N61  1  0.08905103  0.81065739  0.15994375  1
  N  N62  1  0.89301090  0.86788288  0.86161635  1
  N  N63  1  0.76425238  0.74145657  0.57666410  1
  N  N64  1  0.54430774  0.88211992  0.38592728  1
  N  N65  1  0.42307325  0.80368494  0.15423390  1
  N  N66  1  0.20889280  0.87238720  0.91252311  1
  N  N67  1  0.14442812  0.75312736  0.65631955  1
  N  N68  1  0.87310331  0.87794986  0.35373910  1
  N  N69  1  0.78952078  0.75081198  0.10243324  1
  N  N70  1  0.56849748  0.88521704  0.90749567  1
  N  N71  1  0.44710804  0.75749870  0.61042409  1
