# generated using pymatgen
data_Gd5Al31N36
_symmetry_space_group_name_H-M   'P 1'
_cell_length_a   9.68817796
_cell_length_b   9.71002995
_cell_length_c   10.54542765
_cell_angle_alpha   89.48474297
_cell_angle_beta   89.09824591
_cell_angle_gamma   60.00438892
_symmetry_Int_Tables_number   1
_chemical_formula_structural   Gd5Al31N36
_chemical_formula_sum   'Gd5 Al31 N36'
_cell_volume   859.05813332
_cell_formula_units_Z   1
loop_
 _symmetry_equiv_pos_site_id
 _symmetry_equiv_pos_as_xyz
  1  'x, y, z'
loop_
 _atom_site_type_symbol
 _atom_site_label
 _atom_site_symmetry_multiplicity
 _atom_site_fract_x
 _atom_site_fract_y
 _atom_site_fract_z
 _atom_site_occupancy
  Al  Al0  1  0.11227857  0.09833029  0.31857785  1
  Al  Al1  1  0.22487890  0.19698988  0.06327216  1
  Al  Al2  1  0.79544508  0.08189952  0.90306643  1
  Al  Al3  1  0.43430138  0.10187077  0.31158717  1
  Al  Al4  1  0.54983544  0.20157747  0.06796448  1
  Al  Al5  1  0.12716526  0.08014388  0.82545634  1
  Al  Al6  1  0.23157004  0.19514438  0.57243534  1
  Al  Al7  1  0.76480982  0.10161357  0.37938780  1
  Al  Al8  1  0.88990341  0.20249843  0.13966355  1
  Al  Al9  1  0.45693590  0.09081441  0.81852168  1
  Al  Al10  1  0.53594249  0.21267030  0.55790944  1
  Al  Al11  1  0.10211670  0.43336325  0.39479103  1
  Al  Al12  1  0.79973864  0.40865471  0.89736463  1
  Al  Al13  1  0.87876547  0.54195898  0.63284772  1
  Al  Al14  1  0.43367266  0.42491420  0.32210430  1
  Al  Al15  1  0.11112364  0.41917762  0.87317981  1
  Al  Al16  1  0.22796699  0.54018975  0.57596994  1
  Al  Al17  1  0.77923025  0.43155898  0.37559582  1
  Al  Al18  1  0.89998520  0.53048369  0.13837574  1
  Al  Al19  1  0.45922782  0.41131394  0.80847909  1
  Al  Al20  1  0.54371480  0.54661195  0.54515388  1
  Al  Al21  1  0.10624829  0.77295963  0.32762839  1
  Al  Al22  1  0.20919150  0.89236042  0.07759448  1
  Al  Al23  1  0.79578403  0.75335603  0.90336086  1
  Al  Al24  1  0.42978229  0.77994269  0.31902218  1
  Al  Al25  1  0.55039627  0.88489179  0.07459593  1
  Al  Al26  1  0.12501005  0.75322204  0.81634301  1
  Al  Al27  1  0.22906072  0.87115127  0.56315340  1
  Al  Al28  1  0.77396098  0.75634901  0.37820604  1
  Al  Al29  1  0.87667931  0.88277398  0.14980524  1
  Al  Al30  1  0.54281077  0.87731380  0.54976395  1
  Gd  Gd31  1  0.88042322  0.21647533  0.63148818  1
  Gd  Gd32  1  0.21657980  0.55581484  0.06799887  1
  Gd  Gd33  1  0.55723707  0.53969722  0.09710717  1
  Gd  Gd34  1  0.87461670  0.87119221  0.63069625  1
  Gd  Gd35  1  0.45855581  0.75320209  0.81073415  1
  N  N36  1  0.21907990  0.20363574  0.38389569  1
  N  N37  1  0.11493965  0.10117360  0.13592065  1
  N  N38  1  0.90073842  0.19362672  0.84805052  1
  N  N39  1  0.75385211  0.10828890  0.55691851  1
  N  N40  1  0.53307722  0.21226561  0.37663195  1
  N  N41  1  0.44006321  0.09880008  0.12897371  1
  N  N42  1  0.23650825  0.18801235  0.87660404  1
  N  N43  1  0.15017577  0.07086738  0.64119675  1
  N  N44  1  0.87758508  0.21123402  0.32710549  1
  N  N45  1  0.77856015  0.09375674  0.08581187  1
  N  N46  1  0.56023064  0.20047086  0.87902141  1
  N  N47  1  0.45047415  0.08902806  0.63012950  1
  N  N48  1  0.21504716  0.55116031  0.38288835  1
  N  N49  1  0.09857020  0.41857215  0.06087416  1
  N  N50  1  0.88717231  0.53663562  0.82128909  1
  N  N51  1  0.76535124  0.45535126  0.55438438  1
  N  N52  1  0.54324300  0.54636292  0.35570182  1
  N  N53  1  0.44963895  0.39557303  0.14741788  1
  N  N54  1  0.23165587  0.52819850  0.85014424  1
  N  N55  1  0.10401000  0.42947148  0.58191782  1
  N  N56  1  0.89334832  0.53697940  0.31981727  1
  N  N57  1  0.81503830  0.40827092  0.07828079  1
  N  N58  1  0.57539406  0.50275418  0.87626806  1
  N  N59  1  0.45033241  0.42449702  0.61997805  1
  N  N60  1  0.21071802  0.88470850  0.38313605  1
  N  N61  1  0.09796893  0.79919989  0.15053585  1
  N  N62  1  0.89938221  0.86393599  0.84881347  1
  N  N63  1  0.76395389  0.74273433  0.55910288  1
  N  N64  1  0.54319439  0.88448693  0.36760742  1
  N  N65  1  0.42319612  0.80117197  0.13671994  1
  N  N66  1  0.20726424  0.87252678  0.89624617  1
  N  N67  1  0.14384535  0.75043150  0.63362453  1
  N  N68  1  0.87204006  0.87941905  0.33649950  1
  N  N69  1  0.78828557  0.75349398  0.08867292  1
  N  N70  1  0.57221432  0.88395999  0.89153480  1
  N  N71  1  0.44698623  0.75813990  0.59582702  1
