# generated using pymatgen
data_Zn2SbN3
_symmetry_space_group_name_H-M   'P 1'
_cell_length_a   10.21162618
_cell_length_b   5.85814112
_cell_length_c   5.50476414
_cell_angle_alpha   90.13443536
_cell_angle_beta   90.00007134
_cell_angle_gamma   90.00010356
_symmetry_Int_Tables_number   1
_chemical_formula_structural   Zn2SbN3
_chemical_formula_sum   'Zn8 Sb4 N12'
_cell_volume   329.30039961
_cell_formula_units_Z   4
loop_
 _symmetry_equiv_pos_site_id
 _symmetry_equiv_pos_as_xyz
  1  'x, y, z'
loop_
 _atom_site_type_symbol
 _atom_site_label
 _atom_site_symmetry_multiplicity
 _atom_site_fract_x
 _atom_site_fract_y
 _atom_site_fract_z
 _atom_site_occupancy
  Zn  Zn0  1  0.82163788  -0.63798254  -0.05342980  1
  Zn  Zn1  1  0.18550771  -0.63798141  -0.05342831  1
  Zn  Zn2  1  0.33387197  -0.13865855  -0.04104455  1
  Zn  Zn3  1  0.67327174  -0.13865869  -0.04104436  1
  Zn  Zn4  1  0.82707484  -0.31552550  -0.55382188  1
  Zn  Zn5  1  0.18006602  -0.31552613  -0.55382210  1
  Zn  Zn6  1  0.67509599  -0.81744531  -0.54361412  1
  Zn  Zn7  1  0.33204572  -0.81744815  -0.54361390  1
  Sb  Sb8  1  0.00357167  -0.15980481  -0.13872980  1
  Sb  Sb9  1  0.00357133  -0.80453370  -0.67344859  1
  Sb  Sb10  1  0.50357204  -0.65496876  -0.05444196  1
  Sb  Sb11  1  0.50357081  -0.30140500  -0.55466376  1
  N  N12  1  0.00357205  -0.82064090  -0.06109174  1
  N  N13  1  0.00357081  -0.14218442  -0.59381493  1
  N  N14  1  0.17596951  -0.31348491  -0.16724674  1
  N  N15  1  0.83117355  -0.31348510  -0.16724656  1
  N  N16  1  0.17557181  -0.64121360  -0.66634949  1
  N  N17  1  0.83157129  -0.64121316  -0.66634996  1
  N  N18  1  0.66482012  -0.81348246  -0.17101623  1
  N  N19  1  0.34232367  -0.81348286  -0.17101648  1
  N  N20  1  0.66584390  -0.14479420  -0.66890018  1
  N  N21  1  0.34129754  -0.14479568  -0.66890050  1
  N  N22  1  0.50357139  -0.32104504  -0.17774891  1
  N  N23  1  0.50357103  -0.63595288  -0.67796009  1
