# generated using pymatgen
data_Zn2SbN3
_symmetry_space_group_name_H-M   'P 1'
_cell_length_a   10.20116262
_cell_length_b   5.85874264
_cell_length_c   5.49900357
_cell_angle_alpha   90.14174045
_cell_angle_beta   90.00008287
_cell_angle_gamma   90.00008293
_symmetry_Int_Tables_number   1
_chemical_formula_structural   Zn2SbN3
_chemical_formula_sum   'Zn8 Sb4 N12'
_cell_volume   328.65236747
_cell_formula_units_Z   4
loop_
 _symmetry_equiv_pos_site_id
 _symmetry_equiv_pos_as_xyz
  1  'x, y, z'
loop_
 _atom_site_type_symbol
 _atom_site_label
 _atom_site_symmetry_multiplicity
 _atom_site_fract_x
 _atom_site_fract_y
 _atom_site_fract_z
 _atom_site_occupancy
  Zn  Zn0  1  -0.82199944  0.63821854  0.05526687  1
  Zn  Zn1  1  -0.18514600  0.63821750  0.05526510  1
  Zn  Zn2  1  -0.33372805  0.13883115  0.04130872  1
  Zn  Zn3  1  -0.67341572  0.13883119  0.04130841  1
  Zn  Zn4  1  -0.82896710  0.31380355  0.55031468  1
  Zn  Zn5  1  -0.17817395  0.31380472  0.55031454  1
  Zn  Zn6  1  -0.67499857  0.81762035  0.54372263  1
  Zn  Zn7  1  -0.33214341  0.81762314  0.54372257  1
  Sb  Sb8  1  -0.00357166  0.16591744  0.08471994  1
  Sb  Sb9  1  -0.00357127  0.80157153  0.67278677  1
  Sb  Sb10  1  -0.50357200  0.65486335  0.05439849  1
  Sb  Sb11  1  -0.50357084  0.30130843  0.55491835  1
  N  N12  1  -0.00357203  0.81830700  0.06557681  1
  N  N13  1  -0.00357077  0.14944471  0.64202301  1
  N  N14  1  -0.17416244  0.31130895  0.16991364  1
  N  N15  1  -0.83298049  0.31130912  0.16991351  1
  N  N16  1  -0.17593449  0.64042532  0.66603739  1
  N  N17  1  -0.83120848  0.64042459  0.66603789  1
  N  N18  1  -0.66482065  0.81340647  0.17103571  1
  N  N19  1  -0.34232312  0.81340683  0.17103597  1
  N  N20  1  -0.66620173  0.14507407  0.66877384  1
  N  N21  1  -0.34093971  0.14507564  0.66877417  1
  N  N22  1  -0.50357140  0.32097346  0.17771596  1
  N  N23  1  -0.50357104  0.63594672  0.67785996  1
