# generated using pymatgen
data_Zn2SbN3
_symmetry_space_group_name_H-M   'P 1'
_cell_length_a   10.10177585
_cell_length_b   5.82118823
_cell_length_c   5.46633402
_cell_angle_alpha   90.00009158
_cell_angle_beta   89.99999615
_cell_angle_gamma   89.99999768
_symmetry_Int_Tables_number   1
_chemical_formula_structural   Zn2SbN3
_chemical_formula_sum   'Zn8 Sb4 N12'
_cell_volume   321.44415702
_cell_formula_units_Z   4
loop_
 _symmetry_equiv_pos_site_id
 _symmetry_equiv_pos_as_xyz
  1  'x, y, z'
loop_
 _atom_site_type_symbol
 _atom_site_label
 _atom_site_symmetry_multiplicity
 _atom_site_fract_x
 _atom_site_fract_y
 _atom_site_fract_z
 _atom_site_occupancy
  Zn  Zn0  1  -0.83153892  0.64122148  0.07247691  1
  Zn  Zn1  1  -0.17560401  0.64122155  0.07247681  1
  Zn  Zn2  1  -0.33153884  0.14122153  0.07247682  1
  Zn  Zn3  1  -0.67560389  0.14122144  0.07247690  1
  Zn  Zn4  1  -0.83153857  0.31592005  0.57247644  1
  Zn  Zn5  1  -0.17560438  0.31592021  0.57247646  1
  Zn  Zn6  1  -0.67560432  0.81592005  0.57247628  1
  Zn  Zn7  1  -0.33153852  0.81592009  0.57247656  1
  Sb  Sb8  1  -0.00357140  0.15668014  0.08387528  1
  Sb  Sb9  1  -0.00357149  0.80046344  0.58387529  1
  Sb  Sb10  1  -0.50357149  0.65668004  0.08387525  1
  Sb  Sb11  1  -0.50357138  0.30046331  0.58387527  1
  N  N12  1  -0.00357136  0.82009978  0.20554114  1
  N  N13  1  -0.00357163  0.13704421  0.70554109  1
  N  N14  1  -0.16861855  0.31106021  0.19750168  1
  N  N15  1  -0.83852408  0.31106033  0.19750095  1
  N  N16  1  -0.16861856  0.64608282  0.69750109  1
  N  N17  1  -0.83852447  0.64608304  0.69750174  1
  N  N18  1  -0.66861875  0.81106032  0.19750089  1
  N  N19  1  -0.33852435  0.81106017  0.19750171  1
  N  N20  1  -0.66861844  0.14608294  0.69750177  1
  N  N21  1  -0.33852433  0.14608281  0.69750106  1
  N  N22  1  -0.50357154  0.32009969  0.20554112  1
  N  N23  1  -0.50357132  0.63704409  0.70554106  1
