# generated using pymatgen
data_Zn2SbN3
_symmetry_space_group_name_H-M   'P 1'
_cell_length_a   5.51245152
_cell_length_b   5.87581266
_cell_length_c   10.20185918
_cell_angle_alpha   90.13638017
_cell_angle_beta   89.68680411
_cell_angle_gamma   89.84554812
_symmetry_Int_Tables_number   1
_chemical_formula_structural   Zn2SbN3
_chemical_formula_sum   'Zn8 Sb4 N12'
_cell_volume   330.43248460
_cell_formula_units_Z   4
loop_
 _symmetry_equiv_pos_site_id
 _symmetry_equiv_pos_as_xyz
  1  'x, y, z'
loop_
 _atom_site_type_symbol
 _atom_site_label
 _atom_site_symmetry_multiplicity
 _atom_site_fract_x
 _atom_site_fract_y
 _atom_site_fract_z
 _atom_site_occupancy
  Zn  Zn0  1  0.08627607  0.64128195  0.82675351  1
  Zn  Zn1  1  0.04929841  0.63438960  0.18591499  1
  Zn  Zn2  1  0.04255071  0.13822815  0.33314699  1
  Zn  Zn3  1  0.04136924  0.14098541  0.67413953  1
  Zn  Zn4  1  0.55701527  0.31678428  0.82349965  1
  Zn  Zn5  1  0.55235874  0.32101462  0.18464946  1
  Zn  Zn6  1  0.54461600  0.82074379  0.67252054  1
  Zn  Zn7  1  0.54223104  0.81876401  0.33180564  1
  Sb  Sb8  1  0.17423804  0.15232647  0.00409283  1
  Sb  Sb9  1  0.67347114  0.80098313  0.00213744  1
  Sb  Sb10  1  0.05399272  0.65582741  0.50391326  1
  Sb  Sb11  1  0.55436839  0.30325387  0.50315768  1
  N  N12  1  0.05207595  0.82539335  0.00249426  1
  N  N13  1  0.55224648  0.12843865  0.00377501  1
  N  N14  1  0.16706548  0.31371570  0.17639018  1
  N  N15  1  0.16247424  0.31227094  0.83228098  1
  N  N16  1  0.66743246  0.64187635  0.17508414  1
  N  N17  1  0.64451990  0.64311748  0.83186816  1
  N  N18  1  0.17003622  0.81613363  0.66433344  1
  N  N19  1  0.17017705  0.81252455  0.34176542  1
  N  N20  1  0.67040643  0.14489419  0.66402884  1
  N  N21  1  0.67033565  0.14395996  0.34138086  1
  N  N22  1  0.17803180  0.32254648  0.50379565  1
  N  N23  1  0.67786842  0.63625975  0.50278591  1
