# generated using pymatgen
data_Zn2SbN3
_symmetry_space_group_name_H-M   'P 1'
_cell_length_a   5.50859902
_cell_length_b   5.85852808
_cell_length_c   10.21741186
_cell_angle_alpha   89.99933206
_cell_angle_beta   90.00140530
_cell_angle_gamma   90.10115381
_symmetry_Int_Tables_number   1
_chemical_formula_structural   Zn2SbN3
_chemical_formula_sum   'Zn8 Sb4 N12'
_cell_volume   329.73868291
_cell_formula_units_Z   4
loop_
 _symmetry_equiv_pos_site_id
 _symmetry_equiv_pos_as_xyz
  1  'x, y, z'
loop_
 _atom_site_type_symbol
 _atom_site_label
 _atom_site_symmetry_multiplicity
 _atom_site_fract_x
 _atom_site_fract_y
 _atom_site_fract_z
 _atom_site_occupancy
  Zn  Zn0  1  0.05288844  0.63663724  0.82163507  1
  Zn  Zn1  1  0.05298664  0.63666561  0.18548878  1
  Zn  Zn2  1  0.04194532  0.13892378  0.33320061  1
  Zn  Zn3  1  0.04194798  0.13890869  0.67394070  1
  Zn  Zn4  1  0.55422138  0.31913573  0.82370174  1
  Zn  Zn5  1  0.55424081  0.31912460  0.18343579  1
  Zn  Zn6  1  0.54318552  0.81754817  0.67482287  1
  Zn  Zn7  1  0.54319722  0.81755570  0.33232983  1
  Sb  Sb8  1  0.17199062  0.15489102  0.00356885  1
  Sb  Sb9  1  0.67567897  0.80449218  0.00357734  1
  Sb  Sb10  1  0.05488987  0.65512580  0.50356899  1
  Sb  Sb11  1  0.55459780  0.30149160  0.50357272  1
  N  N12  1  0.05573201  0.82514683  0.00357344  1
  N  N13  1  0.55931284  0.13433221  0.00357066  1
  N  N14  1  0.16695046  0.31420120  0.17604525  1
  N  N15  1  0.16695918  0.31420294  0.83108969  1
  N  N16  1  0.66692967  0.64249498  0.17546625  1
  N  N17  1  0.66695333  0.64249281  0.83168512  1
  N  N18  1  0.17097530  0.81338023  0.66494084  1
  N  N19  1  0.17098035  0.81339764  0.34220487  1
  N  N20  1  0.66993753  0.14431432  0.66543229  1
  N  N21  1  0.66993982  0.14431963  0.34171748  1
  N  N22  1  0.17806700  0.32107212  0.50356982  1
  N  N23  1  0.67830648  0.63585887  0.50357536  1
