# generated using pymatgen
data_Zn2SbN3
_symmetry_space_group_name_H-M   'P 1'
_cell_length_a   5.47017549
_cell_length_b   5.82158354
_cell_length_c   10.10372521
_cell_angle_alpha   90.00000124
_cell_angle_beta   89.99978266
_cell_angle_gamma   89.99995607
_symmetry_Int_Tables_number   1
_chemical_formula_structural   Zn2SbN3
_chemical_formula_sum   'Zn8 Sb4 N12'
_cell_volume   321.75397443
_cell_formula_units_Z   4
loop_
 _symmetry_equiv_pos_site_id
 _symmetry_equiv_pos_as_xyz
  1  'x, y, z'
loop_
 _atom_site_type_symbol
 _atom_site_label
 _atom_site_symmetry_multiplicity
 _atom_site_fract_x
 _atom_site_fract_y
 _atom_site_fract_z
 _atom_site_occupancy
  Zn  Zn0  1  0.06465998  0.64118142  0.83151978  1
  Zn  Zn1  1  0.06465874  0.64118093  0.17562461  1
  Zn  Zn2  1  0.06465988  0.14118143  0.33151969  1
  Zn  Zn3  1  0.06465874  0.14118093  0.67562461  1
  Zn  Zn4  1  0.56465986  0.31596056  0.83152040  1
  Zn  Zn5  1  0.56465889  0.31596174  0.17562516  1
  Zn  Zn6  1  0.56465887  0.81596172  0.67562519  1
  Zn  Zn7  1  0.56465995  0.81596058  0.33152047  1
  Sb  Sb8  1  0.07597660  0.15664171  0.00357092  1
  Sb  Sb9  1  0.57597675  0.80050152  0.00357121  1
  Sb  Sb10  1  0.07597657  0.65664171  0.50357092  1
  Sb  Sb11  1  0.57597672  0.30050152  0.50357121  1
  N  N12  1  0.19787738  0.82021735  0.00357048  1
  N  N13  1  0.69787725  0.13692596  0.00357085  1
  N  N14  1  0.18967336  0.31101671  0.16855973  1
  N  N15  1  0.18967423  0.31101724  0.83858185  1
  N  N16  1  0.68967349  0.64612636  0.16856003  1
  N  N17  1  0.68967444  0.64612540  0.83858225  1
  N  N18  1  0.18967335  0.81101671  0.66855973  1
  N  N19  1  0.18967423  0.81101724  0.33858185  1
  N  N20  1  0.68967350  0.14612635  0.66856002  1
  N  N21  1  0.68967443  0.14612538  0.33858225  1
  N  N22  1  0.19787739  0.32021737  0.50357047  1
  N  N23  1  0.69787722  0.63692597  0.50357085  1
