# generated using pymatgen
data_Zn2SbN3
_symmetry_space_group_name_H-M   'P 1'
_cell_length_a   10.18074671
_cell_length_b   5.87935323
_cell_length_c   5.52398422
_cell_angle_alpha   89.81615856
_cell_angle_beta   90.39926200
_cell_angle_gamma   89.90543524
_symmetry_Int_Tables_number   1
_chemical_formula_structural   Zn2SbN3
_chemical_formula_sum   'Zn8 Sb4 N12'
_cell_volume   330.63454569
_cell_formula_units_Z   4
loop_
 _symmetry_equiv_pos_site_id
 _symmetry_equiv_pos_as_xyz
  1  'x, y, z'
loop_
 _atom_site_type_symbol
 _atom_site_label
 _atom_site_symmetry_multiplicity
 _atom_site_fract_x
 _atom_site_fract_y
 _atom_site_fract_z
 _atom_site_occupancy
  Zn  Zn0  1  -0.83539290  0.64502668  0.17280585  1
  Zn  Zn1  1  -0.18537856  0.63220779  0.04811275  1
  Zn  Zn2  1  -0.33245140  0.13704592  0.04266089  1
  Zn  Zn3  1  -0.67257548  0.13856087  0.04405254  1
  Zn  Zn4  1  -0.82857075  0.31345031  0.60249129  1
  Zn  Zn5  1  -0.18386800  0.32205901  0.55055005  1
  Zn  Zn6  1  -0.66781906  0.82287270  0.54760333  1
  Zn  Zn7  1  -0.33070103  0.81926228  0.54159185  1
  Sb  Sb8  1  -0.00204870  0.15300648  0.17195737  1
  Sb  Sb9  1  -0.00044008  0.80128104  0.67607950  1
  Sb  Sb10  1  -0.50378068  0.65516251  0.05424535  1
  Sb  Sb11  1  -0.50252978  0.30366441  0.55318614  1
  N  N12  1  -0.99982388  0.82379526  0.05073892  1
  N  N13  1  -0.00187638  0.12851121  0.55100776  1
  N  N14  1  -0.17566027  0.31212594  0.16862663  1
  N  N15  1  -0.83595464  0.31318529  0.11356082  1
  N  N16  1  -0.17383959  0.64262619  0.66834859  1
  N  N17  1  -0.83998811  0.64718209  0.56032694  1
  N  N18  1  -0.66255701  0.81681383  0.16930727  1
  N  N19  1  -0.34063351  0.81120653  0.17013991  1
  N  N20  1  -0.66305632  0.14470242  0.67009384  1
  N  N21  1  -0.34077692  0.14421205  0.67065986  1
  N  N22  1  -0.50336289  0.32215224  0.17791536  1
  N  N23  1  -0.50262843  0.63560068  0.67839307  1
