# generated using pymatgen
data_Zn2SbN3
_symmetry_space_group_name_H-M   'P 1'
_cell_length_a   10.10372521
_cell_length_b   5.82158354
_cell_length_c   5.47017549
_cell_angle_alpha   89.99995607
_cell_angle_beta   90.00021734
_cell_angle_gamma   89.99999876
_symmetry_Int_Tables_number   1
_chemical_formula_structural   Zn2SbN3
_chemical_formula_sum   'Zn8 Sb4 N12'
_cell_volume   321.75397443
_cell_formula_units_Z   4
loop_
 _symmetry_equiv_pos_site_id
 _symmetry_equiv_pos_as_xyz
  1  'x, y, z'
loop_
 _atom_site_type_symbol
 _atom_site_label
 _atom_site_symmetry_multiplicity
 _atom_site_fract_x
 _atom_site_fract_y
 _atom_site_fract_z
 _atom_site_occupancy
  Zn  Zn0  1  -0.83151978  0.64118142  0.06465998  1
  Zn  Zn1  1  -0.17562461  0.64118093  0.06465874  1
  Zn  Zn2  1  -0.33151969  0.14118143  0.06465988  1
  Zn  Zn3  1  -0.67562461  0.14118093  0.06465874  1
  Zn  Zn4  1  -0.83152040  0.31596056  0.56465986  1
  Zn  Zn5  1  -0.17562516  0.31596174  0.56465889  1
  Zn  Zn6  1  -0.67562519  0.81596172  0.56465887  1
  Zn  Zn7  1  -0.33152047  0.81596058  0.56465995  1
  Sb  Sb8  1  -0.00357092  0.15664171  0.07597660  1
  Sb  Sb9  1  -0.00357121  0.80050152  0.57597675  1
  Sb  Sb10  1  -0.50357092  0.65664171  0.07597657  1
  Sb  Sb11  1  -0.50357121  0.30050152  0.57597672  1
  N  N12  1  -0.00357048  0.82021735  0.19787738  1
  N  N13  1  -0.00357085  0.13692596  0.69787725  1
  N  N14  1  -0.16855973  0.31101671  0.18967336  1
  N  N15  1  -0.83858185  0.31101724  0.18967423  1
  N  N16  1  -0.16856003  0.64612636  0.68967349  1
  N  N17  1  -0.83858225  0.64612540  0.68967444  1
  N  N18  1  -0.66855973  0.81101671  0.18967335  1
  N  N19  1  -0.33858185  0.81101724  0.18967423  1
  N  N20  1  -0.66856002  0.14612635  0.68967350  1
  N  N21  1  -0.33858225  0.14612538  0.68967443  1
  N  N22  1  -0.50357047  0.32021737  0.19787739  1
  N  N23  1  -0.50357085  0.63692597  0.69787722  1
