# generated using pymatgen
data_Zn2SbN3
_symmetry_space_group_name_H-M   'P 1'
_cell_length_a   5.49135003
_cell_length_b   5.84924286
_cell_length_c   10.15770861
_cell_angle_alpha   90.00006169
_cell_angle_beta   89.99990386
_cell_angle_gamma   89.76392528
_symmetry_Int_Tables_number   1
_chemical_formula_structural   Zn2SbN3
_chemical_formula_sum   'Zn8 Sb4 N12'
_cell_volume   326.26526801
_cell_formula_units_Z   4
loop_
 _symmetry_equiv_pos_site_id
 _symmetry_equiv_pos_as_xyz
  1  'x, y, z'
loop_
 _atom_site_type_symbol
 _atom_site_label
 _atom_site_symmetry_multiplicity
 _atom_site_fract_x
 _atom_site_fract_y
 _atom_site_fract_z
 _atom_site_occupancy
  Zn  Zn0  1  0.06097364  0.64079189  0.82638895  1
  Zn  Zn1  1  0.06097286  0.64079352  0.18075212  1
  Zn  Zn2  1  0.04242214  0.14130617  0.33200047  1
  Zn  Zn3  1  0.04242130  0.14130546  0.67514447  1
  Zn  Zn4  1  0.54139979  0.31243726  0.83102493  1
  Zn  Zn5  1  0.54139937  0.31243827  0.17612075  1
  Zn  Zn6  1  0.54349223  0.81861786  0.67378303  1
  Zn  Zn7  1  0.54349265  0.81861814  0.33335908  1
  Sb  Sb8  1  0.05804573  0.16266236  0.00357203  1
  Sb  Sb9  1  0.64446647  0.79675957  0.00357091  1
  Sb  Sb10  1  0.05439398  0.65602170  0.50357062  1
  Sb  Sb11  1  0.55510515  0.30162096  0.50357179  1
  N  N12  1  0.09470488  0.81697586  0.00357075  1
  N  N13  1  0.67435695  0.15064567  0.00357224  1
  N  N14  1  0.16910273  0.30980915  0.17056726  1
  N  N15  1  0.16910326  0.30980845  0.83657664  1
  N  N16  1  0.66698288  0.63914534  0.17593123  1
  N  N17  1  0.66698308  0.63914483  0.83121057  1
  N  N18  1  0.17034219  0.81357142  0.66572318  1
  N  N19  1  0.17034245  0.81357154  0.34141815  1
  N  N20  1  0.66855537  0.14601067  0.66755076  1
  N  N21  1  0.66855604  0.14601040  0.33959265  1
  N  N22  1  0.17753737  0.32124394  0.50357135  1
  N  N23  1  0.67759244  0.63640332  0.50357044  1
