# generated using pymatgen
data_Zn2SbN3
_symmetry_space_group_name_H-M   'P 1'
_cell_length_a   5.47785849
_cell_length_b   5.81966765
_cell_length_c   10.10047683
_cell_angle_alpha   90.00001187
_cell_angle_beta   89.99991562
_cell_angle_gamma   89.99297191
_symmetry_Int_Tables_number   1
_chemical_formula_structural   Zn2SbN3
_chemical_formula_sum   'Zn8 Sb4 N12'
_cell_volume   321.99628856
_cell_formula_units_Z   4
loop_
 _symmetry_equiv_pos_site_id
 _symmetry_equiv_pos_as_xyz
  1  'x, y, z'
loop_
 _atom_site_type_symbol
 _atom_site_label
 _atom_site_symmetry_multiplicity
 _atom_site_fract_x
 _atom_site_fract_y
 _atom_site_fract_z
 _atom_site_occupancy
  Zn  Zn0  1  0.04865770  0.64119442  0.83154373  1
  Zn  Zn1  1  0.04865652  0.64119367  0.17560049  1
  Zn  Zn2  1  0.04862316  0.14120067  0.33154821  1
  Zn  Zn3  1  0.04862224  0.14119987  0.67559603  1
  Zn  Zn4  1  0.54863306  0.31594805  0.83154878  1
  Zn  Zn5  1  0.54863204  0.31594893  0.17559590  1
  Zn  Zn6  1  0.54862310  0.81595694  0.67559537  1
  Zn  Zn7  1  0.54862394  0.81595606  0.33154927  1
  Sb  Sb8  1  0.06002015  0.15658137  0.00357104  1
  Sb  Sb9  1  0.56004243  0.80055264  0.00357112  1
  Sb  Sb10  1  0.05999726  0.65659304  0.50357103  1
  Sb  Sb11  1  0.56000812  0.30056836  0.50357114  1
  N  N12  1  0.18227346  0.82015718  0.00357082  1
  N  N13  1  0.68226315  0.13696800  0.00357093  1
  N  N14  1  0.17392357  0.31099588  0.16857111  1
  N  N15  1  0.17392423  0.31099645  0.83857098  1
  N  N16  1  0.67393509  0.64611777  0.16857459  1
  N  N17  1  0.67393582  0.64611713  0.83856762  1
  N  N18  1  0.17391503  0.81101064  0.66856634  1
  N  N19  1  0.17391565  0.81101117  0.33857571  1
  N  N20  1  0.67391332  0.14612429  0.66856735  1
  N  N21  1  0.67391401  0.14612364  0.33857491  1
  N  N22  1  0.18224582  0.32017084  0.50357083  1
  N  N23  1  0.68224182  0.63697799  0.50357089  1
