# generated using pymatgen
data_Zn2SbN3
_symmetry_space_group_name_H-M   'P 1'
_cell_length_a   5.55085745
_cell_length_b   5.86113303
_cell_length_c   10.14140945
_cell_angle_alpha   89.99283768
_cell_angle_beta   90.11257767
_cell_angle_gamma   89.88444568
_symmetry_Int_Tables_number   1
_chemical_formula_structural   Zn2SbN3
_chemical_formula_sum   'Zn8 Sb4 N12'
_cell_volume   329.94248790
_cell_formula_units_Z   4
loop_
 _symmetry_equiv_pos_site_id
 _symmetry_equiv_pos_as_xyz
  1  'x, y, z'
loop_
 _atom_site_type_symbol
 _atom_site_label
 _atom_site_symmetry_multiplicity
 _atom_site_fract_x
 _atom_site_fract_y
 _atom_site_fract_z
 _atom_site_occupancy
  Zn  Zn0  1  0.17655781  0.63321765  0.83641230  1
  Zn  Zn1  1  0.17423362  0.63576058  0.17044754  1
  Zn  Zn2  1  0.04490682  0.13463166  0.33583481  1
  Zn  Zn3  1  0.04688044  0.13365123  0.67017998  1
  Zn  Zn4  1  0.67647534  0.32231832  0.83650933  1
  Zn  Zn5  1  0.66385505  0.32162110  0.17172296  1
  Zn  Zn6  1  0.54644310  0.82310272  0.67060255  1
  Zn  Zn7  1  0.54515211  0.82384863  0.33730203  1
  Sb  Sb8  1  0.16984920  0.15375722  0.00357672  1
  Sb  Sb9  1  0.67109571  0.80259403  0.00342732  1
  Sb  Sb10  1  0.05133231  0.65390152  0.50350614  1
  Sb  Sb11  1  0.55111242  0.30394027  0.50387830  1
  N  N12  1  0.04508077  0.82110739  0.00301541  1
  N  N13  1  0.54470207  0.13497513  0.00278411  1
  N  N14  1  0.05710586  0.31259262  0.16508391  1
  N  N15  1  0.05361488  0.31206804  0.84220116  1
  N  N16  1  0.55351955  0.64687083  0.16494353  1
  N  N17  1  0.55377945  0.64408717  0.84250562  1
  N  N18  1  0.16919919  0.81188084  0.66446107  1
  N  N19  1  0.16794612  0.81290639  0.34283590  1
  N  N20  1  0.66937986  0.14426109  0.66426052  1
  N  N21  1  0.66784495  0.14526422  0.34288527  1
  N  N22  1  0.17710621  0.32141013  0.50357533  1
  N  N23  1  0.67726585  0.63594498  0.50376254  1
