# generated using pymatgen
data_Zn2SbN3
_symmetry_space_group_name_H-M   'P 1'
_cell_length_a   10.18559976
_cell_length_b   5.88148978
_cell_length_c   5.52206557
_cell_angle_alpha   89.80950764
_cell_angle_beta   90.38788020
_cell_angle_gamma   89.87049431
_symmetry_Int_Tables_number   1
_chemical_formula_structural   Zn2SbN3
_chemical_formula_sum   'Zn8 Sb4 N12'
_cell_volume   330.79735512
_cell_formula_units_Z   4
loop_
 _symmetry_equiv_pos_site_id
 _symmetry_equiv_pos_as_xyz
  1  'x, y, z'
loop_
 _atom_site_type_symbol
 _atom_site_label
 _atom_site_symmetry_multiplicity
 _atom_site_fract_x
 _atom_site_fract_y
 _atom_site_fract_z
 _atom_site_occupancy
  Zn  Zn0  1  -0.83507635  0.64643740  0.17102365  1
  Zn  Zn1  1  -0.18560304  0.63230642  0.04797053  1
  Zn  Zn2  1  -0.33272021  0.13708979  0.04268207  1
  Zn  Zn3  1  -0.67309302  0.13944311  0.04281077  1
  Zn  Zn4  1  -0.82691383  0.31223900  0.58282488  1
  Zn  Zn5  1  -0.18391354  0.32179443  0.55125865  1
  Zn  Zn6  1  -0.66789212  0.82327142  0.54780477  1
  Zn  Zn7  1  -0.33073136  0.81917815  0.54163441  1
  Sb  Sb8  1  -0.00279060  0.15225538  0.17222326  1
  Sb  Sb9  1  -0.00057983  0.80092105  0.67583717  1
  Sb  Sb10  1  -0.50380440  0.65530168  0.05422830  1
  Sb  Sb11  1  -0.50255278  0.30378415  0.55329870  1
  N  N12  1  -0.99991660  0.82332530  0.05081396  1
  N  N13  1  -0.00291205  0.12789638  0.55152938  1
  N  N14  1  -0.17596903  0.31229114  0.16824440  1
  N  N15  1  -0.83434103  0.31145119  0.13310374  1
  N  N16  1  -0.17392842  0.64238589  0.66829441  1
  N  N17  1  -0.83956989  0.64818400  0.56249146  1
  N  N18  1  -0.66246629  0.81734851  0.16906557  1
  N  N19  1  -0.34074174  0.81130358  0.17007515  1
  N  N20  1  -0.66329896  0.14537172  0.67045844  1
  N  N21  1  -0.34092472  0.14410303  0.67058643  1
  N  N22  1  -0.50340885  0.32230580  0.17790731  1
  N  N23  1  -0.50256570  0.63572522  0.67828848  1
