# generated using pymatgen
data_Zn2SbN3
_symmetry_space_group_name_H-M   'P 1'
_cell_length_a   10.13417169
_cell_length_b   5.85126301
_cell_length_c   5.56045023
_cell_angle_alpha   90.00001855
_cell_angle_beta   89.99998517
_cell_angle_gamma   89.99959068
_symmetry_Int_Tables_number   1
_chemical_formula_structural   Zn2SbN3
_chemical_formula_sum   'Zn8 Sb4 N12'
_cell_volume   329.72193149
_cell_formula_units_Z   4
loop_
 _symmetry_equiv_pos_site_id
 _symmetry_equiv_pos_as_xyz
  1  'x, y, z'
loop_
 _atom_site_type_symbol
 _atom_site_label
 _atom_site_symmetry_multiplicity
 _atom_site_fract_x
 _atom_site_fract_y
 _atom_site_fract_z
 _atom_site_occupancy
  Zn  Zn0  1  -0.83670126  0.63364172  0.14867636  1
  Zn  Zn1  1  -0.17044090  0.63364675  0.14868485  1
  Zn  Zn2  1  -0.33670047  0.13364642  0.01911146  1
  Zn  Zn3  1  -0.67044025  0.13364101  0.01910263  1
  Zn  Zn4  1  -0.83670309  0.32350067  0.64867853  1
  Zn  Zn5  1  -0.17044058  0.32350398  0.64868729  1
  Zn  Zn6  1  -0.67044075  0.82349962  0.51909874  1
  Zn  Zn7  1  -0.33670375  0.82350446  0.51911016  1
  Sb  Sb8  1  -0.00356792  0.15346455  0.14299341  1
  Sb  Sb9  1  -0.00357479  0.80367548  0.64299232  1
  Sb  Sb10  1  -0.50356663  0.65346403  0.02480016  1
  Sb  Sb11  1  -0.50357424  0.30367601  0.52480148  1
  N  N12  1  -0.00357191  0.82090408  0.01660872  1
  N  N13  1  -0.00357071  0.13623540  0.51660925  1
  N  N14  1  -0.16452214  0.31200782  0.02544089  1
  N  N15  1  -0.84262593  0.31200113  0.02543641  1
  N  N16  1  -0.16451728  0.64514104  0.52544345  1
  N  N17  1  -0.84261934  0.64513473  0.52543113  1
  N  N18  1  -0.66452412  0.81200410  0.14235105  1
  N  N19  1  -0.34262768  0.81200592  0.14235615  1
  N  N20  1  -0.66451734  0.14513596  0.64234894  1
  N  N21  1  -0.34261953  0.14513865  0.64236144  1
  N  N22  1  -0.50357235  0.32090418  0.15118542  1
  N  N23  1  -0.50357123  0.63623611  0.65118478  1
