# generated using pymatgen
data_Zn2SbN3
_symmetry_space_group_name_H-M   'P 1'
_cell_length_a   10.15517452
_cell_length_b   5.87796141
_cell_length_c   5.54126944
_cell_angle_alpha   89.82076254
_cell_angle_beta   89.95665928
_cell_angle_gamma   90.14468525
_symmetry_Int_Tables_number   1
_chemical_formula_structural   Zn2SbN3
_chemical_formula_sum   'Zn8 Sb4 N12'
_cell_volume   330.76515607
_cell_formula_units_Z   4
loop_
 _symmetry_equiv_pos_site_id
 _symmetry_equiv_pos_as_xyz
  1  'x, y, z'
loop_
 _atom_site_type_symbol
 _atom_site_label
 _atom_site_symmetry_multiplicity
 _atom_site_fract_x
 _atom_site_fract_y
 _atom_site_fract_z
 _atom_site_occupancy
  Zn  Zn0  1  0.83582166  -0.63229382  -0.17752175  1
  Zn  Zn1  1  0.17047281  -0.64610813  -0.16956304  1
  Zn  Zn2  1  0.33241126  -0.13893450  -0.04002625  1
  Zn  Zn3  1  0.66925621  -0.13359651  -0.04714604  1
  Zn  Zn4  1  0.83580992  -0.32025376  -0.67569523  1
  Zn  Zn5  1  0.18048285  -0.31378304  -0.56040626  1
  Zn  Zn6  1  0.67059655  -0.82267528  -0.54677275  1
  Zn  Zn7  1  0.33799208  -0.82588144  -0.54667665  1
  Sb  Sb8  1  0.00047496  -0.15021389  -0.17136455  1
  Sb  Sb9  1  0.00214470  -0.79996611  -0.67166961  1
  Sb  Sb10  1  0.50350312  -0.65473114  -0.05219213  1
  Sb  Sb11  1  0.50402231  -0.30492032  -0.55181325  1
  N  N12  1  0.00231418  -0.81915186  -0.04593504  1
  N  N13  1  0.99722171  -0.13011375  -0.54761714  1
  N  N14  1  0.17261493  -0.30628579  -0.15207155  1
  N  N15  1  0.84172101  -0.31285402  -0.05244844  1
  N  N16  1  0.16620714  -0.65381215  -0.55983633  1
  N  N17  1  0.84176669  -0.64135592  -0.55447150  1
  N  N18  1  0.66455868  -0.81205313  -0.16879743  1
  N  N19  1  0.34366933  -0.81632704  -0.16737914  1
  N  N20  1  0.66321462  -0.14310365  -0.66986715  1
  N  N21  1  0.34159342  -0.14862905  -0.67023749  1
  N  N22  1  0.50380231  -0.32240303  -0.17745061  1
  N  N23  1  0.50404195  -0.63626645  -0.67747936  1
