# generated using pymatgen
data_Zn2SbN3
_symmetry_space_group_name_H-M   'P 1'
_cell_length_a   10.11125734
_cell_length_b   5.82330486
_cell_length_c   5.47980607
_cell_angle_alpha   89.82028724
_cell_angle_beta   89.99987166
_cell_angle_gamma   89.99998437
_symmetry_Int_Tables_number   1
_chemical_formula_structural   Zn2SbN3
_chemical_formula_sum   'Zn8 Sb4 N12'
_cell_volume   322.65451197
_cell_formula_units_Z   4
loop_
 _symmetry_equiv_pos_site_id
 _symmetry_equiv_pos_as_xyz
  1  'x, y, z'
loop_
 _atom_site_type_symbol
 _atom_site_label
 _atom_site_symmetry_multiplicity
 _atom_site_fract_x
 _atom_site_fract_y
 _atom_site_fract_z
 _atom_site_occupancy
  Zn  Zn0  1  0.83085567  -0.64157751  -0.04758178  1
  Zn  Zn1  1  0.17628497  -0.64157828  -0.04758090  1
  Zn  Zn2  1  0.33165327  -0.14158019  -0.04400407  1
  Zn  Zn3  1  0.67549304  -0.14157881  -0.04400273  1
  Zn  Zn4  1  0.83137884  -0.31540609  -0.54466709  1
  Zn  Zn5  1  0.17576744  -0.31540740  -0.54466599  1
  Zn  Zn6  1  0.67529830  -0.81645247  -0.54470727  1
  Zn  Zn7  1  0.33184592  -0.81645128  -0.54470819  1
  Sb  Sb8  1  0.00357146  -0.15661627  -0.05669683  1
  Sb  Sb9  1  0.00357063  -0.79976113  -0.55855939  1
  Sb  Sb10  1  0.50357023  -0.65686446  -0.05547742  1
  Sb  Sb11  1  0.50357169  -0.30110484  -0.55560219  1
  N  N12  1  0.00356982  -0.81940697  -0.17811456  1
  N  N13  1  0.00357137  -0.13712909  -0.67866749  1
  N  N14  1  0.16878088  -0.31032717  -0.17011082  1
  N  N15  1  0.83836240  -0.31032756  -0.17011181  1
  N  N16  1  0.16917359  -0.64546623  -0.67105683  1
  N  N17  1  0.83796802  -0.64546537  -0.67105749  1
  N  N18  1  0.66794811  -0.81168023  -0.17017456  1
  N  N19  1  0.33919256  -0.81168035  -0.17017485  1
  N  N20  1  0.66823167  -0.14610869  -0.66960793  1
  N  N21  1  0.33891207  -0.14610786  -0.66960875  1
  N  N22  1  0.50357152  -0.32059813  -0.17788367  1
  N  N23  1  0.50357087  -0.63703698  -0.67797882  1
