# generated using pymatgen
data_Zn2SbN3
_symmetry_space_group_name_H-M   'P 1'
_cell_length_a   10.14714781
_cell_length_b   5.87093599
_cell_length_c   5.54702346
_cell_angle_alpha   89.85055701
_cell_angle_beta   89.84587291
_cell_angle_gamma   90.05345990
_symmetry_Int_Tables_number   1
_chemical_formula_structural   Zn2SbN3
_chemical_formula_sum   'Zn8 Sb4 N12'
_cell_volume   330.45177907
_cell_formula_units_Z   4
loop_
 _symmetry_equiv_pos_site_id
 _symmetry_equiv_pos_as_xyz
  1  'x, y, z'
loop_
 _atom_site_type_symbol
 _atom_site_label
 _atom_site_symmetry_multiplicity
 _atom_site_fract_x
 _atom_site_fract_y
 _atom_site_fract_z
 _atom_site_occupancy
  Zn  Zn0  1  0.83610857  -0.63279421  -0.17730957  1
  Zn  Zn1  1  0.17043756  -0.64065558  -0.17160877  1
  Zn  Zn2  1  0.33405583  -0.13582663  -0.04274418  1
  Zn  Zn3  1  0.66976297  -0.13353821  -0.04722380  1
  Zn  Zn4  1  0.83619302  -0.32153467  -0.67702875  1
  Zn  Zn5  1  0.17550813  -0.31783631  -0.61685135  1
  Zn  Zn6  1  0.67057465  -0.82292738  -0.54650444  1
  Zn  Zn7  1  0.33790679  -0.82455397  -0.54504601  1
  Sb  Sb8  1  0.00244250  -0.15271865  -0.17039629  1
  Sb  Sb9  1  0.00270520  -0.80151265  -0.67287929  1
  Sb  Sb10  1  0.50346566  -0.65395803  -0.05153634  1
  Sb  Sb11  1  0.50408342  -0.30453094  -0.55065807  1
  N  N12  1  0.00240257  -0.82026470  -0.04666347  1
  N  N13  1  0.00055591  -0.13289136  -0.54714854  1
  N  N14  1  0.16863671  -0.31025608  -0.09722201  1
  N  N15  1  0.84163706  -0.31240631  -0.05383232  1
  N  N16  1  0.16552542  -0.65083268  -0.55725143  1
  N  N17  1  0.84220641  -0.64297048  -0.55453516  1
  N  N18  1  0.66441309  -0.81189356  -0.16902509  1
  N  N19  1  0.34332028  -0.81417045  -0.16740713  1
  N  N20  1  0.66367970  -0.14363490  -0.66957062  1
  N  N21  1  0.34247393  -0.14642989  -0.66816699  1
  N  N22  1  0.50375518  -0.32163746  -0.17673737  1
  N  N23  1  0.50386381  -0.63593868  -0.67709172  1
