# generated using pymatgen
data_Zn2SbN3
_symmetry_space_group_name_H-M   'P 1'
_cell_length_a   5.54702346
_cell_length_b   5.87093599
_cell_length_c   10.14714781
_cell_angle_alpha   89.94654010
_cell_angle_beta   90.15412709
_cell_angle_gamma   89.85055701
_symmetry_Int_Tables_number   1
_chemical_formula_structural   Zn2SbN3
_chemical_formula_sum   'Zn8 Sb4 N12'
_cell_volume   330.45177907
_cell_formula_units_Z   4
loop_
 _symmetry_equiv_pos_site_id
 _symmetry_equiv_pos_as_xyz
  1  'x, y, z'
loop_
 _atom_site_type_symbol
 _atom_site_label
 _atom_site_symmetry_multiplicity
 _atom_site_fract_x
 _atom_site_fract_y
 _atom_site_fract_z
 _atom_site_occupancy
  Zn  Zn0  1  0.17730957  0.63279421  0.83610857  1
  Zn  Zn1  1  0.17160877  0.64065558  0.17043756  1
  Zn  Zn2  1  0.04274418  0.13582663  0.33405583  1
  Zn  Zn3  1  0.04722380  0.13353821  0.66976297  1
  Zn  Zn4  1  0.67702875  0.32153467  0.83619302  1
  Zn  Zn5  1  0.61685135  0.31783631  0.17550813  1
  Zn  Zn6  1  0.54650444  0.82292738  0.67057465  1
  Zn  Zn7  1  0.54504601  0.82455397  0.33790679  1
  Sb  Sb8  1  0.17039629  0.15271865  0.00244250  1
  Sb  Sb9  1  0.67287929  0.80151265  0.00270520  1
  Sb  Sb10  1  0.05153634  0.65395803  0.50346566  1
  Sb  Sb11  1  0.55065807  0.30453094  0.50408342  1
  N  N12  1  0.04666347  0.82026470  0.00240257  1
  N  N13  1  0.54714854  0.13289136  0.00055591  1
  N  N14  1  0.09722201  0.31025608  0.16863671  1
  N  N15  1  0.05383232  0.31240631  0.84163706  1
  N  N16  1  0.55725143  0.65083268  0.16552542  1
  N  N17  1  0.55453516  0.64297048  0.84220641  1
  N  N18  1  0.16902509  0.81189356  0.66441309  1
  N  N19  1  0.16740713  0.81417045  0.34332028  1
  N  N20  1  0.66957062  0.14363490  0.66367970  1
  N  N21  1  0.66816699  0.14642989  0.34247393  1
  N  N22  1  0.17673737  0.32163746  0.50375518  1
  N  N23  1  0.67709172  0.63593868  0.50386381  1
