# generated using pymatgen
data_Zn2SbN3
_symmetry_space_group_name_H-M   'P 1'
_cell_length_a   10.19622618
_cell_length_b   5.88113153
_cell_length_c   5.51822309
_cell_angle_alpha   89.81272030
_cell_angle_beta   90.35750811
_cell_angle_gamma   89.80894995
_symmetry_Int_Tables_number   1
_chemical_formula_structural   Zn2SbN3
_chemical_formula_sum   'Zn8 Sb4 N12'
_cell_volume   330.89209236
_cell_formula_units_Z   4
loop_
 _symmetry_equiv_pos_site_id
 _symmetry_equiv_pos_as_xyz
  1  'x, y, z'
loop_
 _atom_site_type_symbol
 _atom_site_label
 _atom_site_symmetry_multiplicity
 _atom_site_fract_x
 _atom_site_fract_y
 _atom_site_fract_z
 _atom_site_occupancy
  Zn  Zn0  1  0.83162609  -0.64529611  -0.14318335  1
  Zn  Zn1  1  0.18590270  -0.63335955  -0.04831531  1
  Zn  Zn2  1  0.33312948  -0.13772815  -0.04254900  1
  Zn  Zn3  1  0.67373778  -0.14098308  -0.04096269  1
  Zn  Zn4  1  0.82464277  -0.31245803  -0.56275426  1
  Zn  Zn5  1  0.18420577  -0.32136829  -0.55260822  1
  Zn  Zn6  1  0.66982268  -0.82329115  -0.54680381  1
  Zn  Zn7  1  0.33120290  -0.81896606  -0.54196342  1
  Sb  Sb8  1  0.00393459  -0.15146253  -0.17385343  1
  Sb  Sb9  1  0.00100070  -0.80013115  -0.67433746  1
  Sb  Sb10  1  0.50377959  -0.65565974  -0.05362675  1
  Sb  Sb11  1  0.50279431  -0.30386946  -0.55369024  1
  N  N12  1  0.00068168  -0.82344560  -0.05161768  1
  N  N13  1  0.00400819  -0.12764279  -0.55245925  1
  N  N14  1  0.17638878  -0.31298353  -0.16754928  1
  N  N15  1  0.83277703  -0.30971495  -0.15496513  1
  N  N16  1  0.17445574  -0.64215913  -0.66830034  1
  N  N17  1  0.83627088  -0.64676166  -0.58960969  1
  N  N18  1  0.66294940  -0.81766257  -0.16874802  1
  N  N19  1  0.34135670  -0.81202476  -0.17009175  1
  N  N20  1  0.66351794  -0.14577452  -0.67055045  1
  N  N21  1  0.34121208  -0.14404369  -0.67037806  1
  N  N22  1  0.50372510  -0.32270225  -0.17782268  1
  N  N23  1  0.50259150  -0.63622498  -0.67771563  1
