# generated using pymatgen
data_Zn2SbN3
_symmetry_space_group_name_H-M   'P 1'
_cell_length_a   10.13892638
_cell_length_b   5.85367245
_cell_length_c   5.55660875
_cell_angle_alpha   89.99999857
_cell_angle_beta   89.99998042
_cell_angle_gamma   89.99996830
_symmetry_Int_Tables_number   1
_chemical_formula_structural   Zn2SbN3
_chemical_formula_sum   'Zn8 Sb4 N12'
_cell_volume   329.78447387
_cell_formula_units_Z   4
loop_
 _symmetry_equiv_pos_site_id
 _symmetry_equiv_pos_as_xyz
  1  'x, y, z'
loop_
 _atom_site_type_symbol
 _atom_site_label
 _atom_site_symmetry_multiplicity
 _atom_site_fract_x
 _atom_site_fract_y
 _atom_site_fract_z
 _atom_site_occupancy
  Zn  Zn0  1  0.83668370  -0.63380733  -0.16134053  1
  Zn  Zn1  1  0.17045898  -0.63380733  -0.16134230  1
  Zn  Zn2  1  0.33668407  -0.13380804  -0.03204860  1
  Zn  Zn3  1  0.67045895  -0.13380900  -0.03204685  1
  Zn  Zn4  1  0.83668425  -0.32333908  -0.66134173  1
  Zn  Zn5  1  0.17045875  -0.32333920  -0.66134464  1
  Zn  Zn6  1  0.67045837  -0.82333808  -0.53204494  1
  Zn  Zn7  1  0.33668470  -0.82333807  -0.53204657  1
  Sb  Sb8  1  0.00357134  -0.15360824  -0.15571351  1
  Sb  Sb9  1  0.00357135  -0.80353362  -0.65571270  1
  Sb  Sb10  1  0.50357137  -0.65360915  -0.03766978  1
  Sb  Sb11  1  0.50357131  -0.30353241  -0.53767056  1
  N  N12  1  0.00357134  -0.82103940  -0.02954157  1
  N  N13  1  0.00357137  -0.13610232  -0.52954198  1
  N  N14  1  0.16451394  -0.31208500  -0.03834446  1
  N  N15  1  0.84262927  -0.31208530  -0.03834262  1
  N  N16  1  0.16451414  -0.64505803  -0.53834328  1
  N  N17  1  0.84262867  -0.64505813  -0.53834190  1
  N  N18  1  0.66451383  -0.81208528  -0.15504011  1
  N  N19  1  0.34262908  -0.81208463  -0.15504135  1
  N  N20  1  0.66451418  -0.14505802  -0.65504114  1
  N  N21  1  0.34262862  -0.14505800  -0.65504235  1
  N  N22  1  0.50357141  -0.32104000  -0.16384128  1
  N  N23  1  0.50357138  -0.63610137  -0.66384093  1
