# generated using pymatgen
data_Zn2SbN3
_symmetry_space_group_name_H-M   'P 1'
_cell_length_a   10.13924229
_cell_length_b   5.83810779
_cell_length_c   5.48366908
_cell_angle_alpha   89.75890183
_cell_angle_beta   90.00021346
_cell_angle_gamma   89.99993339
_symmetry_Int_Tables_number   1
_chemical_formula_structural   Zn2SbN3
_chemical_formula_sum   'Zn8 Sb4 N12'
_cell_volume   324.59737542
_cell_formula_units_Z   4
loop_
 _symmetry_equiv_pos_site_id
 _symmetry_equiv_pos_as_xyz
  1  'x, y, z'
loop_
 _atom_site_type_symbol
 _atom_site_label
 _atom_site_symmetry_multiplicity
 _atom_site_fract_x
 _atom_site_fract_y
 _atom_site_fract_z
 _atom_site_occupancy
  Zn  Zn0  1  0.82877148  -0.64214604  -0.05547244  1
  Zn  Zn1  1  0.17836890  -0.64214697  -0.05547235  1
  Zn  Zn2  1  0.33183090  -0.14148660  -0.04292380  1
  Zn  Zn3  1  0.67531482  -0.14148583  -0.04292273  1
  Zn  Zn4  1  0.83089611  -0.31330675  -0.54257055  1
  Zn  Zn5  1  0.17624964  -0.31330732  -0.54256993  1
  Zn  Zn6  1  0.67410761  -0.81788070  -0.54396510  1
  Zn  Zn7  1  0.33303471  -0.81788075  -0.54396571  1
  Sb  Sb8  1  0.00357193  -0.15872360  -0.05810539  1
  Sb  Sb9  1  0.00357091  -0.79822139  -0.58084469  1
  Sb  Sb10  1  0.50357071  -0.65637428  -0.05475501  1
  Sb  Sb11  1  0.50357204  -0.30157563  -0.55504201  1
  N  N12  1  0.00357032  -0.81707229  -0.15212034  1
  N  N13  1  0.00357171  -0.14310408  -0.67757734  1
  N  N14  1  0.16983608  -0.31007509  -0.16944842  1
  N  N15  1  0.83730758  -0.31007516  -0.16944905  1
  N  N16  1  0.17256455  -0.64243381  -0.67099447  1
  N  N17  1  0.83457658  -0.64243342  -0.67099459  1
  N  N18  1  0.66640003  -0.81305069  -0.17033812  1
  N  N19  1  0.34074132  -0.81305046  -0.17033829  1
  N  N20  1  0.66769634  -0.14610036  -0.66890148  1
  N  N21  1  0.33944736  -0.14610014  -0.66890221  1
  N  N22  1  0.50357186  -0.32104686  -0.17744968  1
  N  N23  1  0.50357087  -0.63663555  -0.67762124  1
