# generated using pymatgen
data_Zn2SbN3
_symmetry_space_group_name_H-M   'P 1'
_cell_length_a   10.20528984
_cell_length_b   5.85854355
_cell_length_c   5.50092496
_cell_angle_alpha   90.14437495
_cell_angle_beta   90.00003880
_cell_angle_gamma   90.00010034
_symmetry_Int_Tables_number   1
_chemical_formula_structural   Zn2SbN3
_chemical_formula_sum   'Zn8 Sb4 N12'
_cell_volume   328.88899999
_cell_formula_units_Z   4
loop_
 _symmetry_equiv_pos_site_id
 _symmetry_equiv_pos_as_xyz
  1  'x, y, z'
loop_
 _atom_site_type_symbol
 _atom_site_label
 _atom_site_symmetry_multiplicity
 _atom_site_fract_x
 _atom_site_fract_y
 _atom_site_fract_z
 _atom_site_occupancy
  Zn  Zn0  1  -0.82184108  0.63826430  0.05438807  1
  Zn  Zn1  1  -0.18530454  0.63826313  0.05438638  1
  Zn  Zn2  1  -0.33386612  0.13869022  0.04111888  1
  Zn  Zn3  1  -0.67327760  0.13869029  0.04111867  1
  Zn  Zn4  1  -0.82846074  0.31421079  0.55190718  1
  Zn  Zn5  1  -0.17868001  0.31421206  0.55190713  1
  Zn  Zn6  1  -0.67508675  0.81752363  0.54372830  1
  Zn  Zn7  1  -0.33205509  0.81752649  0.54372814  1
  Sb  Sb8  1  -0.00357170  0.16403498  0.10210644  1
  Sb  Sb9  1  -0.00357130  0.80303989  0.67276916  1
  Sb  Sb10  1  -0.50357203  0.65490282  0.05437643  1
  Sb  Sb11  1  -0.50357077  0.30135415  0.55485300  1
  N  N12  1  -0.00357208  0.81865062  0.06456895  1
  N  N13  1  -0.00357075  0.14695347  0.62591738  1
  N  N14  1  -0.17496794  0.31216155  0.16907681  1
  N  N15  1  -0.83217511  0.31216171  0.16907661  1
  N  N16  1  -0.17578588  0.64065957  0.66622493  1
  N  N17  1  -0.83135720  0.64065885  0.66622540  1
  N  N18  1  -0.66481730  0.81342517  0.17105053  1
  N  N19  1  -0.34232654  0.81342557  0.17105079  1
  N  N20  1  -0.66605171  0.14496871  0.66878185  1
  N  N21  1  -0.34108968  0.14497033  0.66878214  1
  N  N22  1  -0.50357141  0.32100127  0.17771649  1
  N  N23  1  -0.50357106  0.63596421  0.67788525  1
