# generated using pymatgen
data_Zn2SbN3
_symmetry_space_group_name_H-M   'P 1'
_cell_length_a   10.14927120
_cell_length_b   5.87399176
_cell_length_c   5.54510476
_cell_angle_alpha   89.84264347
_cell_angle_beta   89.84655958
_cell_angle_gamma   90.08097735
_symmetry_Int_Tables_number   1
_chemical_formula_structural   Zn2SbN3
_chemical_formula_sum   'Zn8 Sb4 N12'
_cell_volume   330.57827714
_cell_formula_units_Z   4
loop_
 _symmetry_equiv_pos_site_id
 _symmetry_equiv_pos_as_xyz
  1  'x, y, z'
loop_
 _atom_site_type_symbol
 _atom_site_label
 _atom_site_symmetry_multiplicity
 _atom_site_fract_x
 _atom_site_fract_y
 _atom_site_fract_z
 _atom_site_occupancy
  Zn  Zn0  1  0.83600195  -0.63273983  -0.17749957  1
  Zn  Zn1  1  0.17047205  -0.64259284  -0.17024112  1
  Zn  Zn2  1  0.33342743  -0.13657500  -0.04154674  1
  Zn  Zn3  1  0.66958711  -0.13352512  -0.04719910  1
  Zn  Zn4  1  0.83608813  -0.32127554  -0.67683631  1
  Zn  Zn5  1  0.17715280  -0.31643421  -0.59473190  1
  Zn  Zn6  1  0.67055608  -0.82286735  -0.54657296  1
  Zn  Zn7  1  0.33795616  -0.82489843  -0.54524296  1
  Sb  Sb8  1  0.00176863  -0.15197635  -0.17073129  1
  Sb  Sb9  1  0.00250655  -0.80114493  -0.67286735  1
  Sb  Sb10  1  0.50344916  -0.65404283  -0.05161467  1
  Sb  Sb11  1  0.50405376  -0.30463481  -0.55078898  1
  N  N12  1  0.00229080  -0.81991210  -0.04677557  1
  N  N13  1  0.99948597  -0.13207074  -0.54766957  1
  N  N14  1  0.17034337  -0.30875697  -0.11888644  1
  N  N15  1  0.84154986  -0.31266256  -0.05358823  1
  N  N16  1  0.16576944  -0.65211034  -0.55879506  1
  N  N17  1  0.84208190  -0.64256336  -0.55463620  1
  N  N18  1  0.66439828  -0.81194560  -0.16893893  1
  N  N19  1  0.34343955  -0.81468994  -0.16720711  1
  N  N20  1  0.66352058  -0.14348548  -0.66961259  1
  N  N21  1  0.34212246  -0.14707968  -0.66863147  1
  N  N22  1  0.50377786  -0.32175486  -0.17676433  1
  N  N23  1  0.50391448  -0.63597491  -0.67706024  1
