# generated using pymatgen
data_Zn2SbN3
_symmetry_space_group_name_H-M   'P 1'
_cell_length_a   10.10202828
_cell_length_b   5.82060805
_cell_length_c   5.47401697
_cell_angle_alpha   89.99998325
_cell_angle_beta   90.00022929
_cell_angle_gamma   89.99998329
_symmetry_Int_Tables_number   1
_chemical_formula_structural   Zn2SbN3
_chemical_formula_sum   'Zn8 Sb4 N12'
_cell_volume   321.87190825
_cell_formula_units_Z   4
loop_
 _symmetry_equiv_pos_site_id
 _symmetry_equiv_pos_as_xyz
  1  'x, y, z'
loop_
 _atom_site_type_symbol
 _atom_site_label
 _atom_site_symmetry_multiplicity
 _atom_site_fract_x
 _atom_site_fract_y
 _atom_site_fract_z
 _atom_site_occupancy
  Zn  Zn0  1  -0.83153392  0.64118869  0.05675068  1
  Zn  Zn1  1  -0.17561035  0.64118804  0.05674975  1
  Zn  Zn2  1  -0.33153397  0.14118867  0.05675088  1
  Zn  Zn3  1  -0.67561046  0.14118806  0.05674952  1
  Zn  Zn4  1  -0.83153457  0.31595288  0.55675058  1
  Zn  Zn5  1  -0.17561102  0.31595403  0.55674968  1
  Zn  Zn6  1  -0.67561105  0.81595401  0.55674957  1
  Zn  Zn7  1  -0.33153463  0.81595289  0.55675075  1
  Sb  Sb8  1  -0.00357092  0.15661230  0.06812446  1
  Sb  Sb9  1  -0.00357120  0.80053095  0.56812438  1
  Sb  Sb10  1  -0.50357093  0.65661229  0.06812448  1
  Sb  Sb11  1  -0.50357120  0.30053095  0.56812440  1
  N  N12  1  -0.00357050  0.82019291  0.19019787  1
  N  N13  1  -0.00357081  0.13695037  0.69019793  1
  N  N14  1  -0.16856597  0.31101698  0.18191637  1
  N  N15  1  -0.83857565  0.31101755  0.18191716  1
  N  N16  1  -0.16856615  0.64612606  0.68191636  1
  N  N17  1  -0.83857605  0.64612510  0.68191727  1
  N  N18  1  -0.66856596  0.81101698  0.18191637  1
  N  N19  1  -0.33857564  0.81101758  0.18191720  1
  N  N20  1  -0.66856613  0.14612605  0.68191638  1
  N  N21  1  -0.33857604  0.14612509  0.68191733  1
  N  N22  1  -0.50357052  0.32019292  0.19019793  1
  N  N23  1  -0.50357084  0.63695038  0.69019795  1
