# generated using pymatgen
data_Zn2SbN3
_symmetry_space_group_name_H-M   'P 1'
_cell_length_a   5.46825475
_cell_length_b   5.82205697
_cell_length_c   10.10456979
_cell_angle_alpha   90.00001084
_cell_angle_beta   89.99980212
_cell_angle_gamma   89.99996909
_symmetry_Int_Tables_number   1
_chemical_formula_structural   Zn2SbN3
_chemical_formula_sum   'Zn8 Sb4 N12'
_cell_volume   321.69404241
_cell_formula_units_Z   4
loop_
 _symmetry_equiv_pos_site_id
 _symmetry_equiv_pos_as_xyz
  1  'x, y, z'
loop_
 _atom_site_type_symbol
 _atom_site_label
 _atom_site_symmetry_multiplicity
 _atom_site_fract_x
 _atom_site_fract_y
 _atom_site_fract_z
 _atom_site_occupancy
  Zn  Zn0  1  0.06865348  0.64117848  0.83151223  1
  Zn  Zn1  1  0.06865173  0.64117788  0.17563222  1
  Zn  Zn2  1  0.06865350  0.14117848  0.33151222  1
  Zn  Zn3  1  0.06865169  0.14117789  0.67563222  1
  Zn  Zn4  1  0.56865319  0.31596312  0.83151278  1
  Zn  Zn5  1  0.56865123  0.31596409  0.17563252  1
  Zn  Zn6  1  0.56865116  0.81596408  0.67563258  1
  Zn  Zn7  1  0.56865326  0.81596313  0.33151275  1
  Sb  Sb8  1  0.07997697  0.15665520  0.00357097  1
  Sb  Sb9  1  0.57997711  0.80048838  0.00357115  1
  Sb  Sb10  1  0.07997696  0.65665520  0.50357097  1
  Sb  Sb11  1  0.57997711  0.30048839  0.50357115  1
  N  N12  1  0.20179407  0.82022988  0.00357066  1
  N  N13  1  0.70179390  0.13691398  0.00357086  1
  N  N14  1  0.19361033  0.31101949  0.16855831  1
  N  N15  1  0.19361151  0.31101997  0.83858347  1
  N  N16  1  0.69361047  0.64612353  0.16855837  1
  N  N17  1  0.69361161  0.64612290  0.83858375  1
  N  N18  1  0.19361030  0.81101949  0.66855830  1
  N  N19  1  0.19361160  0.81101995  0.33858347  1
  N  N20  1  0.69361045  0.14612352  0.66855835  1
  N  N21  1  0.69361164  0.14612288  0.33858375  1
  N  N22  1  0.20179409  0.32022989  0.50357066  1
  N  N23  1  0.70179394  0.63691396  0.50357086  1
