# generated using pymatgen
data_Zn2SbN3
_symmetry_space_group_name_H-M   'P 1'
_cell_length_a   5.55660875
_cell_length_b   5.85367245
_cell_length_c   10.13892638
_cell_angle_alpha   90.00003170
_cell_angle_beta   90.00001958
_cell_angle_gamma   89.99999857
_symmetry_Int_Tables_number   1
_chemical_formula_structural   Zn2SbN3
_chemical_formula_sum   'Zn8 Sb4 N12'
_cell_volume   329.78447387
_cell_formula_units_Z   4
loop_
 _symmetry_equiv_pos_site_id
 _symmetry_equiv_pos_as_xyz
  1  'x, y, z'
loop_
 _atom_site_type_symbol
 _atom_site_label
 _atom_site_symmetry_multiplicity
 _atom_site_fract_x
 _atom_site_fract_y
 _atom_site_fract_z
 _atom_site_occupancy
  Zn  Zn0  1  0.16134053  0.63380733  0.83668370  1
  Zn  Zn1  1  0.16134230  0.63380733  0.17045898  1
  Zn  Zn2  1  0.03204860  0.13380804  0.33668407  1
  Zn  Zn3  1  0.03204685  0.13380900  0.67045895  1
  Zn  Zn4  1  0.66134173  0.32333908  0.83668425  1
  Zn  Zn5  1  0.66134464  0.32333920  0.17045875  1
  Zn  Zn6  1  0.53204494  0.82333808  0.67045837  1
  Zn  Zn7  1  0.53204657  0.82333807  0.33668470  1
  Sb  Sb8  1  0.15571351  0.15360824  0.00357134  1
  Sb  Sb9  1  0.65571270  0.80353362  0.00357135  1
  Sb  Sb10  1  0.03766978  0.65360915  0.50357137  1
  Sb  Sb11  1  0.53767056  0.30353241  0.50357131  1
  N  N12  1  0.02954157  0.82103940  0.00357134  1
  N  N13  1  0.52954198  0.13610232  0.00357137  1
  N  N14  1  0.03834446  0.31208500  0.16451394  1
  N  N15  1  0.03834262  0.31208530  0.84262927  1
  N  N16  1  0.53834328  0.64505803  0.16451414  1
  N  N17  1  0.53834190  0.64505813  0.84262867  1
  N  N18  1  0.15504011  0.81208528  0.66451383  1
  N  N19  1  0.15504135  0.81208463  0.34262908  1
  N  N20  1  0.65504114  0.14505802  0.66451418  1
  N  N21  1  0.65504235  0.14505800  0.34262862  1
  N  N22  1  0.16384128  0.32104000  0.50357141  1
  N  N23  1  0.66384093  0.63610137  0.50357138  1
