# generated using pymatgen
data_Zn2SbN3
_symmetry_space_group_name_H-M   'P 1'
_cell_length_a   5.48751067
_cell_length_b   5.84416998
_cell_length_c   10.14976591
_cell_angle_alpha   90.00005946
_cell_angle_beta   89.99982369
_cell_angle_gamma   89.75860096
_symmetry_Int_Tables_number   1
_chemical_formula_structural   Zn2SbN3
_chemical_formula_sum   'Zn8 Sb4 N12'
_cell_volume   325.49954706
_cell_formula_units_Z   4
loop_
 _symmetry_equiv_pos_site_id
 _symmetry_equiv_pos_as_xyz
  1  'x, y, z'
loop_
 _atom_site_type_symbol
 _atom_site_label
 _atom_site_symmetry_multiplicity
 _atom_site_fract_x
 _atom_site_fract_y
 _atom_site_fract_z
 _atom_site_occupancy
  Zn  Zn0  1  0.05872100  0.64171661  0.82769727  1
  Zn  Zn1  1  0.05872076  0.64171783  0.17944341  1
  Zn  Zn2  1  0.04269644  0.14141123  0.33187890  1
  Zn  Zn3  1  0.04269550  0.14141044  0.67526646  1
  Zn  Zn4  1  0.54172147  0.31264105  0.83092165  1
  Zn  Zn5  1  0.54172098  0.31264164  0.17622400  1
  Zn  Zn6  1  0.54360612  0.81837614  0.67382781  1
  Zn  Zn7  1  0.54360658  0.81837628  0.33331449  1
  Sb  Sb8  1  0.05860311  0.16032204  0.00357202  1
  Sb  Sb9  1  0.61103029  0.79746216  0.00357087  1
  Sb  Sb10  1  0.05460802  0.65616584  0.50357066  1
  Sb  Sb11  1  0.55502298  0.30160685  0.50357186  1
  N  N12  1  0.12316079  0.81694187  0.00357051  1
  N  N13  1  0.67630610  0.14731272  0.00357195  1
  N  N14  1  0.16923035  0.31011122  0.17029328  1
  N  N15  1  0.16923093  0.31011101  0.83685045  1
  N  N16  1  0.66943368  0.64046688  0.17457963  1
  N  N17  1  0.66943380  0.64046650  0.83256189  1
  N  N18  1  0.17034204  0.81335160  0.66599546  1
  N  N19  1  0.17034222  0.81335152  0.34114589  1
  N  N20  1  0.66871782  0.14605147  0.66761500  1
  N  N21  1  0.66871850  0.14605126  0.33952861  1
  N  N22  1  0.17748350  0.32114313  0.50357162  1
  N  N23  1  0.67759198  0.63650645  0.50357069  1
