# generated using pymatgen
data_Zn2SbN3
_symmetry_space_group_name_H-M   'P 1'
_cell_length_a   10.15770861
_cell_length_b   5.84924286
_cell_length_c   5.49135003
_cell_angle_alpha   89.76392528
_cell_angle_beta   90.00009614
_cell_angle_gamma   89.99993831
_symmetry_Int_Tables_number   1
_chemical_formula_structural   Zn2SbN3
_chemical_formula_sum   'Zn8 Sb4 N12'
_cell_volume   326.26526801
_cell_formula_units_Z   4
loop_
 _symmetry_equiv_pos_site_id
 _symmetry_equiv_pos_as_xyz
  1  'x, y, z'
loop_
 _atom_site_type_symbol
 _atom_site_label
 _atom_site_symmetry_multiplicity
 _atom_site_fract_x
 _atom_site_fract_y
 _atom_site_fract_z
 _atom_site_occupancy
  Zn  Zn0  1  0.82638895  -0.64079189  -0.06097364  1
  Zn  Zn1  1  0.18075212  -0.64079352  -0.06097286  1
  Zn  Zn2  1  0.33200047  -0.14130617  -0.04242214  1
  Zn  Zn3  1  0.67514447  -0.14130546  -0.04242130  1
  Zn  Zn4  1  0.83102493  -0.31243726  -0.54139979  1
  Zn  Zn5  1  0.17612075  -0.31243827  -0.54139937  1
  Zn  Zn6  1  0.67378303  -0.81861786  -0.54349223  1
  Zn  Zn7  1  0.33335908  -0.81861814  -0.54349265  1
  Sb  Sb8  1  0.00357203  -0.16266236  -0.05804573  1
  Sb  Sb9  1  0.00357091  -0.79675957  -0.64446647  1
  Sb  Sb10  1  0.50357062  -0.65602170  -0.05439398  1
  Sb  Sb11  1  0.50357179  -0.30162096  -0.55510515  1
  N  N12  1  0.00357075  -0.81697586  -0.09470488  1
  N  N13  1  0.00357224  -0.15064567  -0.67435695  1
  N  N14  1  0.17056726  -0.30980915  -0.16910273  1
  N  N15  1  0.83657664  -0.30980845  -0.16910326  1
  N  N16  1  0.17593123  -0.63914534  -0.66698288  1
  N  N17  1  0.83121057  -0.63914483  -0.66698308  1
  N  N18  1  0.66572318  -0.81357142  -0.17034219  1
  N  N19  1  0.34141815  -0.81357154  -0.17034245  1
  N  N20  1  0.66755076  -0.14601067  -0.66855537  1
  N  N21  1  0.33959265  -0.14601040  -0.66855604  1
  N  N22  1  0.50357135  -0.32124394  -0.17753737  1
  N  N23  1  0.50357044  -0.63640332  -0.67759244  1
