# generated using pymatgen
data_Zn2SbN3
_symmetry_space_group_name_H-M   'P 1'
_cell_length_a   10.13085228
_cell_length_b   5.83339255
_cell_length_c   5.48174597
_cell_angle_alpha   89.76485205
_cell_angle_beta   90.00018845
_cell_angle_gamma   89.99993065
_symmetry_Int_Tables_number   1
_chemical_formula_structural   Zn2SbN3
_chemical_formula_sum   'Zn8 Sb4 N12'
_cell_volume   323.95331948
_cell_formula_units_Z   4
loop_
 _symmetry_equiv_pos_site_id
 _symmetry_equiv_pos_as_xyz
  1  'x, y, z'
loop_
 _atom_site_type_symbol
 _atom_site_label
 _atom_site_symmetry_multiplicity
 _atom_site_fract_x
 _atom_site_fract_y
 _atom_site_fract_z
 _atom_site_occupancy
  Zn  Zn0  1  -0.82943467  0.64213768  0.05287708  1
  Zn  Zn1  1  -0.17770560  0.64213851  0.05287707  1
  Zn  Zn2  1  -0.33181089  0.14155081  0.04310360  1
  Zn  Zn3  1  -0.67533510  0.14155003  0.04310237  1
  Zn  Zn4  1  -0.83097777  0.31397785  0.54333624  1
  Zn  Zn5  1  -0.17616821  0.31397870  0.54333566  1
  Zn  Zn6  1  -0.67444784  0.81742644  0.54428500  1
  Zn  Zn7  1  -0.33269451  0.81742635  0.54428579  1
  Sb  Sb8  1  -0.00357191  0.15777416  0.05746822  1
  Sb  Sb9  1  -0.00357082  0.79865643  0.56792922  1
  Sb  Sb10  1  -0.50357064  0.65654260  0.05486647  1
  Sb  Sb11  1  -0.50357205  0.30150550  0.55510342  1
  N  N12  1  -0.00357029  0.81768566  0.16660367  1
  N  N13  1  -0.00357176  0.14034790  0.67796413  1
  N  N14  1  -0.16945722  0.30999263  0.16959515  1
  N  N15  1  -0.83768657  0.30999276  0.16959571  1
  N  N16  1  -0.17115017  0.64378132  0.67130581  1
  N  N17  1  -0.83599105  0.64378104  0.67130585  1
  N  N18  1  -0.66679572  0.81274837  0.17030203  1
  N  N19  1  -0.34034536  0.81274815  0.17030227  1
  N  N20  1  -0.66779312  0.14612411  0.66903786  1
  N  N21  1  -0.33935052  0.14612380  0.66903864  1
  N  N22  1  -0.50357181  0.32096521  0.17746512  1
  N  N23  1  -0.50357079  0.63675775  0.67765856  1
