# generated using pymatgen
data_Zn2SbN3
_symmetry_space_group_name_H-M   'P 1'
_cell_length_a   10.16402876
_cell_length_b   5.86813303
_cell_length_c   5.52973397
_cell_angle_alpha   89.86260703
_cell_angle_beta   90.39511599
_cell_angle_gamma   89.97094591
_symmetry_Int_Tables_number   1
_chemical_formula_structural   Zn2SbN3
_chemical_formula_sum   'Zn8 Sb4 N12'
_cell_volume   329.80591411
_cell_formula_units_Z   4
loop_
 _symmetry_equiv_pos_site_id
 _symmetry_equiv_pos_as_xyz
  1  'x, y, z'
loop_
 _atom_site_type_symbol
 _atom_site_label
 _atom_site_symmetry_multiplicity
 _atom_site_fract_x
 _atom_site_fract_y
 _atom_site_fract_z
 _atom_site_occupancy
  Zn  Zn0  1  -0.83579989  0.63907932  0.17593507  1
  Zn  Zn1  1  -0.18476390  0.63236723  0.04703448  1
  Zn  Zn2  1  -0.33157041  0.13702511  0.04229912  1
  Zn  Zn3  1  -0.67039178  0.13683321  0.04753702  1
  Zn  Zn4  1  -0.83401689  0.31837748  0.66527771  1
  Zn  Zn5  1  -0.18368976  0.32300533  0.54824727  1
  Zn  Zn6  1  -0.66847337  0.82189993  0.54767268  1
  Zn  Zn7  1  -0.33064204  0.81939165  0.54166213  1
  Sb  Sb8  1  -0.00007811  0.15440581  0.17225531  1
  Sb  Sb9  1  -0.99964915  0.80245953  0.67422851  1
  Sb  Sb10  1  -0.50365941  0.65504968  0.05422828  1
  Sb  Sb11  1  -0.50281963  0.30278747  0.55403872  1
  N  N12  1  -0.99897704  0.82563505  0.04863840  1
  N  N13  1  -0.99873489  0.13070903  0.54781784  1
  N  N14  1  -0.17434664  0.31213905  0.16863128  1
  N  N15  1  -0.84138971  0.31743583  0.05711901  1
  N  N16  1  -0.17340714  0.64346724  0.66837434  1
  N  N17  1  -0.84109585  0.64225416  0.55435912  1
  N  N18  1  -0.66319006  0.81519963  0.17012693  1
  N  N19  1  -0.34025013  0.81106597  0.17051750  1
  N  N20  1  -0.66264045  0.14303664  0.67007804  1
  N  N21  1  -0.33994665  0.14478234  0.67075643  1
  N  N22  1  -0.50340738  0.32190631  0.17872198  1
  N  N23  1  -0.50277408  0.63540074  0.67890028  1
