# generated using pymatgen
data_Zn2SbN3
_symmetry_space_group_name_H-M   'P 1'
_cell_length_a   10.21741186
_cell_length_b   5.85852808
_cell_length_c   5.50859902
_cell_angle_alpha   90.10115381
_cell_angle_beta   89.99859470
_cell_angle_gamma   90.00066794
_symmetry_Int_Tables_number   1
_chemical_formula_structural   Zn2SbN3
_chemical_formula_sum   'Zn8 Sb4 N12'
_cell_volume   329.73868291
_cell_formula_units_Z   4
loop_
 _symmetry_equiv_pos_site_id
 _symmetry_equiv_pos_as_xyz
  1  'x, y, z'
loop_
 _atom_site_type_symbol
 _atom_site_label
 _atom_site_symmetry_multiplicity
 _atom_site_fract_x
 _atom_site_fract_y
 _atom_site_fract_z
 _atom_site_occupancy
  Zn  Zn0  1  -0.82163507  0.63663724  0.05288844  1
  Zn  Zn1  1  -0.18548878  0.63666561  0.05298664  1
  Zn  Zn2  1  -0.33320061  0.13892378  0.04194532  1
  Zn  Zn3  1  -0.67394070  0.13890869  0.04194798  1
  Zn  Zn4  1  -0.82370174  0.31913573  0.55422138  1
  Zn  Zn5  1  -0.18343579  0.31912460  0.55424081  1
  Zn  Zn6  1  -0.67482287  0.81754817  0.54318552  1
  Zn  Zn7  1  -0.33232983  0.81755570  0.54319722  1
  Sb  Sb8  1  -0.00356885  0.15489102  0.17199062  1
  Sb  Sb9  1  -0.00357734  0.80449218  0.67567897  1
  Sb  Sb10  1  -0.50356899  0.65512580  0.05488987  1
  Sb  Sb11  1  -0.50357272  0.30149160  0.55459780  1
  N  N12  1  -0.00357344  0.82514683  0.05573201  1
  N  N13  1  -0.00357066  0.13433221  0.55931284  1
  N  N14  1  -0.17604525  0.31420120  0.16695046  1
  N  N15  1  -0.83108969  0.31420294  0.16695918  1
  N  N16  1  -0.17546625  0.64249498  0.66692967  1
  N  N17  1  -0.83168512  0.64249281  0.66695333  1
  N  N18  1  -0.66494084  0.81338023  0.17097530  1
  N  N19  1  -0.34220487  0.81339764  0.17098035  1
  N  N20  1  -0.66543229  0.14431432  0.66993753  1
  N  N21  1  -0.34171748  0.14431963  0.66993982  1
  N  N22  1  -0.50356982  0.32107212  0.17806700  1
  N  N23  1  -0.50357536  0.63585887  0.67830648  1
