# generated using pymatgen
data_Zn2SbN3
_symmetry_space_group_name_H-M   'P 1'
_cell_length_a   5.47980607
_cell_length_b   5.82330486
_cell_length_c   10.11125734
_cell_angle_alpha   90.00001563
_cell_angle_beta   90.00012834
_cell_angle_gamma   89.82028724
_symmetry_Int_Tables_number   1
_chemical_formula_structural   Zn2SbN3
_chemical_formula_sum   'Zn8 Sb4 N12'
_cell_volume   322.65451197
_cell_formula_units_Z   4
loop_
 _symmetry_equiv_pos_site_id
 _symmetry_equiv_pos_as_xyz
  1  'x, y, z'
loop_
 _atom_site_type_symbol
 _atom_site_label
 _atom_site_symmetry_multiplicity
 _atom_site_fract_x
 _atom_site_fract_y
 _atom_site_fract_z
 _atom_site_occupancy
  Zn  Zn0  1  0.04758178  0.64157751  0.83085567  1
  Zn  Zn1  1  0.04758090  0.64157828  0.17628497  1
  Zn  Zn2  1  0.04400407  0.14158019  0.33165327  1
  Zn  Zn3  1  0.04400273  0.14157881  0.67549304  1
  Zn  Zn4  1  0.54466709  0.31540609  0.83137884  1
  Zn  Zn5  1  0.54466599  0.31540740  0.17576744  1
  Zn  Zn6  1  0.54470727  0.81645247  0.67529830  1
  Zn  Zn7  1  0.54470819  0.81645128  0.33184592  1
  Sb  Sb8  1  0.05669683  0.15661627  0.00357146  1
  Sb  Sb9  1  0.55855939  0.79976113  0.00357063  1
  Sb  Sb10  1  0.05547742  0.65686446  0.50357023  1
  Sb  Sb11  1  0.55560219  0.30110484  0.50357169  1
  N  N12  1  0.17811456  0.81940697  0.00356982  1
  N  N13  1  0.67866749  0.13712909  0.00357137  1
  N  N14  1  0.17011082  0.31032717  0.16878088  1
  N  N15  1  0.17011181  0.31032756  0.83836240  1
  N  N16  1  0.67105683  0.64546623  0.16917359  1
  N  N17  1  0.67105749  0.64546537  0.83796802  1
  N  N18  1  0.17017456  0.81168023  0.66794811  1
  N  N19  1  0.17017485  0.81168035  0.33919256  1
  N  N20  1  0.66960793  0.14610869  0.66823167  1
  N  N21  1  0.66960875  0.14610786  0.33891207  1
  N  N22  1  0.17788367  0.32059813  0.50357152  1
  N  N23  1  0.67797882  0.63703698  0.50357087  1
