# generated using pymatgen
data_Zn2SbN3
_symmetry_space_group_name_H-M   'P 1'
_cell_length_a   10.15411731
_cell_length_b   5.87889129
_cell_length_c   5.53935276
_cell_angle_alpha   89.80771574
_cell_angle_beta   89.93192621
_cell_angle_gamma   90.21371968
_symmetry_Int_Tables_number   1
_chemical_formula_structural   Zn2SbN3
_chemical_formula_sum   'Zn8 Sb4 N12'
_cell_volume   330.66699504
_cell_formula_units_Z   4
loop_
 _symmetry_equiv_pos_site_id
 _symmetry_equiv_pos_as_xyz
  1  'x, y, z'
loop_
 _atom_site_type_symbol
 _atom_site_label
 _atom_site_symmetry_multiplicity
 _atom_site_fract_x
 _atom_site_fract_y
 _atom_site_fract_z
 _atom_site_occupancy
  Zn  Zn0  1  0.83566407  -0.63333512  -0.17797826  1
  Zn  Zn1  1  0.17310786  -0.64348308  -0.14840658  1
  Zn  Zn2  1  0.33203121  -0.13940950  -0.03883552  1
  Zn  Zn3  1  0.66896321  -0.13437220  -0.04704748  1
  Zn  Zn4  1  0.83583561  -0.32015402  -0.67601185  1
  Zn  Zn5  1  0.18115083  -0.31478938  -0.55622988  1
  Zn  Zn6  1  0.67039593  -0.82261182  -0.54735971  1
  Zn  Zn7  1  0.33645874  -0.82588132  -0.54530726  1
  Sb  Sb8  1  0.99975382  -0.15016000  -0.17278936  1
  Sb  Sb9  1  0.00224537  -0.79949912  -0.67147234  1
  Sb  Sb10  1  0.50346716  -0.65506677  -0.05162334  1
  Sb  Sb11  1  0.50394280  -0.30503106  -0.55189169  1
  N  N12  1  0.00173340  -0.81978990  -0.04700579  1
  N  N13  1  0.99719965  -0.12988509  -0.54842061  1
  N  N14  1  0.17266920  -0.30577283  -0.15765149  1
  N  N15  1  0.84144466  -0.31380813  -0.05286353  1
  N  N16  1  0.16854935  -0.65150265  -0.57902973  1
  N  N17  1  0.84172145  -0.64108287  -0.55471341  1
  N  N18  1  0.66396020  -0.81294437  -0.16916229  1
  N  N19  1  0.34294194  -0.81617415  -0.16695026  1
  N  N20  1  0.66335407  -0.14320451  -0.66975598  1
  N  N21  1  0.34169382  -0.14837458  -0.66967376  1
  N  N22  1  0.50334239  -0.32285724  -0.17724206  1
  N  N23  1  0.50408764  -0.63652405  -0.67701650  1
