# generated using pymatgen
data_Zn2SbN3
_symmetry_space_group_name_H-M   'P 1'
_cell_length_a   10.14140945
_cell_length_b   5.86113303
_cell_length_c   5.55085745
_cell_angle_alpha   89.88444568
_cell_angle_beta   89.88742233
_cell_angle_gamma   90.00716232
_symmetry_Int_Tables_number   1
_chemical_formula_structural   Zn2SbN3
_chemical_formula_sum   'Zn8 Sb4 N12'
_cell_volume   329.94248790
_cell_formula_units_Z   4
loop_
 _symmetry_equiv_pos_site_id
 _symmetry_equiv_pos_as_xyz
  1  'x, y, z'
loop_
 _atom_site_type_symbol
 _atom_site_label
 _atom_site_symmetry_multiplicity
 _atom_site_fract_x
 _atom_site_fract_y
 _atom_site_fract_z
 _atom_site_occupancy
  Zn  Zn0  1  -0.83641230  0.63321765  0.17655781  1
  Zn  Zn1  1  -0.17044754  0.63576058  0.17423362  1
  Zn  Zn2  1  -0.33583481  0.13463166  0.04490682  1
  Zn  Zn3  1  -0.67017998  0.13365123  0.04688044  1
  Zn  Zn4  1  -0.83650933  0.32231832  0.67647534  1
  Zn  Zn5  1  -0.17172296  0.32162110  0.66385505  1
  Zn  Zn6  1  -0.67060255  0.82310272  0.54644310  1
  Zn  Zn7  1  -0.33730203  0.82384863  0.54515211  1
  Sb  Sb8  1  -0.00357672  0.15375722  0.16984920  1
  Sb  Sb9  1  -0.00342732  0.80259403  0.67109571  1
  Sb  Sb10  1  -0.50350614  0.65390152  0.05133231  1
  Sb  Sb11  1  -0.50387830  0.30394027  0.55111242  1
  N  N12  1  -0.00301541  0.82110739  0.04508077  1
  N  N13  1  -0.00278411  0.13497513  0.54470207  1
  N  N14  1  -0.16508391  0.31259262  0.05710586  1
  N  N15  1  -0.84220116  0.31206804  0.05361488  1
  N  N16  1  -0.16494353  0.64687083  0.55351955  1
  N  N17  1  -0.84250562  0.64408717  0.55377945  1
  N  N18  1  -0.66446107  0.81188084  0.16919919  1
  N  N19  1  -0.34283590  0.81290639  0.16794612  1
  N  N20  1  -0.66426052  0.14426109  0.66937986  1
  N  N21  1  -0.34288527  0.14526422  0.66784495  1
  N  N22  1  -0.50357533  0.32141013  0.17710621  1
  N  N23  1  -0.50376254  0.63594498  0.67726585  1
