# generated using pymatgen
data_Zn2SbN3
_symmetry_space_group_name_H-M   'P 1'
_cell_length_a   5.51822309
_cell_length_b   5.88113153
_cell_length_c   10.19622618
_cell_angle_alpha   90.19105005
_cell_angle_beta   89.64249189
_cell_angle_gamma   89.81272030
_symmetry_Int_Tables_number   1
_chemical_formula_structural   Zn2SbN3
_chemical_formula_sum   'Zn8 Sb4 N12'
_cell_volume   330.89209236
_cell_formula_units_Z   4
loop_
 _symmetry_equiv_pos_site_id
 _symmetry_equiv_pos_as_xyz
  1  'x, y, z'
loop_
 _atom_site_type_symbol
 _atom_site_label
 _atom_site_symmetry_multiplicity
 _atom_site_fract_x
 _atom_site_fract_y
 _atom_site_fract_z
 _atom_site_occupancy
  Zn  Zn0  1  0.14318335  0.64529611  0.83162609  1
  Zn  Zn1  1  0.04831531  0.63335955  0.18590270  1
  Zn  Zn2  1  0.04254900  0.13772815  0.33312948  1
  Zn  Zn3  1  0.04096269  0.14098308  0.67373778  1
  Zn  Zn4  1  0.56275426  0.31245803  0.82464277  1
  Zn  Zn5  1  0.55260822  0.32136829  0.18420577  1
  Zn  Zn6  1  0.54680381  0.82329115  0.66982268  1
  Zn  Zn7  1  0.54196342  0.81896606  0.33120290  1
  Sb  Sb8  1  0.17385343  0.15146253  0.00393459  1
  Sb  Sb9  1  0.67433746  0.80013115  0.00100070  1
  Sb  Sb10  1  0.05362675  0.65565974  0.50377959  1
  Sb  Sb11  1  0.55369024  0.30386946  0.50279431  1
  N  N12  1  0.05161768  0.82344560  0.00068168  1
  N  N13  1  0.55245925  0.12764279  0.00400819  1
  N  N14  1  0.16754928  0.31298353  0.17638878  1
  N  N15  1  0.15496513  0.30971495  0.83277703  1
  N  N16  1  0.66830034  0.64215913  0.17445574  1
  N  N17  1  0.58960969  0.64676166  0.83627088  1
  N  N18  1  0.16874802  0.81766257  0.66294940  1
  N  N19  1  0.17009175  0.81202476  0.34135670  1
  N  N20  1  0.67055045  0.14577452  0.66351794  1
  N  N21  1  0.67037806  0.14404369  0.34121208  1
  N  N22  1  0.17782268  0.32270225  0.50372510  1
  N  N23  1  0.67771563  0.63622498  0.50259150  1
