# generated using pymatgen
data_Zn2SbN3
_symmetry_space_group_name_H-M   'P 1'
_cell_length_a   10.13790742
_cell_length_b   5.85325802
_cell_length_c   5.55852949
_cell_angle_alpha   89.99999990
_cell_angle_beta   90.00001049
_cell_angle_gamma   89.99997664
_symmetry_Int_Tables_number   1
_chemical_formula_structural   Zn2SbN3
_chemical_formula_sum   'Zn8 Sb4 N12'
_cell_volume   329.84196111
_cell_formula_units_Z   4
loop_
 _symmetry_equiv_pos_site_id
 _symmetry_equiv_pos_as_xyz
  1  'x, y, z'
loop_
 _atom_site_type_symbol
 _atom_site_label
 _atom_site_symmetry_multiplicity
 _atom_site_fract_x
 _atom_site_fract_y
 _atom_site_fract_z
 _atom_site_occupancy
  Zn  Zn0  1  -0.83669833  0.63378143  0.15503834  1
  Zn  Zn1  1  -0.17044438  0.63378203  0.15503924  1
  Zn  Zn2  1  -0.33669836  0.13378157  0.02552931  1
  Zn  Zn3  1  -0.67044443  0.13378199  0.02552850  1
  Zn  Zn4  1  -0.83669919  0.32336397  0.65503819  1
  Zn  Zn5  1  -0.17044379  0.32336375  0.65503931  1
  Zn  Zn6  1  -0.67044378  0.82336377  0.52552833  1
  Zn  Zn7  1  -0.33669923  0.82336390  0.52552939  1
  Sb  Sb8  1  -0.00357137  0.15357841  0.14935022  1
  Sb  Sb9  1  -0.00357139  0.80356245  0.64935020  1
  Sb  Sb10  1  -0.50357140  0.65357839  0.03121765  1
  Sb  Sb11  1  -0.50357143  0.30356248  0.53121767  1
  N  N12  1  -0.00357135  0.82101884  0.02309869  1
  N  N13  1  -0.00357138  0.13612154  0.52309855  1
  N  N14  1  -0.16451059  0.31208310  0.03192376  1
  N  N15  1  -0.84263241  0.31208298  0.03192287  1
  N  N16  1  -0.16451104  0.64505959  0.53192352  1
  N  N17  1  -0.84263185  0.64505960  0.53192280  1
  N  N18  1  -0.66451058  0.81208314  0.14864410  1
  N  N19  1  -0.34263238  0.81208300  0.14864486  1
  N  N20  1  -0.66451103  0.14505950  0.64864432  1
  N  N21  1  -0.34263183  0.14505956  0.64864496  1
  N  N22  1  -0.50357133  0.32101881  0.15746915  1
  N  N23  1  -0.50357137  0.63612157  0.65746930  1
