# generated using pymatgen
data_Zn2SbN3
_symmetry_space_group_name_H-M   'P 1'
_cell_length_a   10.14476918
_cell_length_b   5.86717985
_cell_length_c   5.54894186
_cell_angle_alpha   89.86026439
_cell_angle_beta   89.85557810
_cell_angle_gamma   90.02960304
_symmetry_Int_Tables_number   1
_chemical_formula_structural   Zn2SbN3
_chemical_formula_sum   'Zn8 Sb4 N12'
_cell_volume   330.27751956
_cell_formula_units_Z   4
loop_
 _symmetry_equiv_pos_site_id
 _symmetry_equiv_pos_as_xyz
  1  'x, y, z'
loop_
 _atom_site_type_symbol
 _atom_site_label
 _atom_site_symmetry_multiplicity
 _atom_site_fract_x
 _atom_site_fract_y
 _atom_site_fract_z
 _atom_site_occupancy
  Zn  Zn0  1  -0.83621984  0.63290188  0.17708566  1
  Zn  Zn1  1  -0.17043752  0.63853291  0.17288483  1
  Zn  Zn2  1  -0.33479108  0.13523510  0.04382968  1
  Zn  Zn3  1  -0.66993454  0.13356185  0.04715727  1
  Zn  Zn4  1  -0.83630615  0.32180528  0.67699722  1
  Zn  Zn5  1  -0.17381195  0.31938899  0.63969992  1
  Zn  Zn6  1  -0.67059173  0.82299345  0.54647162  1
  Zn  Zn7  1  -0.33774245  0.82425212  0.54498759  1
  Sb  Sb8  1  -0.00305621  0.15334174  0.17016738  1
  Sb  Sb9  1  -0.00298416  0.80190835  0.67241085  1
  Sb  Sb10  1  -0.50348596  0.65392333  0.05143109  1
  Sb  Sb11  1  -0.50405087  0.30434122  0.55073280  1
  N  N12  1  -0.00259117  0.82067318  0.04623038  1
  N  N13  1  -0.00156832  0.13376480  0.54624515  1
  N  N14  1  -0.16690475  0.31160944  0.07614176  1
  N  N15  1  -0.84183570  0.31218565  0.05392735  1
  N  N16  1  -0.16528557  0.64924781  0.55559772  1
  N  N17  1  -0.84232582  0.64339025  0.55434734  1
  N  N18  1  -0.66443212  0.81186097  0.16911932  1
  N  N19  1  -0.34314856  0.81365655  0.16762470  1
  N  N20  1  -0.66389902  0.14383617  0.66952434  1
  N  N21  1  -0.34278946  0.14582855  0.66785422  1
  N  N22  1  -0.50369572  0.32154956  0.17682108  1
  N  N23  1  -0.50382567  0.63592463  0.67714943  1
