# generated using pymatgen
data_Zn2SbN3
_symmetry_space_group_name_H-M   'P 1'
_cell_length_a   5.50284522
_cell_length_b   5.85829226
_cell_length_c   10.20868334
_cell_angle_alpha   89.99987982
_cell_angle_beta   89.99997205
_cell_angle_gamma   90.14229777
_symmetry_Int_Tables_number   1
_chemical_formula_structural   Zn2SbN3
_chemical_formula_sum   'Zn8 Sb4 N12'
_cell_volume   329.09912309
_cell_formula_units_Z   4
loop_
 _symmetry_equiv_pos_site_id
 _symmetry_equiv_pos_as_xyz
  1  'x, y, z'
loop_
 _atom_site_type_symbol
 _atom_site_label
 _atom_site_symmetry_multiplicity
 _atom_site_fract_x
 _atom_site_fract_y
 _atom_site_fract_z
 _atom_site_occupancy
  Zn  Zn0  1  0.05378092  0.63821701  0.82172035  1
  Zn  Zn1  1  0.05377923  0.63821580  0.18542537  1
  Zn  Zn2  1  0.04101298  0.13863185  0.33392432  1
  Zn  Zn3  1  0.04101287  0.13863199  0.67321941  1
  Zn  Zn4  1  0.55307320  0.31472029  0.82789298  1
  Zn  Zn5  1  0.55307321  0.31472128  0.17924752  1
  Zn  Zn6  1  0.54369874  0.81746222  0.67512251  1
  Zn  Zn7  1  0.54369853  0.81746512  0.33201924  1
  Sb  Sb8  1  0.12037712  0.16200993  0.00357168  1
  Sb  Sb9  1  0.67291581  0.80406427  0.00357130  1
  Sb  Sb10  1  0.05438378  0.65493592  0.50357208  1
  Sb  Sb11  1  0.55476497  0.30138448  0.50357076  1
  N  N12  1  0.06307748  0.81941163  0.00357206  1
  N  N13  1  0.61002969  0.14455914  0.00357072  1
  N  N14  1  0.16807230  0.31290578  0.17557735  1
  N  N15  1  0.16807210  0.31290595  0.83156572  1
  N  N16  1  0.66630562  0.64089491  0.17566808  1
  N  N17  1  0.66630611  0.64089432  0.83147508  1
  N  N18  1  0.17104265  0.81345826  0.66481494  1
  N  N19  1  0.17104291  0.81345866  0.34232893  1
  N  N20  1  0.66879481  0.14488577  0.66594434  1
  N  N21  1  0.66879508  0.14488738  0.34119707  1
  N  N22  1  0.17772172  0.32102489  0.50357145  1
  N  N23  1  0.67791310  0.63596690  0.50357110  1
