# generated using pymatgen
data_Zn2SbN3
_symmetry_space_group_name_H-M   'P 1'
_cell_length_a   10.17633348
_cell_length_b   5.87672086
_cell_length_c   5.52590245
_cell_angle_alpha   89.82450217
_cell_angle_beta   90.40004528
_cell_angle_gamma   89.93209329
_symmetry_Int_Tables_number   1
_chemical_formula_structural   Zn2SbN3
_chemical_formula_sum   'Zn8 Sb4 N12'
_cell_volume   330.45830261
_cell_formula_units_Z   4
loop_
 _symmetry_equiv_pos_site_id
 _symmetry_equiv_pos_as_xyz
  1  'x, y, z'
loop_
 _atom_site_type_symbol
 _atom_site_label
 _atom_site_symmetry_multiplicity
 _atom_site_fract_x
 _atom_site_fract_y
 _atom_site_fract_z
 _atom_site_occupancy
  Zn  Zn0  1  -0.83555238  0.64336752  0.17402034  1
  Zn  Zn1  1  -0.18517878  0.63219266  0.04815883  1
  Zn  Zn2  1  -0.33221078  0.13704621  0.04258545  1
  Zn  Zn3  1  -0.67201045  0.13787774  0.04521961  1
  Zn  Zn4  1  -0.83015227  0.31474611  0.62268313  1
  Zn  Zn5  1  -0.18382514  0.32228526  0.54995476  1
  Zn  Zn6  1  -0.66787495  0.82257172  0.54747970  1
  Zn  Zn7  1  -0.33069001  0.81933205  0.54157808  1
  Sb  Sb8  1  -0.00136304  0.15358420  0.17201040  1
  Sb  Sb9  1  -0.00026704  0.80156993  0.67599224  1
  Sb  Sb10  1  -0.50374601  0.65509852  0.05420184  1
  Sb  Sb11  1  -0.50254730  0.30351846  0.55320720  1
  N  N12  1  -0.99968966  0.82429492  0.05047922  1
  N  N13  1  -0.00092436  0.12911898  0.55033792  1
  N  N14  1  -0.17530549  0.31199615  0.16881438  1
  N  N15  1  -0.83764077  0.31472442  0.09397780  1
  N  N16  1  -0.17375474  0.64285138  0.66839077  1
  N  N17  1  -0.84030458  0.64597970  0.55858057  1
  N  N18  1  -0.66268858  0.81633414  0.16952472  1
  N  N19  1  -0.34054632  0.81116416  0.17021893  1
  N  N20  1  -0.66280641  0.14411563  0.66986326  1
  N  N21  1  -0.34060665  0.14434259  0.67070258  1
  N  N22  1  -0.50334817  0.32206644  0.17799275  1
  N  N23  1  -0.50268049  0.63553483  0.67848141  1
