# generated using pymatgen
data_Zn2SbN3
_symmetry_space_group_name_H-M   'P 1'
_cell_length_a   10.14976591
_cell_length_b   5.84416998
_cell_length_c   5.48751067
_cell_angle_alpha   89.75860096
_cell_angle_beta   90.00017631
_cell_angle_gamma   89.99994054
_symmetry_Int_Tables_number   1
_chemical_formula_structural   Zn2SbN3
_chemical_formula_sum   'Zn8 Sb4 N12'
_cell_volume   325.49954706
_cell_formula_units_Z   4
loop_
 _symmetry_equiv_pos_site_id
 _symmetry_equiv_pos_as_xyz
  1  'x, y, z'
loop_
 _atom_site_type_symbol
 _atom_site_label
 _atom_site_symmetry_multiplicity
 _atom_site_fract_x
 _atom_site_fract_y
 _atom_site_fract_z
 _atom_site_occupancy
  Zn  Zn0  1  0.82769727  -0.64171661  -0.05872100  1
  Zn  Zn1  1  0.17944341  -0.64171783  -0.05872076  1
  Zn  Zn2  1  0.33187890  -0.14141123  -0.04269644  1
  Zn  Zn3  1  0.67526646  -0.14141044  -0.04269550  1
  Zn  Zn4  1  0.83092165  -0.31264105  -0.54172147  1
  Zn  Zn5  1  0.17622400  -0.31264164  -0.54172098  1
  Zn  Zn6  1  0.67382781  -0.81837614  -0.54360612  1
  Zn  Zn7  1  0.33331449  -0.81837628  -0.54360658  1
  Sb  Sb8  1  0.00357202  -0.16032204  -0.05860311  1
  Sb  Sb9  1  0.00357087  -0.79746216  -0.61103029  1
  Sb  Sb10  1  0.50357066  -0.65616584  -0.05460802  1
  Sb  Sb11  1  0.50357186  -0.30160685  -0.55502298  1
  N  N12  1  0.00357051  -0.81694187  -0.12316079  1
  N  N13  1  0.00357195  -0.14731272  -0.67630610  1
  N  N14  1  0.17029328  -0.31011122  -0.16923035  1
  N  N15  1  0.83685045  -0.31011101  -0.16923093  1
  N  N16  1  0.17457963  -0.64046688  -0.66943368  1
  N  N17  1  0.83256189  -0.64046650  -0.66943380  1
  N  N18  1  0.66599546  -0.81335160  -0.17034204  1
  N  N19  1  0.34114589  -0.81335152  -0.17034222  1
  N  N20  1  0.66761500  -0.14605147  -0.66871782  1
  N  N21  1  0.33952861  -0.14605126  -0.66871850  1
  N  N22  1  0.50357162  -0.32114313  -0.17748350  1
  N  N23  1  0.50357069  -0.63650645  -0.67759198  1
