# generated using pymatgen
data_Zn2SbN3
_symmetry_space_group_name_H-M   'P 1'
_cell_length_a   10.16194004
_cell_length_b   5.85245776
_cell_length_c   5.49326939
_cell_angle_alpha   89.76743187
_cell_angle_beta   90.00005416
_cell_angle_gamma   89.99995342
_symmetry_Int_Tables_number   1
_chemical_formula_structural   Zn2SbN3
_chemical_formula_sum   'Zn8 Sb4 N12'
_cell_volume   326.69481020
_cell_formula_units_Z   4
loop_
 _symmetry_equiv_pos_site_id
 _symmetry_equiv_pos_as_xyz
  1  'x, y, z'
loop_
 _atom_site_type_symbol
 _atom_site_label
 _atom_site_symmetry_multiplicity
 _atom_site_fract_x
 _atom_site_fract_y
 _atom_site_fract_z
 _atom_site_occupancy
  Zn  Zn0  1  -0.82527099  0.63984777  0.06188317  1
  Zn  Zn1  1  -0.18187049  0.63984919  0.06188338  1
  Zn  Zn2  1  -0.33215420  0.14114958  0.04218221  1
  Zn  Zn3  1  -0.67499055  0.14114858  0.04218122  1
  Zn  Zn4  1  -0.83111405  0.31254943  0.54154463  1
  Zn  Zn5  1  -0.17603119  0.31255006  0.54154437  1
  Zn  Zn6  1  -0.67389724  0.81868976  0.54362241  1
  Zn  Zn7  1  -0.33324521  0.81869004  0.54362307  1
  Sb  Sb8  1  -0.00357185  0.16487423  0.05712259  1
  Sb  Sb9  1  -0.00357095  0.79648001  0.66093869  1
  Sb  Sb10  1  -0.50357074  0.65592939  0.05426060  1
  Sb  Sb11  1  -0.50357175  0.30164773  0.55521761  1
  N  N12  1  -0.00357069  0.81707651  0.07987616  1
  N  N13  1  -0.00357186  0.15208367  0.67332044  1
  N  N14  1  -0.17073368  0.30933542  0.16932836  1
  N  N15  1  -0.83640983  0.30933504  0.16932877  1
  N  N16  1  -0.17638185  0.63868076  0.66586953  1
  N  N17  1  -0.83075972  0.63868016  0.66586966  1
  N  N18  1  -0.66552803  0.81372113  0.17048707  1
  N  N19  1  -0.34161374  0.81372144  0.17048741  1
  N  N20  1  -0.66751078  0.14600934  0.66847458  1
  N  N21  1  -0.33963271  0.14600920  0.66847532  1
  N  N22  1  -0.50357152  0.32131578  0.17759823  1
  N  N23  1  -0.50357075  0.63633954  0.67762547  1
