# generated using pymatgen
data_Zn2SbN3
_symmetry_space_group_name_H-M   'P 1'
_cell_length_a   5.53358369
_cell_length_b   5.87429674
_cell_length_c   10.15303367
_cell_angle_alpha   89.84556350
_cell_angle_beta   90.03093117
_cell_angle_gamma   89.83039695
_symmetry_Int_Tables_number   1
_chemical_formula_structural   Zn2SbN3
_chemical_formula_sum   'Zn8 Sb4 N12'
_cell_volume   330.03093113
_cell_formula_units_Z   4
loop_
 _symmetry_equiv_pos_site_id
 _symmetry_equiv_pos_as_xyz
  1  'x, y, z'
loop_
 _atom_site_type_symbol
 _atom_site_label
 _atom_site_symmetry_multiplicity
 _atom_site_fract_x
 _atom_site_fract_y
 _atom_site_fract_z
 _atom_site_occupancy
  Zn  Zn0  1  0.17736152  0.63444800  0.83550968  1
  Zn  Zn1  1  0.08469571  0.63853314  0.17837086  1
  Zn  Zn2  1  0.03912426  0.13932943  0.33158730  1
  Zn  Zn3  1  0.04714299  0.13492974  0.66890106  1
  Zn  Zn4  1  0.67599329  0.31991366  0.83575595  1
  Zn  Zn5  1  0.55135295  0.31984232  0.18209481  1
  Zn  Zn6  1  0.54754793  0.82238811  0.66996593  1
  Zn  Zn7  1  0.54281407  0.82334266  0.33340072  1
  Sb  Sb8  1  0.17315733  0.15136210  0.99941662  1
  Sb  Sb9  1  0.67136549  0.80064106  0.00128673  1
  Sb  Sb10  1  0.05206746  0.65527752  0.50316878  1
  Sb  Sb11  1  0.55257381  0.30436998  0.50360149  1
  N  N12  1  0.04757222  0.82234307  0.99964237  1
  N  N13  1  0.54801560  0.13044705  0.99755314  1
  N  N14  1  0.16393536  0.30892259  0.17292885  1
  N  N15  1  0.05268529  0.31498408  0.84138322  1
  N  N16  1  0.64144049  0.64642653  0.17331863  1
  N  N17  1  0.55384321  0.64045986  0.84167759  1
  N  N18  1  0.16951917  0.81353628  0.66342565  1
  N  N19  1  0.16860503  0.81444238  0.34110625  1
  N  N20  1  0.66968360  0.14313422  0.66337976  1
  N  N21  1  0.66929536  0.14738209  0.34111176  1
  N  N22  1  0.17742791  0.32276090  0.50315983  1
  N  N23  1  0.67721866  0.63649699  0.50396740  1
