# generated using pymatgen
data_Zn2SbN3
_symmetry_space_group_name_H-M   'P 1'
_cell_length_a   10.20532327
_cell_length_b   5.87192074
_cell_length_c   5.51052396
_cell_angle_alpha   89.87480132
_cell_angle_beta   90.26213860
_cell_angle_gamma   89.90265308
_symmetry_Int_Tables_number   1
_chemical_formula_structural   Zn2SbN3
_chemical_formula_sum   'Zn8 Sb4 N12'
_cell_volume   330.21259159
_cell_formula_units_Z   4
loop_
 _symmetry_equiv_pos_site_id
 _symmetry_equiv_pos_as_xyz
  1  'x, y, z'
loop_
 _atom_site_type_symbol
 _atom_site_label
 _atom_site_symmetry_multiplicity
 _atom_site_fract_x
 _atom_site_fract_y
 _atom_site_fract_z
 _atom_site_occupancy
  Zn  Zn0  1  -0.82449613  0.63912366  0.06700897  1
  Zn  Zn1  1  -0.18581845  0.63503050  0.05002201  1
  Zn  Zn2  1  -0.33307557  0.13854353  0.04269713  1
  Zn  Zn3  1  -0.67439604  0.14062566  0.04212474  1
  Zn  Zn4  1  -0.82278286  0.31888821  0.55479427  1
  Zn  Zn5  1  -0.18492316  0.32076900  0.55196442  1
  Zn  Zn6  1  -0.67346978  0.81940351  0.54399887  1
  Zn  Zn7  1  -0.33210931  0.81855907  0.54238939  1
  Sb  Sb8  1  -0.00395169  0.15288854  0.17408964  1
  Sb  Sb9  1  -0.00271683  0.80179057  0.67379211  1
  Sb  Sb10  1  -0.50395089  0.65590856  0.05461617  1
  Sb  Sb11  1  -0.50333498  0.30276241  0.55482610  1
  N  N12  1  -0.00322645  0.82626391  0.05201784  1
  N  N13  1  -0.00360416  0.12876877  0.55194708  1
  N  N14  1  -0.17626411  0.31412362  0.16685014  1
  N  N15  1  -0.83200955  0.31361680  0.16513599  1
  N  N16  1  -0.17525608  0.64175061  0.66679374  1
  N  N17  1  -0.83097254  0.64225909  0.66032637  1
  N  N18  1  -0.66487346  0.81515587  0.17075896  1
  N  N19  1  -0.34184934  0.81278454  0.17032260  1
  N  N20  1  -0.66439228  0.14440765  0.67067851  1
  N  N21  1  -0.34150244  0.14385743  0.67047951  1
  N  N22  1  -0.50376540  0.32232330  0.17836652  1
  N  N23  1  -0.50297288  0.63610943  0.67828517  1
