# generated using pymatgen
data_Zn2SbN3
_symmetry_space_group_name_H-M   'P 1'
_cell_length_a   5.56045023
_cell_length_b   5.85126301
_cell_length_c   10.13417169
_cell_angle_alpha   90.00040932
_cell_angle_beta   90.00001483
_cell_angle_gamma   90.00001855
_symmetry_Int_Tables_number   1
_chemical_formula_structural   Zn2SbN3
_chemical_formula_sum   'Zn8 Sb4 N12'
_cell_volume   329.72193149
_cell_formula_units_Z   4
loop_
 _symmetry_equiv_pos_site_id
 _symmetry_equiv_pos_as_xyz
  1  'x, y, z'
loop_
 _atom_site_type_symbol
 _atom_site_label
 _atom_site_symmetry_multiplicity
 _atom_site_fract_x
 _atom_site_fract_y
 _atom_site_fract_z
 _atom_site_occupancy
  Zn  Zn0  1  0.14867636  0.63364172  0.83670126  1
  Zn  Zn1  1  0.14868485  0.63364675  0.17044090  1
  Zn  Zn2  1  0.01911146  0.13364642  0.33670047  1
  Zn  Zn3  1  0.01910263  0.13364101  0.67044025  1
  Zn  Zn4  1  0.64867853  0.32350067  0.83670309  1
  Zn  Zn5  1  0.64868729  0.32350398  0.17044058  1
  Zn  Zn6  1  0.51909874  0.82349962  0.67044075  1
  Zn  Zn7  1  0.51911016  0.82350446  0.33670375  1
  Sb  Sb8  1  0.14299341  0.15346455  0.00356792  1
  Sb  Sb9  1  0.64299232  0.80367548  0.00357479  1
  Sb  Sb10  1  0.02480016  0.65346403  0.50356663  1
  Sb  Sb11  1  0.52480148  0.30367601  0.50357424  1
  N  N12  1  0.01660872  0.82090408  0.00357191  1
  N  N13  1  0.51660925  0.13623540  0.00357071  1
  N  N14  1  0.02544089  0.31200782  0.16452214  1
  N  N15  1  0.02543641  0.31200113  0.84262593  1
  N  N16  1  0.52544345  0.64514104  0.16451728  1
  N  N17  1  0.52543113  0.64513473  0.84261934  1
  N  N18  1  0.14235105  0.81200410  0.66452412  1
  N  N19  1  0.14235615  0.81200592  0.34262768  1
  N  N20  1  0.64234894  0.14513596  0.66451734  1
  N  N21  1  0.64236144  0.14513865  0.34261953  1
  N  N22  1  0.15118542  0.32090418  0.50357235  1
  N  N23  1  0.65118478  0.63623611  0.50357123  1
