# generated using pymatgen
data_Zn2SbN3
_symmetry_space_group_name_H-M   'P 1'
_cell_length_a   10.20185918
_cell_length_b   5.87581266
_cell_length_c   5.51245152
_cell_angle_alpha   89.84554812
_cell_angle_beta   90.31319589
_cell_angle_gamma   89.86361983
_symmetry_Int_Tables_number   1
_chemical_formula_structural   Zn2SbN3
_chemical_formula_sum   'Zn8 Sb4 N12'
_cell_volume   330.43248460
_cell_formula_units_Z   4
loop_
 _symmetry_equiv_pos_site_id
 _symmetry_equiv_pos_as_xyz
  1  'x, y, z'
loop_
 _atom_site_type_symbol
 _atom_site_label
 _atom_site_symmetry_multiplicity
 _atom_site_fract_x
 _atom_site_fract_y
 _atom_site_fract_z
 _atom_site_occupancy
  Zn  Zn0  1  0.82675351  -0.64128195  -0.08627607  1
  Zn  Zn1  1  0.18591499  -0.63438960  -0.04929841  1
  Zn  Zn2  1  0.33314699  -0.13822815  -0.04255071  1
  Zn  Zn3  1  0.67413953  -0.14098541  -0.04136924  1
  Zn  Zn4  1  0.82349965  -0.31678428  -0.55701527  1
  Zn  Zn5  1  0.18464946  -0.32101462  -0.55235874  1
  Zn  Zn6  1  0.67252054  -0.82074379  -0.54461600  1
  Zn  Zn7  1  0.33180564  -0.81876401  -0.54223104  1
  Sb  Sb8  1  0.00409283  -0.15232647  -0.17423804  1
  Sb  Sb9  1  0.00213744  -0.80098313  -0.67347114  1
  Sb  Sb10  1  0.50391326  -0.65582741  -0.05399272  1
  Sb  Sb11  1  0.50315768  -0.30325387  -0.55436839  1
  N  N12  1  0.00249426  -0.82539335  -0.05207595  1
  N  N13  1  0.00377501  -0.12843865  -0.55224648  1
  N  N14  1  0.17639018  -0.31371570  -0.16706548  1
  N  N15  1  0.83228098  -0.31227094  -0.16247424  1
  N  N16  1  0.17508414  -0.64187635  -0.66743246  1
  N  N17  1  0.83186816  -0.64311748  -0.64451990  1
  N  N18  1  0.66433344  -0.81613363  -0.17003622  1
  N  N19  1  0.34176542  -0.81252455  -0.17017705  1
  N  N20  1  0.66402884  -0.14489419  -0.67040643  1
  N  N21  1  0.34138086  -0.14395996  -0.67033565  1
  N  N22  1  0.50379565  -0.32254648  -0.17803180  1
  N  N23  1  0.50278591  -0.63625975  -0.67786842  1
