# generated using pymatgen
data_Zn2SbN3
_symmetry_space_group_name_H-M   'P 1'
_cell_length_a   5.49514513
_cell_length_b   5.85919045
_cell_length_c   10.17445873
_cell_angle_alpha   89.99980605
_cell_angle_beta   89.99872787
_cell_angle_gamma   89.99357615
_symmetry_Int_Tables_number   1
_chemical_formula_structural   Zn2SbN3
_chemical_formula_sum   'Zn8 Sb4 N12'
_cell_volume   327.58808171
_cell_formula_units_Z   4
loop_
 _symmetry_equiv_pos_site_id
 _symmetry_equiv_pos_as_xyz
  1  'x, y, z'
loop_
 _atom_site_type_symbol
 _atom_site_label
 _atom_site_symmetry_multiplicity
 _atom_site_fract_x
 _atom_site_fract_y
 _atom_site_fract_z
 _atom_site_occupancy
  Zn  Zn0  1  0.06137176  0.63812802  0.82306219  1
  Zn  Zn1  1  0.06136716  0.63812829  0.18408122  1
  Zn  Zn2  1  0.04181496  0.14007443  0.33268378  1
  Zn  Zn3  1  0.04181224  0.14007555  0.67446046  1
  Zn  Zn4  1  0.54270881  0.31277846  0.83094385  1
  Zn  Zn5  1  0.54270600  0.31277771  0.17620047  1
  Zn  Zn6  1  0.54430493  0.81845233  0.67431716  1
  Zn  Zn7  1  0.54430766  0.81845359  0.33282723  1
  Sb  Sb8  1  0.05587295  0.16894145  0.00357169  1
  Sb  Sb9  1  0.67375279  0.79669078  0.00357183  1
  Sb  Sb10  1  0.05461782  0.65512465  0.50357169  1
  Sb  Sb11  1  0.55539690  0.30131625  0.50357174  1
  N  N12  1  0.06609279  0.81893538  0.00357088  1
  N  N13  1  0.67095363  0.15368550  0.00357118  1
  N  N14  1  0.16997420  0.30894610  0.17139483  1
  N  N15  1  0.16997557  0.30894590  0.83574588  1
  N  N16  1  0.66517619  0.63865773  0.17662726  1
  N  N17  1  0.66517653  0.63866008  0.83051649  1
  N  N18  1  0.17124489  0.81395957  0.66496029  1
  N  N19  1  0.17124642  0.81395860  0.34218019  1
  N  N20  1  0.66846796  0.14597926  0.66730476  1
  N  N21  1  0.66846959  0.14597993  0.33983696  1
  N  N22  1  0.17787202  0.32113208  0.50357099  1
  N  N23  1  0.67806118  0.63593211  0.50357134  1
