# generated using pymatgen
data_Zn2SbN3
_symmetry_space_group_name_H-M   'P 1'
_cell_length_a   5.48559027
_cell_length_b   5.84140473
_cell_length_c   10.14503634
_cell_angle_alpha   90.00005811
_cell_angle_beta   89.99979798
_cell_angle_gamma   89.75777733
_symmetry_Int_Tables_number   1
_chemical_formula_structural   Zn2SbN3
_chemical_formula_sum   'Zn8 Sb4 N12'
_cell_volume   325.08010377
_cell_formula_units_Z   4
loop_
 _symmetry_equiv_pos_site_id
 _symmetry_equiv_pos_as_xyz
  1  'x, y, z'
loop_
 _atom_site_type_symbol
 _atom_site_label
 _atom_site_symmetry_multiplicity
 _atom_site_fract_x
 _atom_site_fract_y
 _atom_site_fract_z
 _atom_site_occupancy
  Zn  Zn0  1  0.05727626  0.64198951  0.82823575  1
  Zn  Zn1  1  0.05727611  0.64199058  0.17890478  1
  Zn  Zn2  1  0.04280856  0.14144706  0.33184833  1
  Zn  Zn3  1  0.04280751  0.14144629  0.67529723  1
  Zn  Zn4  1  0.54206783  0.31290240  0.83089273  1
  Zn  Zn5  1  0.54206728  0.31290293  0.17625294  1
  Zn  Zn6  1  0.54375045  0.81817080  0.67392873  1
  Zn  Zn7  1  0.54375104  0.81817090  0.33321361  1
  Sb  Sb8  1  0.05847777  0.15951174  0.00357181  1
  Sb  Sb9  1  0.59537036  0.79783833  0.00357061  1
  Sb  Sb10  1  0.05468574  0.65625916  0.50357089  1
  Sb  Sb11  1  0.55501986  0.30159843  0.50357211  1
  N  N12  1  0.13755838  0.81691932  0.00357046  1
  N  N13  1  0.67704964  0.14534866  0.00357187  1
  N  N14  1  0.16933726  0.31012506  0.17009619  1
  N  N15  1  0.16933781  0.31012491  0.83704764  1
  N  N16  1  0.67036712  0.64135610  0.17367039  1
  N  N17  1  0.67036717  0.64135592  0.83347121  1
  N  N18  1  0.17034648  0.81322174  0.66616715  1
  N  N19  1  0.17034670  0.81322171  0.34097398  1
  N  N20  1  0.66880507  0.14607616  0.66764948  1
  N  N21  1  0.66880580  0.14607586  0.33949400  1
  N  N22  1  0.17746218  0.32109697  0.50357171  1
  N  N23  1  0.67760258  0.63656323  0.50357076  1
