# generated using pymatgen
data_Zn2SbN3
_symmetry_space_group_name_H-M   'P 1'
_cell_length_a   5.55276727
_cell_length_b   5.85461062
_cell_length_c   10.14065625
_cell_angle_alpha   90.00009918
_cell_angle_beta   89.99953751
_cell_angle_gamma   90.00058581
_symmetry_Int_Tables_number   1
_chemical_formula_structural   Zn2SbN3
_chemical_formula_sum   'Zn8 Sb4 N12'
_cell_volume   329.66553731
_cell_formula_units_Z   4
loop_
 _symmetry_equiv_pos_site_id
 _symmetry_equiv_pos_as_xyz
  1  'x, y, z'
loop_
 _atom_site_type_symbol
 _atom_site_label
 _atom_site_symmetry_multiplicity
 _atom_site_fract_x
 _atom_site_fract_y
 _atom_site_fract_z
 _atom_site_occupancy
  Zn  Zn0  1  0.17413950  0.63381174  0.83666657  1
  Zn  Zn1  1  0.17414811  0.63381073  0.17047760  1
  Zn  Zn2  1  0.04497081  0.13380872  0.33666648  1
  Zn  Zn3  1  0.04495853  0.13381348  0.67047759  1
  Zn  Zn4  1  0.67414097  0.32334175  0.83666536  1
  Zn  Zn5  1  0.67414154  0.32333664  0.17047848  1
  Zn  Zn6  1  0.54495762  0.82333737  0.67047429  1
  Zn  Zn7  1  0.54497188  0.82333403  0.33666552  1
  Sb  Sb8  1  0.16858497  0.15363592  0.00357086  1
  Sb  Sb9  1  0.66858363  0.80350942  0.00356906  1
  Sb  Sb10  1  0.05051219  0.65363661  0.50357192  1
  Sb  Sb11  1  0.55051089  0.30350532  0.50357069  1
  N  N12  1  0.04257429  0.82105529  0.00357211  1
  N  N13  1  0.54257595  0.13608810  0.00357010  1
  N  N14  1  0.05134403  0.31205670  0.16452835  1
  N  N15  1  0.05132391  0.31206042  0.84261911  1
  N  N16  1  0.55133315  0.64508540  0.16452410  1
  N  N17  1  0.55132360  0.64508715  0.84261569  1
  N  N18  1  0.16776310  0.81206101  0.66452620  1
  N  N19  1  0.16777615  0.81205817  0.34261896  1
  N  N20  1  0.66776479  0.14508768  0.66452523  1
  N  N21  1  0.66777570  0.14508522  0.34261740  1
  N  N22  1  0.17651991  0.32105671  0.50357249  1
  N  N23  1  0.67652056  0.63608581  0.50357030  1
