# generated using pymatgen
data_Zn2SbN3
_symmetry_space_group_name_H-M   'P 1'
_cell_length_a   5.47209623
_cell_length_b   5.82110799
_cell_length_c   10.10289793
_cell_angle_alpha   90.00000777
_cell_angle_beta   89.99986024
_cell_angle_gamma   89.99995147
_symmetry_Int_Tables_number   1
_chemical_formula_structural   Zn2SbN3
_chemical_formula_sum   'Zn8 Sb4 N12'
_cell_volume   321.81430710
_cell_formula_units_Z   4
loop_
 _symmetry_equiv_pos_site_id
 _symmetry_equiv_pos_as_xyz
  1  'x, y, z'
loop_
 _atom_site_type_symbol
 _atom_site_label
 _atom_site_symmetry_multiplicity
 _atom_site_fract_x
 _atom_site_fract_y
 _atom_site_fract_z
 _atom_site_occupancy
  Zn  Zn0  1  0.06070051  0.64118506  0.83152724  1
  Zn  Zn1  1  0.06069869  0.64118462  0.17561689  1
  Zn  Zn2  1  0.06070038  0.14118508  0.33152729  1
  Zn  Zn3  1  0.06069875  0.14118458  0.67561702  1
  Zn  Zn4  1  0.56070018  0.31595703  0.83152787  1
  Zn  Zn5  1  0.56069783  0.31595816  0.17561776  1
  Zn  Zn6  1  0.56069808  0.81595820  0.67561778  1
  Zn  Zn7  1  0.56070000  0.81595701  0.33152792  1
  Sb  Sb8  1  0.07202119  0.15662814  0.00357083  1
  Sb  Sb9  1  0.57202151  0.80051498  0.00357115  1
  Sb  Sb10  1  0.07202120  0.65662815  0.50357087  1
  Sb  Sb11  1  0.57202153  0.30051497  0.50357117  1
  N  N12  1  0.19400640  0.82020565  0.00357047  1
  N  N13  1  0.69400625  0.13693756  0.00357089  1
  N  N14  1  0.18577378  0.31101532  0.16856170  1
  N  N15  1  0.18577502  0.31101583  0.83857992  1
  N  N16  1  0.68577404  0.64612761  0.16856202  1
  N  N17  1  0.68577527  0.64612684  0.83858025  1
  N  N18  1  0.18577377  0.81101542  0.66856171  1
  N  N19  1  0.18577503  0.81101584  0.33857994  1
  N  N20  1  0.68577412  0.14612755  0.66856201  1
  N  N21  1  0.68577529  0.14612681  0.33858028  1
  N  N22  1  0.19400643  0.32020565  0.50357057  1
  N  N23  1  0.69400623  0.63693758  0.50357095  1
