# generated using pymatgen
data_Zn2SbN3
_symmetry_space_group_name_H-M   'P 1'
_cell_length_a   10.15341936
_cell_length_b   5.87649754
_cell_length_c   5.53550855
_cell_angle_alpha   89.81643306
_cell_angle_beta   89.94622239
_cell_angle_gamma   90.18268428
_symmetry_Int_Tables_number   1
_chemical_formula_structural   Zn2SbN3
_chemical_formula_sum   'Zn8 Sb4 N12'
_cell_volume   330.28114096
_cell_formula_units_Z   4
loop_
 _symmetry_equiv_pos_site_id
 _symmetry_equiv_pos_as_xyz
  1  'x, y, z'
loop_
 _atom_site_type_symbol
 _atom_site_label
 _atom_site_symmetry_multiplicity
 _atom_site_fract_x
 _atom_site_fract_y
 _atom_site_fract_z
 _atom_site_occupancy
  Zn  Zn0  1  0.83554052  -0.63404508  -0.17773148  1
  Zn  Zn1  1  0.17657640  -0.64021772  -0.10601698  1
  Zn  Zn2  1  0.33177904  -0.13947163  -0.03875252  1
  Zn  Zn3  1  0.66889704  -0.13474575  -0.04704831  1
  Zn  Zn4  1  0.83578717  -0.32002392  -0.67598565  1
  Zn  Zn5  1  0.18167919  -0.31798627  -0.55300745  1
  Zn  Zn6  1  0.67011729  -0.82248546  -0.54754730  1
  Zn  Zn7  1  0.33436069  -0.82445226  -0.54361062  1
  Sb  Sb8  1  0.99941954  -0.15087631  -0.17326728  1
  Sb  Sb9  1  0.00171885  -0.80006610  -0.67111827  1
  Sb  Sb10  1  0.50329440  -0.65516362  -0.05167665  1
  Sb  Sb11  1  0.50371689  -0.30467197  -0.55230967  1
  N  N12  1  0.00043682  -0.82141060  -0.04757084  1
  N  N13  1  0.99740213  -0.13031829  -0.54828227  1
  N  N14  1  0.17282802  -0.30762317  -0.16192002  1
  N  N15  1  0.84137499  -0.31458284  -0.05276060  1
  N  N16  1  0.17195600  -0.64800360  -0.62106745  1
  N  N17  1  0.84159770  -0.64069928  -0.55425456  1
  N  N18  1  0.66354154  -0.81336227  -0.16936978  1
  N  N19  1  0.34173709  -0.81514389  -0.16790624  1
  N  N20  1  0.66337700  -0.14317642  -0.66966519  1
  N  N21  1  0.34135810  -0.14778842  -0.66928944  1
  N  N22  1  0.50318242  -0.32283740  -0.17728359  1
  N  N23  1  0.50403553  -0.63656150  -0.67699651  1
