# generated using pymatgen
data_Zn2SbN3
_symmetry_space_group_name_H-M   'P 1'
_cell_length_a   10.10456979
_cell_length_b   5.82205697
_cell_length_c   5.46825475
_cell_angle_alpha   89.99996909
_cell_angle_beta   90.00019788
_cell_angle_gamma   89.99998916
_symmetry_Int_Tables_number   1
_chemical_formula_structural   Zn2SbN3
_chemical_formula_sum   'Zn8 Sb4 N12'
_cell_volume   321.69404241
_cell_formula_units_Z   4
loop_
 _symmetry_equiv_pos_site_id
 _symmetry_equiv_pos_as_xyz
  1  'x, y, z'
loop_
 _atom_site_type_symbol
 _atom_site_label
 _atom_site_symmetry_multiplicity
 _atom_site_fract_x
 _atom_site_fract_y
 _atom_site_fract_z
 _atom_site_occupancy
  Zn  Zn0  1  0.83151223  -0.64117848  -0.06865348  1
  Zn  Zn1  1  0.17563222  -0.64117788  -0.06865173  1
  Zn  Zn2  1  0.33151222  -0.14117848  -0.06865350  1
  Zn  Zn3  1  0.67563222  -0.14117789  -0.06865169  1
  Zn  Zn4  1  0.83151278  -0.31596312  -0.56865319  1
  Zn  Zn5  1  0.17563252  -0.31596409  -0.56865123  1
  Zn  Zn6  1  0.67563258  -0.81596408  -0.56865116  1
  Zn  Zn7  1  0.33151275  -0.81596313  -0.56865326  1
  Sb  Sb8  1  0.00357097  -0.15665520  -0.07997697  1
  Sb  Sb9  1  0.00357115  -0.80048838  -0.57997711  1
  Sb  Sb10  1  0.50357097  -0.65665520  -0.07997696  1
  Sb  Sb11  1  0.50357115  -0.30048839  -0.57997711  1
  N  N12  1  0.00357066  -0.82022988  -0.20179407  1
  N  N13  1  0.00357086  -0.13691398  -0.70179390  1
  N  N14  1  0.16855831  -0.31101949  -0.19361033  1
  N  N15  1  0.83858347  -0.31101997  -0.19361151  1
  N  N16  1  0.16855837  -0.64612353  -0.69361047  1
  N  N17  1  0.83858375  -0.64612290  -0.69361161  1
  N  N18  1  0.66855830  -0.81101949  -0.19361030  1
  N  N19  1  0.33858347  -0.81101995  -0.19361160  1
  N  N20  1  0.66855835  -0.14612352  -0.69361045  1
  N  N21  1  0.33858375  -0.14612288  -0.69361164  1
  N  N22  1  0.50357066  -0.32022989  -0.20179409  1
  N  N23  1  0.50357086  -0.63691396  -0.70179394  1
