# generated using pymatgen
data_Zn2SbN3
_symmetry_space_group_name_H-M   'P 1'
_cell_length_a   5.54318618
_cell_length_b   5.87665666
_cell_length_c   10.15157278
_cell_angle_alpha   89.88118384
_cell_angle_beta   90.14045558
_cell_angle_gamma   89.83463354
_symmetry_Int_Tables_number   1
_chemical_formula_structural   Zn2SbN3
_chemical_formula_sum   'Zn8 Sb4 N12'
_cell_volume   330.68847764
_cell_formula_units_Z   4
loop_
 _symmetry_equiv_pos_site_id
 _symmetry_equiv_pos_as_xyz
  1  'x, y, z'
loop_
 _atom_site_type_symbol
 _atom_site_label
 _atom_site_symmetry_multiplicity
 _atom_site_fract_x
 _atom_site_fract_y
 _atom_site_fract_z
 _atom_site_occupancy
  Zn  Zn0  1  0.17768617  0.63270007  0.83588224  1
  Zn  Zn1  1  0.16869767  0.64441394  0.17058779  1
  Zn  Zn2  1  0.04029823  0.13764879  0.33280558  1
  Zn  Zn3  1  0.04709106  0.13354469  0.66937975  1
  Zn  Zn4  1  0.67642456  0.32094299  0.83596337  1
  Zn  Zn5  1  0.57313381  0.31499891  0.17900635  1
  Zn  Zn6  1  0.54669635  0.82279851  0.67053676  1
  Zn  Zn7  1  0.54562484  0.82537676  0.33790765  1
  Sb  Sb8  1  0.17132338  0.15104013  0.00098661  1
  Sb  Sb9  1  0.67241640  0.80068089  0.00235800  1
  Sb  Sb10  1  0.05169921  0.65423917  0.50343903  1
  Sb  Sb11  1  0.55114941  0.30471492  0.50399125  1
  N  N12  1  0.04658429  0.81957971  0.00223584  1
  N  N13  1  0.54794848  0.13115621  0.99822716  1
  N  N14  1  0.14055000  0.30707954  0.17195548  1
  N  N15  1  0.05316295  0.31294672  0.84158042  1
  N  N16  1  0.56039174  0.65317695  0.16609635  1
  N  N17  1  0.55467298  0.64206731  0.84193137  1
  N  N18  1  0.16886748  0.81204228  0.66438553  1
  N  N19  1  0.16701141  0.81535248  0.34351678  1
  N  N20  1  0.66968265  0.14334088  0.66339323  1
  N  N21  1  0.66931571  0.14784098  0.34179164  1
  N  N22  1  0.17693672  0.32196755  0.50376827  1
  N  N23  1  0.67707320  0.63606340  0.50398793  1
