# generated using pymatgen
data_Zn2SbN3
_symmetry_space_group_name_H-M   'P 1'
_cell_length_a   10.19805818
_cell_length_b   5.87987661
_cell_length_c   5.51630051
_cell_angle_alpha   89.81868850
_cell_angle_beta   90.35251476
_cell_angle_gamma   89.81998877
_symmetry_Int_Tables_number   1
_chemical_formula_structural   Zn2SbN3
_chemical_formula_sum   'Zn8 Sb4 N12'
_cell_volume   330.76614434
_cell_formula_units_Z   4
loop_
 _symmetry_equiv_pos_site_id
 _symmetry_equiv_pos_as_xyz
  1  'x, y, z'
loop_
 _atom_site_type_symbol
 _atom_site_label
 _atom_site_symmetry_multiplicity
 _atom_site_fract_x
 _atom_site_fract_y
 _atom_site_fract_z
 _atom_site_occupancy
  Zn  Zn0  1  0.83000625  -0.64407226  -0.12426109  1
  Zn  Zn1  1  0.18593250  -0.63369672  -0.04856441  1
  Zn  Zn2  1  0.33315748  -0.13789357  -0.04250304  1
  Zn  Zn3  1  0.67384151  -0.14111480  -0.04084801  1
  Zn  Zn4  1  0.82433401  -0.31367891  -0.56072050  1
  Zn  Zn5  1  0.18432576  -0.32129161  -0.55265806  1
  Zn  Zn6  1  0.67080110  -0.82263770  -0.54600097  1
  Zn  Zn7  1  0.33139985  -0.81891398  -0.54207284  1
  Sb  Sb8  1  0.00407805  -0.15167422  -0.17416199  1
  Sb  Sb9  1  0.00131679  -0.80021524  -0.67375892  1
  Sb  Sb10  1  0.50380347  -0.65568506  -0.05354042  1
  Sb  Sb11  1  0.50291456  -0.30373027  -0.55387617  1
  N  N12  1  0.00123057  -0.82403031  -0.05192534  1
  N  N13  1  0.00396575  -0.12794693  -0.55250497  1
  N  N14  1  0.17643229  -0.31322745  -0.16739091  1
  N  N15  1  0.83260751  -0.31036420  -0.15770827  1
  N  N16  1  0.17471248  -0.64209113  -0.66818036  1
  N  N17  1  0.83459200  -0.64541018  -0.60849332  1
  N  N18  1  0.66338781  -0.81728079  -0.16901780  1
  N  N19  1  0.34154601  -0.81221044  -0.17011162  1
  N  N20  1  0.66364097  -0.14552717  -0.67039325  1
  N  N21  1  0.34126338  -0.14403512  -0.67032057  1
  N  N22  1  0.50378288  -0.32269497  -0.17781850  1
  N  N23  1  0.50264137  -0.63629070  -0.67762456  1
