# generated using pymatgen
data_MgGeN2
_symmetry_space_group_name_H-M   'P 1'
_cell_length_a   5.21879951
_cell_length_b   5.59690241
_cell_length_c   6.75517154
_cell_angle_alpha   89.97698390
_cell_angle_beta   90.69913496
_cell_angle_gamma   89.67764784
_symmetry_Int_Tables_number   1
_chemical_formula_structural   MgGeN2
_chemical_formula_sum   'Mg4 Ge4 N8'
_cell_volume   197.29472591
_cell_formula_units_Z   4
loop_
 _symmetry_equiv_pos_site_id
 _symmetry_equiv_pos_as_xyz
  1  'x, y, z'
loop_
 _atom_site_type_symbol
 _atom_site_label
 _atom_site_symmetry_multiplicity
 _atom_site_fract_x
 _atom_site_fract_y
 _atom_site_fract_z
 _atom_site_occupancy
  Mg  Mg0  1  0.02785279  0.40982311  0.10375856  1
  Mg  Mg1  1  0.02410771  0.92833193  0.36254124  1
  Mg  Mg2  1  0.51745754  0.58878272  0.86597110  1
  Mg  Mg3  1  0.51673191  0.07792925  0.61042341  1
  Ge  Ge4  1  0.00183542  0.92724939  0.86365147  1
  Ge  Ge5  1  0.50887435  0.07366055  0.11258534  1
  Ge  Ge6  1  0.07998184  0.42505087  0.61890304  1
  Ge  Ge7  1  0.63931078  0.56989488  0.36230664  1
  N  N8  1  0.14786717  0.05897116  0.09177664  1
  N  N9  1  0.64436811  0.93906521  0.88221374  1
  N  N10  1  0.10311599  0.60334892  0.84956697  1
  N  N11  1  0.10287009  0.09294354  0.63377332  1
  N  N12  1  0.60225784  0.39842158  0.12272890  1
  N  N13  1  0.60514107  0.90789978  0.34340248  1
  N  N14  1  0.01484474  0.56189234  0.37945187  1
  N  N15  1  0.55346606  0.43672140  0.59694730  1
