# generated using pymatgen
data_MgGeN2
_symmetry_space_group_name_H-M   'P 1'
_cell_length_a   5.21880420
_cell_length_b   5.59589227
_cell_length_c   6.75613293
_cell_angle_alpha   89.99715743
_cell_angle_beta   90.73614341
_cell_angle_gamma   89.65934618
_symmetry_Int_Tables_number   1
_chemical_formula_structural   MgGeN2
_chemical_formula_sum   'Mg4 Ge4 N8'
_cell_volume   197.28542764
_cell_formula_units_Z   4
loop_
 _symmetry_equiv_pos_site_id
 _symmetry_equiv_pos_as_xyz
  1  'x, y, z'
loop_
 _atom_site_type_symbol
 _atom_site_label
 _atom_site_symmetry_multiplicity
 _atom_site_fract_x
 _atom_site_fract_y
 _atom_site_fract_z
 _atom_site_occupancy
  Mg  Mg0  1  0.02855712  0.40997633  0.10380964  1
  Mg  Mg1  1  0.02473735  0.92828388  0.36255809  1
  Mg  Mg2  1  0.51595211  0.58837221  0.86518730  1
  Mg  Mg3  1  0.51556333  0.07898442  0.61053373  1
  Ge  Ge4  1  0.00209100  0.92703132  0.86360050  1
  Ge  Ge5  1  0.50891577  0.07360814  0.11243420  1
  Ge  Ge6  1  0.05068605  0.42360879  0.62097844  1
  Ge  Ge7  1  0.64018171  0.57069102  0.36107901  1
  N  N8  1  0.14797033  0.05892410  0.09167879  1
  N  N9  1  0.64450285  0.93892771  0.88211505  1
  N  N10  1  0.10478814  0.60315429  0.84872827  1
  N  N11  1  0.10419880  0.09385736  0.63388987  1
  N  N12  1  0.60235971  0.39841348  0.12248088  1
  N  N13  1  0.60513756  0.90814062  0.34352819  1
  N  N14  1  0.01897245  0.56258984  0.37820043  1
  N  N15  1  0.57546917  0.43542315  0.59919964  1
