# generated using pymatgen
data_MgGeN2
_symmetry_space_group_name_H-M   'P 1'
_cell_length_a   5.21877960
_cell_length_b   5.57752087
_cell_length_c   6.72136786
_cell_angle_alpha   89.99070157
_cell_angle_beta   90.70813163
_cell_angle_gamma   89.66826233
_symmetry_Int_Tables_number   1
_chemical_formula_structural   MgGeN2
_chemical_formula_sum   'Mg4 Ge4 N8'
_cell_volume   195.62635517
_cell_formula_units_Z   4
loop_
 _symmetry_equiv_pos_site_id
 _symmetry_equiv_pos_as_xyz
  1  'x, y, z'
loop_
 _atom_site_type_symbol
 _atom_site_label
 _atom_site_symmetry_multiplicity
 _atom_site_fract_x
 _atom_site_fract_y
 _atom_site_fract_z
 _atom_site_occupancy
  Mg  Mg0  1  0.02666701  0.41222947  0.10682387  1
  Mg  Mg1  1  0.02588163  0.92282041  0.36608267  1
  Mg  Mg2  1  0.50634739  0.58753413  0.86199228  1
  Mg  Mg3  1  0.50689216  0.08412227  0.61360565  1
  Ge  Ge4  1  0.00397678  0.92413279  0.86227622  1
  Ge  Ge5  1  0.50510528  0.07201309  0.11095735  1
  Ge  Ge6  1  0.00121598  0.42424729  0.61771726  1
  Ge  Ge7  1  0.59778221  0.57582600  0.35541882  1
  N  N8  1  0.14656330  0.05792348  0.09328590  1
  N  N9  1  0.64369651  0.93753631  0.88168534  1
  N  N10  1  0.10519136  0.59981006  0.84543172  1
  N  N11  1  0.10522647  0.09912746  0.63586080  1
  N  N12  1  0.60540666  0.39752942  0.12200690  1
  N  N13  1  0.60680594  0.90981699  0.34631702  1
  N  N14  1  0.07156789  0.56181169  0.37810435  1
  N  N15  1  0.63175685  0.43350579  0.60243589  1
