# generated using pymatgen
data_MgGeN2
_symmetry_space_group_name_H-M   'P 1'
_cell_length_a   5.21877428
_cell_length_b   5.58634977
_cell_length_c   6.75930724
_cell_angle_alpha   89.89009609
_cell_angle_beta   89.96316490
_cell_angle_gamma   89.94038200
_symmetry_Int_Tables_number   1
_chemical_formula_structural   MgGeN2
_chemical_formula_sum   'Mg4 Ge4 N8'
_cell_volume   197.05964739
_cell_formula_units_Z   4
loop_
 _symmetry_equiv_pos_site_id
 _symmetry_equiv_pos_as_xyz
  1  'x, y, z'
loop_
 _atom_site_type_symbol
 _atom_site_label
 _atom_site_symmetry_multiplicity
 _atom_site_fract_x
 _atom_site_fract_y
 _atom_site_fract_z
 _atom_site_occupancy
  Mg  Mg0  1  0.11623164  0.42777089  0.11089558  1
  Mg  Mg1  1  0.09765199  0.91173141  0.36818736  1
  Mg  Mg2  1  0.61714415  0.57247326  0.86421578  1
  Mg  Mg3  1  0.58044784  0.08515577  0.60762079  1
  Ge  Ge4  1  0.00008015  0.93195218  0.86216631  1
  Ge  Ge5  1  0.49972551  0.06915857  0.11191738  1
  Ge  Ge6  1  0.12998250  0.42915515  0.61348799  1
  Ge  Ge7  1  0.63028885  0.57153965  0.36183158  1
  N  N8  1  0.13738422  0.05763128  0.08892033  1
  N  N9  1  0.63825057  0.94346676  0.88533306  1
  N  N10  1  0.03242484  0.59365954  0.84300751  1
  N  N11  1  0.05528029  0.09986466  0.62648539  1
  N  N12  1  0.53272815  0.40681047  0.13222275  1
  N  N13  1  0.54225607  0.89807350  0.34848536  1
  N  N14  1  0.98991811  0.55727524  0.38174419  1
  N  N15  1  0.49028853  0.44426830  0.59348069  1
