# generated using pymatgen
data_MgGeN2
_symmetry_space_group_name_H-M   'P 1'
_cell_length_a   5.21887398
_cell_length_b   5.59691647
_cell_length_c   6.75513300
_cell_angle_alpha   90.02306814
_cell_angle_beta   90.69849401
_cell_angle_gamma   90.32254287
_symmetry_Int_Tables_number   1
_chemical_formula_structural   MgGeN2
_chemical_formula_sum   'Mg4 Ge4 N8'
_cell_volume   197.29693415
_cell_formula_units_Z   4
loop_
 _symmetry_equiv_pos_site_id
 _symmetry_equiv_pos_as_xyz
  1  'x, y, z'
loop_
 _atom_site_type_symbol
 _atom_site_label
 _atom_site_symmetry_multiplicity
 _atom_site_fract_x
 _atom_site_fract_y
 _atom_site_fract_z
 _atom_site_occupancy
  Mg  Mg0  1  0.11216027  0.42832814  0.11245887  1
  Mg  Mg1  1  0.10841910  0.90982236  0.37124040  1
  Mg  Mg2  1  0.61952098  0.57792525  0.86457240  1
  Mg  Mg3  1  0.61879488  0.08878718  0.60902312  1
  Ge  Ge4  1  0.05621208  0.92505659  0.85610586  1
  Ge  Ge5  1  0.49697262  0.06989666  0.11269343  1
  Ge  Ge6  1  0.13440367  0.42724828  0.61135290  1
  Ge  Ge7  1  0.62738469  0.57366037  0.36241931  1
  N  N8  1  0.12144831  0.06189019  0.09554414  1
  N  N9  1  0.58285514  0.93672286  0.87805344  1
  N  N10  1  0.03338248  0.59294378  0.84123114  1
  N  N11  1  0.03313810  0.10334666  0.62543150  1
  N  N12  1  0.53112623  0.40790138  0.13159728  1
  N  N13  1  0.53400692  0.89842046  0.35227001  1
  N  N14  1  0.98838728  0.55897201  0.38322321  1
  N  N15  1  0.49187069  0.43906447  0.59278502  1
