# generated using pymatgen
data_MgGeN2
_symmetry_space_group_name_H-M   'P 1'
_cell_length_a   5.21889888
_cell_length_b   5.57389963
_cell_length_c   6.71538751
_cell_angle_alpha   90.01712360
_cell_angle_beta   90.67222805
_cell_angle_gamma   90.31295234
_symmetry_Int_Tables_number   1
_chemical_formula_structural   MgGeN2
_chemical_formula_sum   'Mg4 Ge4 N8'
_cell_volume   195.33168928
_cell_formula_units_Z   4
loop_
 _symmetry_equiv_pos_site_id
 _symmetry_equiv_pos_as_xyz
  1  'x, y, z'
loop_
 _atom_site_type_symbol
 _atom_site_label
 _atom_site_symmetry_multiplicity
 _atom_site_fract_x
 _atom_site_fract_y
 _atom_site_fract_z
 _atom_site_occupancy
  Mg  Mg0  1  0.11172722  0.42156773  0.10897827  1
  Mg  Mg1  1  0.11136712  0.91278074  0.36733753  1
  Mg  Mg2  1  0.62896463  0.58422001  0.86151900  1
  Mg  Mg3  1  0.62936170  0.08739429  0.61303222  1
  Ge  Ge4  1  0.13371779  0.92505255  0.85881374  1
  Ge  Ge5  1  0.56726521  0.07553299  0.11862363  1
  Ge  Ge6  1  0.13201417  0.42419088  0.61272095  1
  Ge  Ge7  1  0.63088855  0.57219252  0.36394729  1
  N  N8  1  0.04319155  0.06137770  0.09629906  1
  N  N9  1  0.50116175  0.93451964  0.87414017  1
  N  N10  1  0.03081158  0.59922784  0.83936296  1
  N  N11  1  0.03089361  0.09963193  0.62955214  1
  N  N12  1  0.52780409  0.40854918  0.12881615  1
  N  N13  1  0.52898011  0.89794093  0.35195414  1
  N  N14  1  0.98951991  0.55809193  0.38146099  1
  N  N15  1  0.49241443  0.43771581  0.59344378  1
