# generated using pymatgen
data_MgGeN2
_symmetry_space_group_name_H-M   'P 1'
_cell_length_a   5.21875445
_cell_length_b   5.57136544
_cell_length_c   6.75169277
_cell_angle_alpha   90.09894105
_cell_angle_beta   89.94878056
_cell_angle_gamma   90.05959837
_symmetry_Int_Tables_number   1
_chemical_formula_structural   MgGeN2
_chemical_formula_sum   'Mg4 Ge4 N8'
_cell_volume   196.30896138
_cell_formula_units_Z   4
loop_
 _symmetry_equiv_pos_site_id
 _symmetry_equiv_pos_as_xyz
  1  'x, y, z'
loop_
 _atom_site_type_symbol
 _atom_site_label
 _atom_site_symmetry_multiplicity
 _atom_site_fract_x
 _atom_site_fract_y
 _atom_site_fract_z
 _atom_site_occupancy
  Mg  Mg0  1  0.10188846  0.42235236  0.11066655  1
  Mg  Mg1  1  0.01552073  0.92785686  0.36419636  1
  Mg  Mg2  1  0.61467215  0.57518856  0.86329073  1
  Mg  Mg3  1  0.51505197  0.07224465  0.61105016  1
  Ge  Ge4  1  0.00304049  0.93216777  0.86125028  1
  Ge  Ge5  1  0.50346638  0.06859312  0.11370753  1
  Ge  Ge6  1  0.13479484  0.43270476  0.61404061  1
  Ge  Ge7  1  0.63449040  0.56799581  0.36162910  1
  N  N8  1  0.14339240  0.05188824  0.09350915  1
  N  N9  1  0.64305650  0.94870127  0.88142120  1
  N  N10  1  0.03729080  0.59354161  0.84443598  1
  N  N11  1  0.10350816  0.09276306  0.63142695  1
  N  N12  1  0.54688052  0.40544421  0.12966008  1
  N  N13  1  0.60335859  0.90757596  0.34360588  1
  N  N14  1  0.99510669  0.55319351  0.38358647  1
  N  N15  1  0.49456436  0.44777489  0.59252501  1
