# generated using pymatgen
data_MgGeN2
_symmetry_space_group_name_H-M   'P 1'
_cell_length_a   5.21887862
_cell_length_b   5.55926450
_cell_length_c   6.69042117
_cell_angle_alpha   90.02815471
_cell_angle_beta   90.53247880
_cell_angle_gamma   90.24489497
_symmetry_Int_Tables_number   1
_chemical_formula_structural   MgGeN2
_chemical_formula_sum   'Mg4 Ge4 N8'
_cell_volume   194.09985397
_cell_formula_units_Z   4
loop_
 _symmetry_equiv_pos_site_id
 _symmetry_equiv_pos_as_xyz
  1  'x, y, z'
loop_
 _atom_site_type_symbol
 _atom_site_label
 _atom_site_symmetry_multiplicity
 _atom_site_fract_x
 _atom_site_fract_y
 _atom_site_fract_z
 _atom_site_occupancy
  Mg  Mg0  1  0.11736664  0.41831804  0.10977235  1
  Mg  Mg1  1  0.11776911  0.91410561  0.36577153  1
  Mg  Mg2  1  0.62630165  0.58465963  0.86253533  1
  Mg  Mg3  1  0.62642421  0.08611098  0.61251865  1
  Ge  Ge4  1  0.13185370  0.92627054  0.86148345  1
  Ge  Ge5  1  0.62075606  0.07424782  0.11527809  1
  Ge  Ge6  1  0.13179663  0.42516049  0.61265812  1
  Ge  Ge7  1  0.62964985  0.57327919  0.36258645  1
  N  N8  1  0.99863457  0.06067355  0.09539624  1
  N  N9  1  0.49406277  0.93775546  0.87878412  1
  N  N10  1  0.02969302  0.59982620  0.84129747  1
  N  N11  1  0.02979887  0.09958575  0.63051236  1
  N  N12  1  0.52690291  0.40309327  0.12936266  1
  N  N13  1  0.52753095  0.89972433  0.34746099  1
  N  N14  1  0.98968380  0.55884874  0.38062493  1
  N  N15  1  0.49185869  0.43832704  0.59395931  1
