# generated using pymatgen
data_MgGeN2
_symmetry_space_group_name_H-M   'P 1'
_cell_length_a   5.21873945
_cell_length_b   5.58626825
_cell_length_c   6.75957578
_cell_angle_alpha   90.11089174
_cell_angle_beta   89.96590149
_cell_angle_gamma   90.05829016
_symmetry_Int_Tables_number   1
_chemical_formula_structural   MgGeN2
_chemical_formula_sum   'Mg4 Ge4 N8'
_cell_volume   197.06328936
_cell_formula_units_Z   4
loop_
 _symmetry_equiv_pos_site_id
 _symmetry_equiv_pos_as_xyz
  1  'x, y, z'
loop_
 _atom_site_type_symbol
 _atom_site_label
 _atom_site_symmetry_multiplicity
 _atom_site_fract_x
 _atom_site_fract_y
 _atom_site_fract_z
 _atom_site_occupancy
  Mg  Mg0  1  0.03902559  0.41179381  0.10687593  1
  Mg  Mg1  1  0.01998404  0.92777034  0.36410913  1
  Mg  Mg2  1  0.55670300  0.58503190  0.86728805  1
  Mg  Mg3  1  0.51905716  0.07247306  0.61077751  1
  Ge  Ge4  1  0.00624730  0.92921279  0.86150257  1
  Ge  Ge5  1  0.50594513  0.07151212  0.11318015  1
  Ge  Ge6  1  0.13615588  0.43197954  0.61286361  1
  Ge  Ge7  1  0.63651192  0.56914980  0.36307325  1
  N  N8  1  0.14630816  0.05721834  0.09326580  1
  N  N9  1  0.64592298  0.94435606  0.88151510  1
  N  N10  1  0.08033451  0.59979143  0.84845409  1
  N  N11  1  0.10382292  0.09366664  0.63198875  1
  N  N12  1  0.59373479  0.39810188  0.12655792  1
  N  N13  1  0.60351695  0.90681064  0.34278581  1
  N  N14  1  0.99884804  0.55760505  0.38607758  1
  N  N15  1  0.49796505  0.44351323  0.58968678  1
