# generated using pymatgen
data_MgGeN2
_symmetry_space_group_name_H-M   'P 1'
_cell_length_a   5.21872492
_cell_length_b   5.55927135
_cell_length_c   6.69044570
_cell_angle_alpha   89.97197200
_cell_angle_beta   90.53251681
_cell_angle_gamma   89.75509780
_symmetry_Int_Tables_number   1
_chemical_formula_structural   MgGeN2
_chemical_formula_sum   'Mg4 Ge4 N8'
_cell_volume   194.09508724
_cell_formula_units_Z   4
loop_
 _symmetry_equiv_pos_site_id
 _symmetry_equiv_pos_as_xyz
  1  'x, y, z'
loop_
 _atom_site_type_symbol
 _atom_site_label
 _atom_site_symmetry_multiplicity
 _atom_site_fract_x
 _atom_site_fract_y
 _atom_site_fract_z
 _atom_site_occupancy
  Mg  Mg0  1  0.01850022  0.41410711  0.10923020  1
  Mg  Mg1  1  0.01890291  0.91831506  0.36522936  1
  Mg  Mg2  1  0.50983986  0.58610982  0.86248137  1
  Mg  Mg3  1  0.50996254  0.08466000  0.61246268  1
  Ge  Ge4  1  0.00445655  0.92516058  0.86234151  1
  Ge  Ge5  1  0.50661122  0.07328044  0.11241527  1
  Ge  Ge6  1  0.00440529  0.42626954  0.61351671  1
  Ge  Ge7  1  0.51550357  0.57424944  0.35972058  1
  N  N8  1  0.14657007  0.05884752  0.09437649  1
  N  N9  1  0.64439020  0.93832857  0.88104000  1
  N  N10  1  0.10645682  0.59958575  0.84448747  1
  N  N11  1  0.10656346  0.09982557  0.63370396  1
  N  N12  1  0.60873225  0.39972541  0.12753944  1
  N  N13  1  0.60936137  0.90309323  0.34563671  1
  N  N14  1  0.13763496  0.56067105  0.37960665  1
  N  N15  1  0.64219213  0.43775753  0.59621363  1
