# generated using pymatgen
data_MgGeN2
_symmetry_space_group_name_H-M   'P 1'
_cell_length_a   5.21890792
_cell_length_b   5.58095273
_cell_length_c   6.72717253
_cell_angle_alpha   89.99955289
_cell_angle_beta   90.74047298
_cell_angle_gamma   90.34897801
_symmetry_Int_Tables_number   1
_chemical_formula_structural   MgGeN2
_chemical_formula_sum   'Mg4 Ge4 N8'
_cell_volume   195.91884796
_cell_formula_units_Z   4
loop_
 _symmetry_equiv_pos_site_id
 _symmetry_equiv_pos_as_xyz
  1  'x, y, z'
loop_
 _atom_site_type_symbol
 _atom_site_label
 _atom_site_symmetry_multiplicity
 _atom_site_fract_x
 _atom_site_fract_y
 _atom_site_fract_z
 _atom_site_occupancy
  Mg  Mg0  1  0.10903316  0.42491868  0.10908661  1
  Mg  Mg1  1  0.10757320  0.91135433  0.36978639  1
  Mg  Mg2  1  0.62932481  0.58397006  0.86143143  1
  Mg  Mg3  1  0.63007428  0.08748738  0.61279506  1
  Ge  Ge4  1  0.13715937  0.92290129  0.85484040  1
  Ge  Ge5  1  0.51057728  0.07571026  0.11997826  1
  Ge  Ge6  1  0.13279656  0.42422945  0.61263059  1
  Ge  Ge7  1  0.63069612  0.57204267  0.36375225  1
  N  N8  1  0.08713171  0.06249245  0.09794124  1
  N  N9  1  0.50744599  0.93269437  0.87122649  1
  N  N10  1  0.03097512  0.59912442  0.83907752  1
  N  N11  1  0.03087817  0.10021211  0.62999080  1
  N  N12  1  0.53116871  0.41038498  0.12856036  1
  N  N13  1  0.53291781  0.89747487  0.35356738  1
  N  N14  1  0.98969572  0.55771216  0.38207331  1
  N  N15  1  0.49263541  0.43727715  0.59326394  1
