# generated using pymatgen
data_MgGeN2
_symmetry_space_group_name_H-M   'P 1'
_cell_length_a   5.21882145
_cell_length_b   5.59461095
_cell_length_c   6.74662384
_cell_angle_alpha   90.04558363
_cell_angle_beta   90.47489604
_cell_angle_gamma   90.22455343
_symmetry_Int_Tables_number   1
_chemical_formula_structural   MgGeN2
_chemical_formula_sum   'Mg4 Ge4 N8'
_cell_volume   196.97468938
_cell_formula_units_Z   4
loop_
 _symmetry_equiv_pos_site_id
 _symmetry_equiv_pos_as_xyz
  1  'x, y, z'
loop_
 _atom_site_type_symbol
 _atom_site_label
 _atom_site_symmetry_multiplicity
 _atom_site_fract_x
 _atom_site_fract_y
 _atom_site_fract_z
 _atom_site_occupancy
  Mg  Mg0  1  0.11364115  0.42804000  0.11177064  1
  Mg  Mg1  1  0.10983682  0.91015557  0.37153322  1
  Mg  Mg2  1  0.61584206  0.57313136  0.86410093  1
  Mg  Mg3  1  0.61340854  0.09029704  0.60472337  1
  Ge  Ge4  1  0.00256278  0.92970897  0.86241799  1
  Ge  Ge5  1  0.49773490  0.06898384  0.11124998  1
  Ge  Ge6  1  0.13124276  0.42735277  0.61265871  1
  Ge  Ge7  1  0.62870885  0.57311036  0.36217922  1
  N  N8  1  0.13280446  0.05921382  0.09112845  1
  N  N9  1  0.63005564  0.94029146  0.88380978  1
  N  N10  1  0.03342276  0.59327897  0.84220479  1
  N  N11  1  0.03518576  0.10271946  0.62519458  1
  N  N12  1  0.53167912  0.40679181  0.13160976  1
  N  N13  1  0.53493507  0.89767113  0.35042254  1
  N  N14  1  0.98870528  0.55932868  0.38248052  1
  N  N15  1  0.49031745  0.43991139  0.59251758  1
