# generated using pymatgen
data_Sc11Al25N36
_symmetry_space_group_name_H-M   'P 1'
_cell_length_a   10.25237142
_cell_length_b   10.19914159
_cell_length_c   9.17540586
_cell_angle_alpha   89.99687658
_cell_angle_beta   90.03036606
_cell_angle_gamma   60.05675900
_symmetry_Int_Tables_number   1
_chemical_formula_structural   Sc11Al25N36
_chemical_formula_sum   'Sc11 Al25 N36'
_cell_volume   831.36528187
_cell_formula_units_Z   1
loop_
 _symmetry_equiv_pos_site_id
 _symmetry_equiv_pos_as_xyz
  1  'x, y, z'
loop_
 _atom_site_type_symbol
 _atom_site_label
 _atom_site_symmetry_multiplicity
 _atom_site_fract_x
 _atom_site_fract_y
 _atom_site_fract_z
 _atom_site_occupancy
  Sc  Sc0  1  0.11583454  0.09139644  0.35177468  1
  Sc  Sc1  1  0.87955568  0.20583967  0.60118072  1
  Sc  Sc2  1  0.45047893  0.08917230  0.35338059  1
  Sc  Sc3  1  0.10975744  0.09899717  0.85256434  1
  Sc  Sc4  1  0.11561329  0.43053534  0.35053036  1
  Sc  Sc5  1  0.88784908  0.54216172  0.61195969  1
  Sc  Sc6  1  0.44534127  0.42842075  0.34923027  1
  Sc  Sc7  1  0.76545597  0.43502189  0.34396908  1
  Sc  Sc8  1  0.23089316  0.86033810  0.10287103  1
  Sc  Sc9  1  0.10536683  0.75849902  0.84306709  1
  Sc  Sc10  1  0.77307753  0.77107334  0.34640875  1
  Al  Al11  1  0.22579707  0.20774727  0.10141169  1
  Al  Al12  1  0.76983545  0.09706104  0.86902381  1
  Al  Al13  1  0.56255429  0.20012365  0.10743447  1
  Al  Al14  1  0.23541246  0.20405598  0.62926328  1
  Al  Al15  1  0.77876177  0.08879139  0.36372600  1
  Al  Al16  1  0.88438459  0.20367880  0.11026360  1
  Al  Al17  1  0.45184875  0.09229837  0.86812847  1
  Al  Al18  1  0.55337414  0.20404479  0.62586409  1
  Al  Al19  1  0.21822668  0.54429610  0.11035555  1
  Al  Al20  1  0.77117238  0.42773864  0.86892708  1
  Al  Al21  1  0.55279054  0.54342056  0.10275797  1
  Al  Al22  1  0.11906846  0.42644183  0.86805872  1
  Al  Al23  1  0.23266582  0.52790272  0.62078902  1
  Al  Al24  1  0.89013067  0.54006723  0.09657959  1
  Al  Al25  1  0.44638210  0.42236070  0.86909972  1
  Al  Al26  1  0.54960227  0.53862789  0.62864791  1
  Al  Al27  1  0.10993502  0.76507888  0.37558095  1
  Al  Al28  1  0.77038000  0.76974385  0.87119578  1
  Al  Al29  1  0.87243298  0.88011157  0.61829200  1
  Al  Al30  1  0.44351037  0.75741940  0.37651120  1
  Al  Al31  1  0.55425016  0.86747498  0.10942395  1
  Al  Al32  1  0.23191100  0.86838427  0.61230712  1
  Al  Al33  1  0.89210106  0.87493764  0.11451057  1
  Al  Al34  1  0.45396472  0.75678989  0.85809503  1
  Al  Al35  1  0.55454178  0.87515104  0.62407003  1
  N  N36  1  0.22805010  0.20533532  0.31060332  1
  N  N37  1  0.10257993  0.10647894  0.09084591  1
  N  N38  1  0.86826120  0.21365319  0.83842260  1
  N  N39  1  0.76079287  0.08852261  0.57600919  1
  N  N40  1  0.57669861  0.19323014  0.31478327  1
  N  N41  1  0.45084113  0.08930741  0.07937039  1
  N  N42  1  0.23627783  0.21205982  0.84403478  1
  N  N43  1  0.12959809  0.09083742  0.59826700  1
  N  N44  1  0.88009997  0.19689742  0.33526594  1
  N  N45  1  0.78045814  0.09159643  0.07613419  1
  N  N46  1  0.55608574  0.20535427  0.83782421  1
  N  N47  1  0.44659139  0.09370591  0.59470574  1
  N  N48  1  0.21388689  0.56208363  0.32268340  1
  N  N49  1  0.11261957  0.43073669  0.08100055  1
  N  N50  1  0.88829643  0.54044657  0.85393599  1
  N  N51  1  0.75498972  0.44144926  0.58637284  1
  N  N52  1  0.53843281  0.56090576  0.31263379  1
  N  N53  1  0.44309957  0.42676934  0.08128621  1
  N  N54  1  0.23552523  0.51998449  0.83125629  1
  N  N55  1  0.13046065  0.41635917  0.59166411  1
  N  N56  1  0.88843769  0.54159384  0.32759498  1
  N  N57  1  0.77627179  0.42610240  0.08418017  1
  N  N58  1  0.55482373  0.53503703  0.83881640  1
  N  N59  1  0.44758301  0.42461948  0.59055425  1
  N  N60  1  0.23265467  0.85362410  0.34817795  1
  N  N61  1  0.10040360  0.75490294  0.07412863  1
  N  N62  1  0.86425412  0.88567131  0.82754491  1
  N  N63  1  0.76451778  0.77801883  0.58442301  1
  N  N64  1  0.54151391  0.86035405  0.32028894  1
  N  N65  1  0.46415152  0.75164061  0.06366269  1
  N  N66  1  0.24133612  0.86097057  0.83240439  1
  N  N67  1  0.10690460  0.76043399  0.59113321  1
  N  N68  1  0.90322862  0.88101627  0.32611682  1
  N  N69  1  0.77611414  0.76727113  0.08511022  1
  N  N70  1  0.55692759  0.87268917  0.83327572  1
  N  N71  1  0.44973593  0.75703569  0.59048764  1
