# generated using pymatgen
data_Sc11Al25N36
_symmetry_space_group_name_H-M   'P 1'
_cell_length_a   10.42151661
_cell_length_b   10.37814083
_cell_length_c   8.69694330
_cell_angle_alpha   89.99829681
_cell_angle_beta   90.07779237
_cell_angle_gamma   60.04182447
_symmetry_Int_Tables_number   1
_chemical_formula_structural   Sc11Al25N36
_chemical_formula_sum   'Sc11 Al25 N36'
_cell_volume   814.94835903
_cell_formula_units_Z   1
loop_
 _symmetry_equiv_pos_site_id
 _symmetry_equiv_pos_as_xyz
  1  'x, y, z'
loop_
 _atom_site_type_symbol
 _atom_site_label
 _atom_site_symmetry_multiplicity
 _atom_site_fract_x
 _atom_site_fract_y
 _atom_site_fract_z
 _atom_site_occupancy
  Sc  Sc0  1  0.11362790  0.09308943  0.34470879  1
  Sc  Sc1  1  0.87969168  0.20363622  0.59650593  1
  Sc  Sc2  1  0.45133558  0.08859016  0.34324986  1
  Sc  Sc3  1  0.11270272  0.09785080  0.84613373  1
  Sc  Sc4  1  0.11404623  0.43160198  0.34081320  1
  Sc  Sc5  1  0.88843094  0.54117370  0.60404510  1
  Sc  Sc6  1  0.44610890  0.42799066  0.34250177  1
  Sc  Sc7  1  0.76714288  0.43350951  0.33719188  1
  Sc  Sc8  1  0.23239222  0.86105413  0.09675177  1
  Sc  Sc9  1  0.10614658  0.75926392  0.83945707  1
  Sc  Sc10  1  0.77327973  0.77002161  0.34108708  1
  Al  Al11  1  0.22636752  0.20820049  0.09146871  1
  Al  Al12  1  0.76943512  0.09584950  0.85494061  1
  Al  Al13  1  0.55983794  0.20211105  0.09324833  1
  Al  Al14  1  0.23391021  0.20380501  0.61236041  1
  Al  Al15  1  0.77955377  0.09036729  0.34074647  1
  Al  Al16  1  0.88335664  0.20615559  0.09070728  1
  Al  Al17  1  0.45020761  0.09296214  0.85206404  1
  Al  Al18  1  0.55521036  0.20277469  0.61244931  1
  Al  Al19  1  0.22223870  0.53844014  0.08524135  1
  Al  Al20  1  0.76986979  0.42940600  0.85090064  1
  Al  Al21  1  0.55336642  0.54269112  0.08828859  1
  Al  Al22  1  0.12045659  0.42468078  0.84758301  1
  Al  Al23  1  0.22810408  0.53525091  0.59714771  1
  Al  Al24  1  0.88904002  0.54066686  0.08376777  1
  Al  Al25  1  0.44595838  0.42287116  0.84948971  1
  Al  Al26  1  0.54915558  0.54010814  0.61729450  1
  Al  Al27  1  0.10873518  0.76457103  0.35366290  1
  Al  Al28  1  0.77047925  0.76985843  0.84944884  1
  Al  Al29  1  0.87897869  0.87940929  0.60184233  1
  Al  Al30  1  0.44451457  0.75730682  0.36509476  1
  Al  Al31  1  0.55608942  0.86761937  0.09031060  1
  Al  Al32  1  0.22987764  0.86728436  0.59811330  1
  Al  Al33  1  0.88812325  0.87366528  0.09493974  1
  Al  Al34  1  0.45143029  0.75791921  0.84654605  1
  Al  Al35  1  0.55341452  0.87408399  0.60954717  1
  N  N36  1  0.22768181  0.20610261  0.32510905  1
  N  N37  1  0.10461392  0.10621597  0.09164487  1
  N  N38  1  0.87101430  0.21132374  0.84971338  1
  N  N39  1  0.76322170  0.08861132  0.59107748  1
  N  N40  1  0.57439728  0.19518230  0.32653001  1
  N  N41  1  0.45042282  0.08901968  0.08070813  1
  N  N42  1  0.23579142  0.21092996  0.84702278  1
  N  N43  1  0.12804703  0.09100736  0.59566233  1
  N  N44  1  0.87952359  0.19875244  0.33630831  1
  N  N45  1  0.77867338  0.09199396  0.08537382  1
  N  N46  1  0.55601308  0.20488460  0.84484548  1
  N  N47  1  0.44711284  0.09368705  0.60280470  1
  N  N48  1  0.21682495  0.55686755  0.35009183  1
  N  N49  1  0.11259712  0.43041433  0.08082436  1
  N  N50  1  0.88920480  0.54004954  0.85335255  1
  N  N51  1  0.75706280  0.43844124  0.60131428  1
  N  N52  1  0.54147233  0.55748363  0.32488777  1
  N  N53  1  0.44277953  0.42729971  0.08119071  1
  N  N54  1  0.23266388  0.52466887  0.84044645  1
  N  N55  1  0.12904781  0.41770233  0.60309465  1
  N  N56  1  0.88744073  0.54167397  0.33737432  1
  N  N57  1  0.77554909  0.42866742  0.08091316  1
  N  N58  1  0.55267068  0.53746209  0.84438726  1
  N  N59  1  0.44773758  0.42425285  0.60302346  1
  N  N60  1  0.23323121  0.85460592  0.35365249  1
  N  N61  1  0.10314926  0.75242977  0.09381731  1
  N  N62  1  0.86999694  0.88336029  0.84123232  1
  N  N63  1  0.76703112  0.77797401  0.60009860  1
  N  N64  1  0.54436664  0.86085232  0.33644015  1
  N  N65  1  0.46286824  0.75256573  0.07300148  1
  N  N66  1  0.23897039  0.86155141  0.83475968  1
  N  N67  1  0.10458575  0.76484696  0.58847447  1
  N  N68  1  0.89803507  0.88148098  0.33689836  1
  N  N69  1  0.77537071  0.76531310  0.08245684  1
  N  N70  1  0.55493359  0.87274892  0.83891240  1
  N  N71  1  0.44902553  0.75675862  0.59714312  1
