# generated using pymatgen
data_Sc11Al25N36
_symmetry_space_group_name_H-M   'P 1'
_cell_length_a   9.98662593
_cell_length_b   9.93513203
_cell_length_c   9.91393399
_cell_angle_alpha   89.94095022
_cell_angle_beta   90.01113294
_cell_angle_gamma   60.10896876
_symmetry_Int_Tables_number   1
_chemical_formula_structural   Sc11Al25N36
_chemical_formula_sum   'Sc11 Al25 N36'
_cell_volume   852.79477691
_cell_formula_units_Z   1
loop_
 _symmetry_equiv_pos_site_id
 _symmetry_equiv_pos_as_xyz
  1  'x, y, z'
loop_
 _atom_site_type_symbol
 _atom_site_label
 _atom_site_symmetry_multiplicity
 _atom_site_fract_x
 _atom_site_fract_y
 _atom_site_fract_z
 _atom_site_occupancy
  Sc  Sc0  1  0.10754051  0.09881764  0.33834613  1
  Sc  Sc1  1  0.88142983  0.20371383  0.59406248  1
  Sc  Sc2  1  0.45001839  0.08860282  0.32890803  1
  Sc  Sc3  1  0.11845028  0.09227508  0.83666999  1
  Sc  Sc4  1  0.10830822  0.43573990  0.32716956  1
  Sc  Sc5  1  0.88969238  0.54025012  0.60458672  1
  Sc  Sc6  1  0.44466727  0.42751847  0.33937930  1
  Sc  Sc7  1  0.77030777  0.43277844  0.32223515  1
  Sc  Sc8  1  0.23098076  0.86573680  0.09711563  1
  Sc  Sc9  1  0.10850022  0.76067387  0.83807084  1
  Sc  Sc10  1  0.77465385  0.76631095  0.33615736  1
  Al  Al11  1  0.22527668  0.21064102  0.06642855  1
  Al  Al12  1  0.76539084  0.09446165  0.82813522  1
  Al  Al13  1  0.55545535  0.20614980  0.06893073  1
  Al  Al14  1  0.23448777  0.20258147  0.58152229  1
  Al  Al15  1  0.78137488  0.09233878  0.32147305  1
  Al  Al16  1  0.88213891  0.20938207  0.06483353  1
  Al  Al17  1  0.44994043  0.09406011  0.82562418  1
  Al  Al18  1  0.55906776  0.19776286  0.57984172  1
  Al  Al19  1  0.22590989  0.53143822  0.06934586  1
  Al  Al20  1  0.76482926  0.43228934  0.83220949  1
  Al  Al21  1  0.55643643  0.53720835  0.06687752  1
  Al  Al22  1  0.12652718  0.42187594  0.82584155  1
  Al  Al23  1  0.22389498  0.54224649  0.57977268  1
  Al  Al24  1  0.88972102  0.54066322  0.05804817  1
  Al  Al25  1  0.44743433  0.42322776  0.82145458  1
  Al  Al26  1  0.54697374  0.54580591  0.58199470  1
  Al  Al27  1  0.10730373  0.76202624  0.32441001  1
  Al  Al28  1  0.76880128  0.77352473  0.82271739  1
  Al  Al29  1  0.88746945  0.87833362  0.57470590  1
  Al  Al30  1  0.45059958  0.75466854  0.32718543  1
  Al  Al31  1  0.56145867  0.86624909  0.06671260  1
  Al  Al32  1  0.22949813  0.86381668  0.56878065  1
  Al  Al33  1  0.88027367  0.87282932  0.07465395  1
  Al  Al34  1  0.44833672  0.75728523  0.82387083  1
  Al  Al35  1  0.54867529  0.87399291  0.58285123  1
  N  N36  1  0.22658305  0.21062185  0.39100768  1
  N  N37  1  0.10020548  0.11621112  0.10996175  1
  N  N38  1  0.87001130  0.21024194  0.86822503  1
  N  N39  1  0.76603154  0.08350942  0.63899395  1
  N  N40  1  0.57880607  0.18956114  0.38856480  1
  N  N41  1  0.44745083  0.09075768  0.11264580  1
  N  N42  1  0.23801220  0.21070629  0.87569158  1
  N  N43  1  0.13172777  0.08220307  0.61385992  1
  N  N44  1  0.87525627  0.20257293  0.38004159  1
  N  N45  1  0.77580912  0.09568047  0.12523634  1
  N  N46  1  0.55355159  0.20744346  0.87638187  1
  N  N47  1  0.44784620  0.09207680  0.63034308  1
  N  N48  1  0.21177935  0.55982255  0.38930160  1
  N  N49  1  0.10936743  0.42888618  0.10909503  1
  N  N50  1  0.89126720  0.54129128  0.86026063  1
  N  N51  1  0.75230956  0.43967693  0.64064738  1
  N  N52  1  0.54640272  0.55449184  0.39233718  1
  N  N53  1  0.44590840  0.42660114  0.12065307  1
  N  N54  1  0.23710869  0.52145353  0.87807857  1
  N  N55  1  0.13579662  0.41723533  0.63363075  1
  N  N56  1  0.88641705  0.53904005  0.39168439  1
  N  N57  1  0.77777979  0.42920723  0.10149820  1
  N  N58  1  0.54896485  0.54063183  0.87568656  1
  N  N59  1  0.44464160  0.42565776  0.62420617  1
  N  N60  1  0.23287912  0.85368309  0.36288365  1
  N  N61  1  0.09879716  0.74915588  0.12372707  1
  N  N62  1  0.86666501  0.88373145  0.88432339  1
  N  N63  1  0.76600509  0.78442558  0.62751945  1
  N  N64  1  0.54374151  0.86248214  0.39302185  1
  N  N65  1  0.47365475  0.74514666  0.13406114  1
  N  N66  1  0.24463321  0.85877668  0.88629950  1
  N  N67  1  0.10944617  0.76583552  0.62313965  1
  N  N68  1  0.89973429  0.88353898  0.38087933  1
  N  N69  1  0.77717912  0.75805056  0.11680552  1
  N  N70  1  0.55467756  0.87025715  0.87303843  1
  N  N71  1  0.44027247  0.76192535  0.63227044  1
