# generated using pymatgen
data_Sc11Al25N36
_symmetry_space_group_name_H-M   'P 1'
_cell_length_a   9.86955650
_cell_length_b   9.82352016
_cell_length_c   10.21804742
_cell_angle_alpha   89.87065537
_cell_angle_beta   90.05258231
_cell_angle_gamma   60.09226136
_symmetry_Int_Tables_number   1
_chemical_formula_structural   Sc11Al25N36
_chemical_formula_sum   'Sc11 Al25 N36'
_cell_volume   858.74459857
_cell_formula_units_Z   1
loop_
 _symmetry_equiv_pos_site_id
 _symmetry_equiv_pos_as_xyz
  1  'x, y, z'
loop_
 _atom_site_type_symbol
 _atom_site_label
 _atom_site_symmetry_multiplicity
 _atom_site_fract_x
 _atom_site_fract_y
 _atom_site_fract_z
 _atom_site_occupancy
  Sc  Sc0  1  0.10845281  0.09833987  0.31207772  1
  Sc  Sc1  1  0.88114101  0.20482682  0.56559798  1
  Sc  Sc2  1  0.44889121  0.09038784  0.30708263  1
  Sc  Sc3  1  0.11647484  0.09301592  0.81173879  1
  Sc  Sc4  1  0.10829097  0.43572556  0.30281850  1
  Sc  Sc5  1  0.88925505  0.54127763  0.58020868  1
  Sc  Sc6  1  0.44485658  0.42885684  0.31453576  1
  Sc  Sc7  1  0.76890590  0.43561892  0.29745685  1
  Sc  Sc8  1  0.23059166  0.86405405  0.07178531  1
  Sc  Sc9  1  0.10849111  0.76002040  0.81010195  1
  Sc  Sc10  1  0.77461470  0.76700504  0.30901532  1
  Al  Al11  1  0.22532688  0.20941421  0.04465001  1
  Al  Al12  1  0.76662578  0.09511330  0.80736508  1
  Al  Al13  1  0.55579658  0.20516719  0.04734107  1
  Al  Al14  1  0.23350178  0.20329774  0.56130682  1
  Al  Al15  1  0.77968347  0.09294331  0.30224107  1
  Al  Al16  1  0.88237999  0.20858439  0.04582192  1
  Al  Al17  1  0.44943598  0.09386746  0.80521731  1
  Al  Al18  1  0.55740766  0.19987362  0.56159570  1
  Al  Al19  1  0.22463526  0.53251962  0.04900316  1
  Al  Al20  1  0.76664282  0.43126479  0.81114264  1
  Al  Al21  1  0.55744202  0.53724382  0.04593579  1
  Al  Al22  1  0.12478868  0.42236289  0.80602638  1
  Al  Al23  1  0.22507079  0.54006419  0.55884829  1
  Al  Al24  1  0.89040735  0.53918139  0.03682455  1
  Al  Al25  1  0.44713087  0.42392384  0.80336604  1
  Al  Al26  1  0.54756425  0.54502734  0.56284889  1
  Al  Al27  1  0.10770166  0.76214788  0.30830953  1
  Al  Al28  1  0.76965152  0.77174311  0.80496063  1
  Al  Al29  1  0.88551167  0.87835860  0.55498127  1
  Al  Al30  1  0.44972526  0.75592629  0.30995560  1
  Al  Al31  1  0.56057198  0.86676897  0.04663071  1
  Al  Al32  1  0.22932477  0.86505768  0.54842012  1
  Al  Al33  1  0.88210955  0.87230914  0.05391011  1
  Al  Al34  1  0.44893408  0.75738665  0.80270571  1
  Al  Al35  1  0.54976758  0.87475363  0.56282331  1
  N  N36  1  0.22551480  0.21158755  0.37643305  1
  N  N37  1  0.10136946  0.11434893  0.09517410  1
  N  N38  1  0.86988777  0.21036174  0.85625306  1
  N  N39  1  0.76683039  0.08468142  0.62289415  1
  N  N40  1  0.57672934  0.19187931  0.37484733  1
  N  N41  1  0.44698517  0.09092366  0.09615687  1
  N  N42  1  0.23696249  0.21030225  0.85993243  1
  N  N43  1  0.13011579  0.08343302  0.59851303  1
  N  N44  1  0.87476649  0.20467298  0.35900679  1
  N  N45  1  0.77528770  0.09462164  0.11047391  1
  N  N46  1  0.55403362  0.20669086  0.85989469  1
  N  N47  1  0.44707879  0.09267992  0.61556346  1
  N  N48  1  0.21285816  0.55711457  0.37399764  1
  N  N49  1  0.10981138  0.42759223  0.09150631  1
  N  N50  1  0.89174339  0.53999386  0.84495966  1
  N  N51  1  0.75370593  0.43842633  0.62607711  1
  N  N52  1  0.54742434  0.55399852  0.37821464  1
  N  N53  1  0.44633369  0.42652206  0.10189982  1
  N  N54  1  0.23548318  0.52258978  0.86328471  1
  N  N55  1  0.13533987  0.41738583  0.61965712  1
  N  N56  1  0.88616316  0.54036170  0.37357046  1
  N  N57  1  0.77836746  0.42894260  0.08491549  1
  N  N58  1  0.55003474  0.54115847  0.85976284  1
  N  N59  1  0.44442002  0.42645478  0.61149863  1
  N  N60  1  0.23265467  0.85455175  0.35167202  1
  N  N61  1  0.09890229  0.74830960  0.11393465  1
  N  N62  1  0.86875683  0.88326506  0.86848674  1
  N  N63  1  0.76579358  0.78457017  0.61602750  1
  N  N64  1  0.54512927  0.86391792  0.37760202  1
  N  N65  1  0.47335033  0.74497104  0.12072977  1
  N  N66  1  0.24374718  0.85821362  0.86766034  1
  N  N67  1  0.10944143  0.76491258  0.60265425  1
  N  N68  1  0.89764756  0.88390879  0.36655355  1
  N  N69  1  0.77781387  0.75724775  0.09694179  1
  N  N70  1  0.55414112  0.87033803  0.85813239  1
  N  N71  1  0.44106844  0.76232571  0.61575802  1
