# generated using pymatgen
data_Sc11Al25N36
_symmetry_space_group_name_H-M   'P 1'
_cell_length_a   10.43798857
_cell_length_b   10.39475227
_cell_length_c   8.65935285
_cell_angle_alpha   90.01433399
_cell_angle_beta   90.10930012
_cell_angle_gamma   60.02695414
_symmetry_Int_Tables_number   1
_chemical_formula_structural   Sc11Al25N36
_chemical_formula_sum   'Sc11 Al25 N36'
_cell_volume   813.88677140
_cell_formula_units_Z   1
loop_
 _symmetry_equiv_pos_site_id
 _symmetry_equiv_pos_as_xyz
  1  'x, y, z'
loop_
 _atom_site_type_symbol
 _atom_site_label
 _atom_site_symmetry_multiplicity
 _atom_site_fract_x
 _atom_site_fract_y
 _atom_site_fract_z
 _atom_site_occupancy
  Sc  Sc0  1  0.11357990  0.09302531  0.34863145  1
  Sc  Sc1  1  0.87936169  0.20302461  0.60021941  1
  Sc  Sc2  1  0.45185914  0.08831428  0.34672007  1
  Sc  Sc3  1  0.11317736  0.09802179  0.84946858  1
  Sc  Sc4  1  0.11389779  0.43190784  0.34462567  1
  Sc  Sc5  1  0.88856418  0.54098977  0.60796999  1
  Sc  Sc6  1  0.44618194  0.42778910  0.34643352  1
  Sc  Sc7  1  0.76735487  0.43324663  0.34132120  1
  Sc  Sc8  1  0.23232301  0.86134972  0.10040276  1
  Sc  Sc9  1  0.10616973  0.75933795  0.84292319  1
  Sc  Sc10  1  0.77321480  0.76998961  0.34441947  1
  Al  Al11  1  0.22638081  0.20821006  0.09506765  1
  Al  Al12  1  0.76901693  0.09540273  0.85263438  1
  Al  Al13  1  0.55877117  0.20273182  0.09386214  1
  Al  Al14  1  0.23369830  0.20397715  0.61310239  1
  Al  Al15  1  0.78067712  0.09035502  0.33200113  1
  Al  Al16  1  0.88370447  0.20691712  0.09207045  1
  Al  Al17  1  0.44965471  0.09347312  0.85347920  1
  Al  Al18  1  0.55568622  0.20256961  0.61304896  1
  Al  Al19  1  0.22221652  0.53834921  0.08860928  1
  Al  Al20  1  0.76965430  0.42959390  0.85394007  1
  Al  Al21  1  0.55347491  0.54269373  0.09174043  1
  Al  Al22  1  0.12071946  0.42440394  0.85080445  1
  Al  Al23  1  0.22794503  0.53565801  0.60035831  1
  Al  Al24  1  0.88873665  0.54059510  0.08779382  1
  Al  Al25  1  0.44580489  0.42298410  0.85238996  1
  Al  Al26  1  0.54901010  0.54019647  0.61967400  1
  Al  Al27  1  0.10883515  0.76432171  0.35517618  1
  Al  Al28  1  0.77065793  0.76969194  0.85038451  1
  Al  Al29  1  0.88011068  0.87969280  0.59866753  1
  Al  Al30  1  0.44441156  0.75731830  0.36764057  1
  Al  Al31  1  0.55635034  0.86790691  0.08970887  1
  Al  Al32  1  0.22993949  0.86680439  0.60148851  1
  Al  Al33  1  0.88730466  0.87271082  0.09149118  1
  Al  Al34  1  0.45122402  0.75783020  0.84925714  1
  Al  Al35  1  0.55335510  0.87366079  0.60967459  1
  N  N36  1  0.22786457  0.20619018  0.33281354  1
  N  N37  1  0.10517633  0.10652915  0.09597366  1
  N  N38  1  0.87152726  0.21137340  0.85540932  1
  N  N39  1  0.76375002  0.08846147  0.60719673  1
  N  N40  1  0.57542643  0.19465326  0.33551393  1
  N  N41  1  0.45026632  0.08873330  0.08542106  1
  N  N42  1  0.23566429  0.21103508  0.85112644  1
  N  N43  1  0.12779384  0.09067288  0.59950670  1
  N  N44  1  0.87958564  0.19867629  0.34054691  1
  N  N45  1  0.77847181  0.09187888  0.09188312  1
  N  N46  1  0.55492767  0.20550778  0.85147891  1
  N  N47  1  0.44717820  0.09396730  0.60792318  1
  N  N48  1  0.21705222  0.55649572  0.35530403  1
  N  N49  1  0.11281748  0.43007891  0.08522714  1
  N  N50  1  0.88924761  0.53992317  0.85762291  1
  N  N51  1  0.75724877  0.43807830  0.60632801  1
  N  N52  1  0.54179746  0.55694549  0.33150101  1
  N  N53  1  0.44275396  0.42753117  0.08605234  1
  N  N54  1  0.23237399  0.52505735  0.84570270  1
  N  N55  1  0.12881413  0.41821453  0.60770148  1
  N  N56  1  0.88734378  0.54166306  0.34129909  1
  N  N57  1  0.77516864  0.42913135  0.08509435  1
  N  N58  1  0.55236550  0.53775383  0.84909027  1
  N  N59  1  0.44756208  0.42423546  0.60805971  1
  N  N60  1  0.23322479  0.85467097  0.35763891  1
  N  N61  1  0.10249415  0.75271830  0.10064956  1
  N  N62  1  0.87110076  0.88192546  0.85067177  1
  N  N63  1  0.76802865  0.77788130  0.60592837  1
  N  N64  1  0.54474234  0.86096051  0.34746310  1
  N  N65  1  0.46302286  0.75287266  0.07952751  1
  N  N66  1  0.23877323  0.86163501  0.83963942  1
  N  N67  1  0.10548332  0.76454846  0.59258167  1
  N  N68  1  0.89718378  0.88234760  0.34758290  1
  N  N69  1  0.77457153  0.76512903  0.08697310  1
  N  N70  1  0.55473295  0.87264031  0.84338790  1
  N  N71  1  0.44848269  0.75642608  0.60231407  1
