# generated using pymatgen
data_Sc11Al25N36
_symmetry_space_group_name_H-M   'P 1'
_cell_length_a   10.09536432
_cell_length_b   10.04211677
_cell_length_c   9.62396989
_cell_angle_alpha   89.99773702
_cell_angle_beta   90.01402786
_cell_angle_gamma   60.07755106
_symmetry_Int_Tables_number   1
_chemical_formula_structural   Sc11Al25N36
_chemical_formula_sum   'Sc11 Al25 N36'
_cell_volume   845.61169633
_cell_formula_units_Z   1
loop_
 _symmetry_equiv_pos_site_id
 _symmetry_equiv_pos_as_xyz
  1  'x, y, z'
loop_
 _atom_site_type_symbol
 _atom_site_label
 _atom_site_symmetry_multiplicity
 _atom_site_fract_x
 _atom_site_fract_y
 _atom_site_fract_z
 _atom_site_occupancy
  Sc  Sc0  1  0.11738745  0.08972485  0.36094770  1
  Sc  Sc1  1  0.87906741  0.20696829  0.60690024  1
  Sc  Sc2  1  0.45081621  0.08911703  0.36383448  1
  Sc  Sc3  1  0.10836947  0.10073151  0.85790611  1
  Sc  Sc4  1  0.11481780  0.43126366  0.35790865  1
  Sc  Sc5  1  0.88771850  0.54258554  0.62411407  1
  Sc  Sc6  1  0.44479806  0.42808599  0.35616917  1
  Sc  Sc7  1  0.76600047  0.43597761  0.35022858  1
  Sc  Sc8  1  0.22926663  0.86108554  0.10886201  1
  Sc  Sc9  1  0.10526223  0.75773581  0.84611985  1
  Sc  Sc10  1  0.77377442  0.77068566  0.35106571  1
  Al  Al11  1  0.22561463  0.20718949  0.11131802  1
  Al  Al12  1  0.76934158  0.09831734  0.87419125  1
  Al  Al13  1  0.56279445  0.19954828  0.11445020  1
  Al  Al14  1  0.23529679  0.20468899  0.63399269  1
  Al  Al15  1  0.77907874  0.08773806  0.37020433  1
  Al  Al16  1  0.88493001  0.20277990  0.12333229  1
  Al  Al17  1  0.45122981  0.09270930  0.87419611  1
  Al  Al18  1  0.55280847  0.20443237  0.63092524  1
  Al  Al19  1  0.21733754  0.54509223  0.11779912  1
  Al  Al20  1  0.77091322  0.42715407  0.88045001  1
  Al  Al21  1  0.55304774  0.54293868  0.11355546  1
  Al  Al22  1  0.11957112  0.42577555  0.87864035  1
  Al  Al23  1  0.23362492  0.52595860  0.62692737  1
  Al  Al24  1  0.89044435  0.53975087  0.10713252  1
  Al  Al25  1  0.44708021  0.42265668  0.87617795  1
  Al  Al26  1  0.55011979  0.53926581  0.63064680  1
  Al  Al27  1  0.11077320  0.76548976  0.38220379  1
  Al  Al28  1  0.77005713  0.76978916  0.88143364  1
  Al  Al29  1  0.87046133  0.88030206  0.62394940  1
  Al  Al30  1  0.44155170  0.75861291  0.37912876  1
  Al  Al31  1  0.55374073  0.86836815  0.11747522  1
  Al  Al32  1  0.23369047  0.86800192  0.62491415  1
  Al  Al33  1  0.89303829  0.87487698  0.12087014  1
  Al  Al34  1  0.45650561  0.75487337  0.86699416  1
  Al  Al35  1  0.55474417  0.87447571  0.62884151  1
  N  N36  1  0.22877149  0.20508449  0.30654084  1
  N  N37  1  0.10179405  0.10827782  0.08633215  1
  N  N38  1  0.86572011  0.21604718  0.82877436  1
  N  N39  1  0.76010521  0.08792764  0.56898924  1
  N  N40  1  0.57795525  0.19159860  0.30905375  1
  N  N41  1  0.44944066  0.09014290  0.07433947  1
  N  N42  1  0.23620900  0.21312736  0.83482525  1
  N  N43  1  0.12998100  0.08934363  0.59647093  1
  N  N44  1  0.88081483  0.19585648  0.32992410  1
  N  N45  1  0.78090231  0.09204519  0.07081420  1
  N  N46  1  0.55567244  0.20588154  0.83142107  1
  N  N47  1  0.44657264  0.09332599  0.58928653  1
  N  N48  1  0.21248199  0.56403202  0.31563403  1
  N  N49  1  0.11444701  0.42895954  0.07803364  1
  N  N50  1  0.88832745  0.54002147  0.85114687  1
  N  N51  1  0.75490257  0.44371157  0.57415906  1
  N  N52  1  0.53742017  0.56168586  0.30853427  1
  N  N53  1  0.44338553  0.42706613  0.07801775  1
  N  N54  1  0.23668842  0.51722411  0.82481920  1
  N  N55  1  0.12963831  0.41684953  0.58251660  1
  N  N56  1  0.88930514  0.54168204  0.31036644  1
  N  N57  1  0.77562051  0.42465881  0.08309362  1
  N  N58  1  0.55614144  0.53499233  0.83037799  1
  N  N59  1  0.44755613  0.42468989  0.58312149  1
  N  N60  1  0.23185055  0.85321533  0.33641964  1
  N  N61  1  0.09935889  0.75382293  0.06523915  1
  N  N62  1  0.86134283  0.88658599  0.82124476  1
  N  N63  1  0.76449805  0.77730488  0.57500544  1
  N  N64  1  0.54032659  0.86102820  0.31386537  1
  N  N65  1  0.46581577  0.75031036  0.06070510  1
  N  N66  1  0.24387327  0.86038519  0.82862847  1
  N  N67  1  0.10798816  0.76082926  0.59024042  1
  N  N68  1  0.90538878  0.88082476  0.31993614  1
  N  N69  1  0.77545734  0.76868565  0.08317234  1
  N  N70  1  0.55776098  0.87160168  0.82751823  1
  N  N71  1  0.44836355  0.75811273  0.58131733  1
