# generated using pymatgen
data_Sc11Al25N36
_symmetry_space_group_name_H-M   'P 1'
_cell_length_a   9.86832414
_cell_length_b   9.82655249
_cell_length_c   10.22787554
_cell_angle_alpha   89.99926889
_cell_angle_beta   90.06483179
_cell_angle_gamma   60.04096573
_symmetry_Int_Tables_number   1
_chemical_formula_structural   Sc11Al25N36
_chemical_formula_sum   'Sc11 Al25 N36'
_cell_volume   859.28929960
_cell_formula_units_Z   1
loop_
 _symmetry_equiv_pos_site_id
 _symmetry_equiv_pos_as_xyz
  1  'x, y, z'
loop_
 _atom_site_type_symbol
 _atom_site_label
 _atom_site_symmetry_multiplicity
 _atom_site_fract_x
 _atom_site_fract_y
 _atom_site_fract_z
 _atom_site_occupancy
  Sc  Sc0  1  0.11401446  0.09284803  0.38959915  1
  Sc  Sc1  1  0.87813547  0.20572198  0.63723114  1
  Sc  Sc2  1  0.45046436  0.08950095  0.38956087  1
  Sc  Sc3  1  0.11161657  0.09758090  0.88199949  1
  Sc  Sc4  1  0.11341650  0.43218416  0.38172925  1
  Sc  Sc5  1  0.88849298  0.54146755  0.64979062  1
  Sc  Sc6  1  0.44559969  0.42881947  0.38336062  1
  Sc  Sc7  1  0.76885494  0.43423835  0.37374846  1
  Sc  Sc8  1  0.22895354  0.86287799  0.14017667  1
  Sc  Sc9  1  0.10682832  0.75832160  0.87322660  1
  Sc  Sc10  1  0.77421355  0.76852273  0.37675804  1
  Al  Al11  1  0.22558284  0.20704181  0.13345121  1
  Al  Al12  1  0.76845761  0.09758604  0.89387319  1
  Al  Al13  1  0.55998998  0.20157111  0.13327639  1
  Al  Al14  1  0.23332753  0.20490002  0.65202805  1
  Al  Al15  1  0.77920894  0.08916853  0.38472094  1
  Al  Al16  1  0.88542785  0.20382710  0.13877872  1
  Al  Al17  1  0.44987844  0.09369067  0.89073564  1
  Al  Al18  1  0.55305970  0.20370550  0.64862949  1
  Al  Al19  1  0.22007403  0.54129616  0.13584856  1
  Al  Al20  1  0.77131685  0.42895286  0.90016631  1
  Al  Al21  1  0.55487125  0.54105250  0.13265470  1
  Al  Al22  1  0.11934459  0.42493659  0.89728906  1
  Al  Al23  1  0.23068090  0.52966071  0.64633597  1
  Al  Al24  1  0.89054211  0.53959039  0.12644411  1
  Al  Al25  1  0.44788916  0.42342418  0.89107211  1
  Al  Al26  1  0.55053535  0.54138493  0.64761187  1
  Al  Al27  1  0.11020921  0.76406249  0.39674417  1
  Al  Al28  1  0.77107407  0.76827667  0.89753485  1
  Al  Al29  1  0.87442941  0.87847416  0.64062070  1
  Al  Al30  1  0.44317213  0.75908737  0.39413629  1
  Al  Al31  1  0.55521207  0.86963429  0.13392122  1
  Al  Al32  1  0.23288294  0.86630013  0.64122194  1
  Al  Al33  1  0.89088421  0.87360967  0.13903911  1
  Al  Al34  1  0.45545087  0.75492209  0.88748440  1
  Al  Al35  1  0.55383401  0.87373717  0.64811897  1
  N  N36  1  0.22833724  0.20497759  0.31681751  1
  N  N37  1  0.10405831  0.10742540  0.09272398  1
  N  N38  1  0.86617775  0.21577813  0.84283954  1
  N  N39  1  0.76110720  0.08725074  0.57356202  1
  N  N40  1  0.57459844  0.19352981  0.31759604  1
  N  N41  1  0.44743129  0.09197431  0.08005121  1
  N  N42  1  0.23512982  0.21376743  0.83854364  1
  N  N43  1  0.12710023  0.08995741  0.60510634  1
  N  N44  1  0.88125297  0.19574182  0.32840541  1
  N  N45  1  0.77913746  0.09178147  0.08018505  1
  N  N46  1  0.55608308  0.20559116  0.83762751  1
  N  N47  1  0.44592884  0.09274836  0.60065824  1
  N  N48  1  0.21433226  0.56128695  0.32202479  1
  N  N49  1  0.11561977  0.42709854  0.08456910  1
  N  N50  1  0.88957083  0.53902879  0.85975271  1
  N  N51  1  0.75739899  0.44148439  0.58249161  1
  N  N52  1  0.53893143  0.56071741  0.31633654  1
  N  N53  1  0.44447888  0.42721461  0.08242414  1
  N  N54  1  0.23512304  0.51808214  0.83251339  1
  N  N55  1  0.12859688  0.41787327  0.59129664  1
  N  N56  1  0.88981384  0.54156301  0.31264088  1
  N  N57  1  0.77596296  0.42569122  0.08925392  1
  N  N58  1  0.55747552  0.53651867  0.83666082  1
  N  N59  1  0.44679017  0.42607094  0.59588334  1
  N  N60  1  0.23031523  0.85566735  0.34959684  1
  N  N61  1  0.10108554  0.75393342  0.07891909  1
  N  N62  1  0.86263091  0.88642174  0.82784011  1
  N  N63  1  0.76536516  0.77557508  0.58637193  1
  N  N64  1  0.54070620  0.86337108  0.31937520  1
  N  N65  1  0.46381937  0.75123241  0.07099039  1
  N  N66  1  0.24587718  0.85857594  0.82878996  1
  N  N67  1  0.10741394  0.76015604  0.59483974  1
  N  N68  1  0.90357576  0.87970055  0.32707108  1
  N  N69  1  0.77610337  0.76737793  0.08744523  1
  N  N70  1  0.55740674  0.87077184  0.83628742  1
  N  N71  1  0.44869330  0.75860632  0.58536921  1
