# generated using pymatgen
data_Sc11Al25N36
_symmetry_space_group_name_H-M   'P 1'
_cell_length_a   9.87049647
_cell_length_b   9.82432969
_cell_length_c   10.21572003
_cell_angle_alpha   89.87230897
_cell_angle_beta   90.05150048
_cell_angle_gamma   60.09315304
_symmetry_Int_Tables_number   1
_chemical_formula_structural   Sc11Al25N36
_chemical_formula_sum   'Sc11 Al25 N36'
_cell_volume   858.70934419
_cell_formula_units_Z   1
loop_
 _symmetry_equiv_pos_site_id
 _symmetry_equiv_pos_as_xyz
  1  'x, y, z'
loop_
 _atom_site_type_symbol
 _atom_site_label
 _atom_site_symmetry_multiplicity
 _atom_site_fract_x
 _atom_site_fract_y
 _atom_site_fract_z
 _atom_site_occupancy
  Sc  Sc0  1  0.10851510  0.09826021  0.32982237  1
  Sc  Sc1  1  0.88122383  0.20472499  0.58336261  1
  Sc  Sc2  1  0.44898045  0.09026808  0.32475795  1
  Sc  Sc3  1  0.11658075  0.09291444  0.82944853  1
  Sc  Sc4  1  0.10836355  0.43563049  0.32052871  1
  Sc  Sc5  1  0.88933955  0.54116967  0.59793797  1
  Sc  Sc6  1  0.44492652  0.42874396  0.33225691  1
  Sc  Sc7  1  0.76899939  0.43548793  0.31517450  1
  Sc  Sc8  1  0.23066959  0.86399638  0.08952063  1
  Sc  Sc9  1  0.10856983  0.75994248  0.82785554  1
  Sc  Sc10  1  0.77469703  0.76688983  0.32675908  1
  Al  Al11  1  0.22539651  0.20934538  0.06234410  1
  Al  Al12  1  0.76668955  0.09501778  0.82503869  1
  Al  Al13  1  0.55586960  0.20509229  0.06502843  1
  Al  Al14  1  0.23359872  0.20319665  0.57898543  1
  Al  Al15  1  0.77977602  0.09284095  0.31991813  1
  Al  Al16  1  0.88245519  0.20850515  0.06348597  1
  Al  Al17  1  0.44951963  0.09377789  0.82290043  1
  Al  Al18  1  0.55749831  0.19975571  0.57925244  1
  Al  Al19  1  0.22472238  0.53242601  0.06667782  1
  Al  Al20  1  0.76669892  0.43118694  0.82883154  1
  Al  Al21  1  0.55750650  0.53715708  0.06362500  1
  Al  Al22  1  0.12488701  0.42226830  0.82369670  1
  Al  Al23  1  0.22513392  0.53999499  0.57652822  1
  Al  Al24  1  0.89047592  0.53911062  0.05450692  1
  Al  Al25  1  0.44721127  0.42382914  0.82101833  1
  Al  Al26  1  0.54763534  0.54494080  0.58051016  1
  Al  Al27  1  0.10777247  0.76205396  0.32593332  1
  Al  Al28  1  0.76971774  0.77167335  0.82261085  1
  Al  Al29  1  0.88561056  0.87826049  0.57265239  1
  Al  Al30  1  0.44981229  0.75581621  0.32759967  1
  Al  Al31  1  0.56065939  0.86667459  0.06430743  1
  Al  Al32  1  0.22940609  0.86494949  0.56609114  1
  Al  Al33  1  0.88216267  0.87223334  0.07159260  1
  Al  Al34  1  0.44900691  0.75729380  0.82039464  1
  Al  Al35  1  0.54983369  0.87465184  0.58049478  1
  N  N36  1  0.22561342  0.21148759  0.39407368  1
  N  N37  1  0.10142364  0.11429698  0.11283439  1
  N  N38  1  0.86997260  0.21026769  0.87385915  1
  N  N39  1  0.76689536  0.08457564  0.64053757  1
  N  N40  1  0.57682382  0.19175212  0.39247500  1
  N  N41  1  0.44706141  0.09083843  0.11380046  1
  N  N42  1  0.23704937  0.21022003  0.87758337  1
  N  N43  1  0.13021723  0.08332542  0.61615289  1
  N  N44  1  0.87484141  0.20455932  0.37672436  1
  N  N45  1  0.77536666  0.09454996  0.12811627  1
  N  N46  1  0.55410766  0.20661237  0.87754535  1
  N  N47  1  0.44716482  0.09257683  0.63320862  1
  N  N48  1  0.21291342  0.55705477  0.39163647  1
  N  N49  1  0.10987654  0.42752643  0.10916751  1
  N  N50  1  0.89181765  0.53991861  0.86259208  1
  N  N51  1  0.75375605  0.43835304  0.64372273  1
  N  N52  1  0.54749120  0.55390745  0.39584099  1
  N  N53  1  0.44640054  0.42643771  0.11957903  1
  N  N54  1  0.23557901  0.52249046  0.88092092  1
  N  N55  1  0.13542909  0.41728833  0.63729024  1
  N  N56  1  0.88624411  0.54024084  0.39125461  1
  N  N57  1  0.77843618  0.42885965  0.10256766  1
  N  N58  1  0.55009932  0.54106486  0.87741622  1
  N  N59  1  0.44449658  0.42635459  0.62910955  1
  N  N60  1  0.23273432  0.85444904  0.36926440  1
  N  N61  1  0.09897266  0.74823669  0.13151805  1
  N  N62  1  0.86880714  0.88318557  0.88613341  1
  N  N63  1  0.76586848  0.78447789  0.63363348  1
  N  N64  1  0.54519188  0.86380746  0.39524403  1
  N  N65  1  0.47343187  0.74488537  0.13835419  1
  N  N66  1  0.24383848  0.85813378  0.88534795  1
  N  N67  1  0.10951853  0.76483126  0.62035047  1
  N  N68  1  0.89774834  0.88380546  0.38418538  1
  N  N69  1  0.77788293  0.75716950  0.11463151  1
  N  N70  1  0.55422588  0.87024533  0.87577379  1
  N  N71  1  0.44113428  0.76222845  0.63341066  1
