# generated using pymatgen
data_Sc11Al25N36
_symmetry_space_group_name_H-M   'P 1'
_cell_length_a   10.04381930
_cell_length_b   9.99325367
_cell_length_c   9.75746458
_cell_angle_alpha   89.95064233
_cell_angle_beta   90.00674856
_cell_angle_gamma   60.10186275
_symmetry_Int_Tables_number   1
_chemical_formula_structural   Sc11Al25N36
_chemical_formula_sum   'Sc11 Al25 N36'
_cell_volume   849.02021520
_cell_formula_units_Z   1
loop_
 _symmetry_equiv_pos_site_id
 _symmetry_equiv_pos_as_xyz
  1  'x, y, z'
loop_
 _atom_site_type_symbol
 _atom_site_label
 _atom_site_symmetry_multiplicity
 _atom_site_fract_x
 _atom_site_fract_y
 _atom_site_fract_z
 _atom_site_occupancy
  Sc  Sc0  1  0.10768531  0.09850192  0.34165617  1
  Sc  Sc1  1  0.88134063  0.20322650  0.59735932  1
  Sc  Sc2  1  0.45048358  0.08815589  0.33153395  1
  Sc  Sc3  1  0.11856070  0.09242434  0.83977523  1
  Sc  Sc4  1  0.10872176  0.43564110  0.33014520  1
  Sc  Sc5  1  0.88971552  0.54015054  0.60632659  1
  Sc  Sc6  1  0.44467123  0.42732141  0.34191920  1
  Sc  Sc7  1  0.77049605  0.43216678  0.32579704  1
  Sc  Sc8  1  0.23103047  0.86591151  0.09936436  1
  Sc  Sc9  1  0.10832590  0.76084558  0.84136306  1
  Sc  Sc10  1  0.77441565  0.76660015  0.33947533  1
  Al  Al11  1  0.22543428  0.21079220  0.06821149  1
  Al  Al12  1  0.76517587  0.09427838  0.83004561  1
  Al  Al13  1  0.55528443  0.20636016  0.07064686  1
  Al  Al14  1  0.23448781  0.20246788  0.58279583  1
  Al  Al15  1  0.78180570  0.09218768  0.32168009  1
  Al  Al16  1  0.88207249  0.20966362  0.06622593  1
  Al  Al17  1  0.44999816  0.09423922  0.82691158  1
  Al  Al18  1  0.55967795  0.19738889  0.58052668  1
  Al  Al19  1  0.22619211  0.53125997  0.07041637  1
  Al  Al20  1  0.76452083  0.43242538  0.83369080  1
  Al  Al21  1  0.55611689  0.53723249  0.06818476  1
  Al  Al22  1  0.12665250  0.42184210  0.82718105  1
  Al  Al23  1  0.22370532  0.54276812  0.58145483  1
  Al  Al24  1  0.88940158  0.54107003  0.06004867  1
  Al  Al25  1  0.44751302  0.42294495  0.82234542  1
  Al  Al26  1  0.54666038  0.54613111  0.58310228  1
  Al  Al27  1  0.10729752  0.76209394  0.32508700  1
  Al  Al28  1  0.76877288  0.77382317  0.82357298  1
  Al  Al29  1  0.88778055  0.87858453  0.57574527  1
  Al  Al30  1  0.45062619  0.75457621  0.32749145  1
  Al  Al31  1  0.56148097  0.86625068  0.06766092  1
  Al  Al32  1  0.22955039  0.86356036  0.57050265  1
  Al  Al33  1  0.88006766  0.87271621  0.07602899  1
  Al  Al34  1  0.44807503  0.75731990  0.82542042  1
  Al  Al35  1  0.54847344  0.87370172  0.58441826  1
  N  N36  1  0.22670721  0.21013288  0.38874685  1
  N  N37  1  0.10029019  0.11616607  0.10769989  1
  N  N38  1  0.86990422  0.21040740  0.86605070  1
  N  N39  1  0.76591003  0.08332668  0.63791271  1
  N  N40  1  0.57942349  0.18940602  0.38619376  1
  N  N41  1  0.44769723  0.09056994  0.11163286  1
  N  N42  1  0.23821960  0.21076128  0.87393095  1
  N  N43  1  0.13172860  0.08210695  0.61212111  1
  N  N44  1  0.87581459  0.20162712  0.37901249  1
  N  N45  1  0.77591785  0.09582487  0.12292600  1
  N  N46  1  0.55333577  0.20756770  0.87520562  1
  N  N47  1  0.44806270  0.09208609  0.62820234  1
  N  N48  1  0.21194999  0.56037474  0.38768875  1
  N  N49  1  0.10946932  0.42911319  0.10807270  1
  N  N50  1  0.89091894  0.54162437  0.85940557  1
  N  N51  1  0.75249741  0.43971392  0.63789975  1
  N  N52  1  0.54567213  0.55485681  0.39029112  1
  N  N53  1  0.44576292  0.42665313  0.11961174  1
  N  N54  1  0.23727028  0.52138695  0.87586696  1
  N  N55  1  0.13537866  0.41744821  0.63125258  1
  N  N56  1  0.88651757  0.53922683  0.38979044  1
  N  N57  1  0.77742195  0.42935413  0.10070350  1
  N  N58  1  0.54879582  0.54042496  0.87401817  1
  N  N59  1  0.44481431  0.42536906  0.62211727  1
  N  N60  1  0.23294623  0.85349076  0.36082392  1
  N  N61  1  0.09898623  0.74933744  0.12058998  1
  N  N62  1  0.86646208  0.88364400  0.88280138  1
  N  N63  1  0.76633728  0.78416447  0.62474472  1
  N  N64  1  0.54348949  0.86198546  0.39152574  1
  N  N65  1  0.47325801  0.74547730  0.13147573  1
  N  N66  1  0.24436097  0.85912621  0.88478625  1
  N  N67  1  0.10926955  0.76617591  0.62264111  1
  N  N68  1  0.90001723  0.88364583  0.37872480  1
  N  N69  1  0.77679084  0.75848250  0.11615892  1
  N  N70  1  0.55470454  0.87039434  0.87097016  1
  N  N71  1  0.44017158  0.76178994  0.63121706  1
