# generated using pymatgen
data_Sc11Al25N36
_symmetry_space_group_name_H-M   'P 1'
_cell_length_a   10.38196970
_cell_length_b   10.34189050
_cell_length_c   8.78768740
_cell_angle_alpha   89.95483650
_cell_angle_beta   90.02379433
_cell_angle_gamma   60.06168969
_symmetry_Int_Tables_number   1
_chemical_formula_structural   Sc11Al25N36
_chemical_formula_sum   'Sc11 Al25 N36'
_cell_volume   817.62513394
_cell_formula_units_Z   1
loop_
 _symmetry_equiv_pos_site_id
 _symmetry_equiv_pos_as_xyz
  1  'x, y, z'
loop_
 _atom_site_type_symbol
 _atom_site_label
 _atom_site_symmetry_multiplicity
 _atom_site_fract_x
 _atom_site_fract_y
 _atom_site_fract_z
 _atom_site_occupancy
  Sc  Sc0  1  0.11209732  0.09363677  0.35227322  1
  Sc  Sc1  1  0.87970806  0.20218217  0.60497329  1
  Sc  Sc2  1  0.45260835  0.08655031  0.34785547  1
  Sc  Sc3  1  0.11451804  0.09761171  0.85146543  1
  Sc  Sc4  1  0.11334347  0.43358753  0.34657138  1
  Sc  Sc5  1  0.88926737  0.54096167  0.61152129  1
  Sc  Sc6  1  0.44499997  0.42771971  0.35003062  1
  Sc  Sc7  1  0.76773623  0.43273077  0.34515673  1
  Sc  Sc8  1  0.22989920  0.86275470  0.10389701  1
  Sc  Sc9  1  0.10596347  0.76057719  0.84629426  1
  Sc  Sc10  1  0.77262716  0.77007161  0.34862794  1
  Al  Al11  1  0.22631486  0.20865970  0.08879647  1
  Al  Al12  1  0.76753656  0.09515693  0.85073753  1
  Al  Al13  1  0.55665508  0.20431030  0.08653170  1
  Al  Al14  1  0.23356101  0.20347304  0.59993682  1
  Al  Al15  1  0.78113979  0.09051125  0.32738026  1
  Al  Al16  1  0.88317095  0.20872430  0.09163032  1
  Al  Al17  1  0.44877844  0.09531955  0.84691673  1
  Al  Al18  1  0.55846284  0.20025297  0.59839575  1
  Al  Al19  1  0.22341896  0.53689761  0.08326564  1
  Al  Al20  1  0.76883239  0.43029817  0.85162179  1
  Al  Al21  1  0.55516761  0.53932382  0.08012974  1
  Al  Al22  1  0.12163085  0.42317723  0.84903841  1
  Al  Al23  1  0.22790355  0.53647028  0.60083161  1
  Al  Al24  1  0.88808800  0.54094703  0.08758384  1
  Al  Al25  1  0.44758111  0.42201784  0.84489319  1
  Al  Al26  1  0.54719668  0.54410417  0.60148883  1
  Al  Al27  1  0.10914549  0.76423292  0.35751105  1
  Al  Al28  1  0.77167804  0.76940548  0.84804593  1
  Al  Al29  1  0.88185618  0.88040278  0.59406725  1
  Al  Al30  1  0.44619532  0.75746238  0.34515362  1
  Al  Al31  1  0.55793284  0.86769667  0.07813066  1
  Al  Al32  1  0.23132742  0.86613949  0.59844020  1
  Al  Al33  1  0.88591635  0.87149230  0.08925685  1
  Al  Al34  1  0.44950060  0.75695479  0.84018973  1
  Al  Al35  1  0.55127959  0.87257259  0.60373690  1
  N  N36  1  0.22766073  0.20687322  0.36141065  1
  N  N37  1  0.10489167  0.11017745  0.10173349  1
  N  N38  1  0.87136056  0.21148857  0.86235384  1
  N  N39  1  0.76552466  0.08670465  0.62512066  1
  N  N40  1  0.57745350  0.19283304  0.36236781  1
  N  N41  1  0.44918284  0.08883000  0.09496204  1
  N  N42  1  0.23610733  0.21088191  0.85964004  1
  N  N43  1  0.12744416  0.08747171  0.60471110  1
  N  N44  1  0.87874303  0.19889462  0.34954106  1
  N  N45  1  0.77601403  0.09327119  0.10226411  1
  N  N46  1  0.55390835  0.20620468  0.86281135  1
  N  N47  1  0.44803713  0.09326849  0.61630704  1
  N  N48  1  0.21655761  0.55734415  0.37039890  1
  N  N49  1  0.11348407  0.42863403  0.09270887  1
  N  N50  1  0.88997431  0.53994723  0.86208033  1
  N  N51  1  0.75829754  0.43733819  0.61649466  1
  N  N52  1  0.54239444  0.55515796  0.37060877  1
  N  N53  1  0.44458328  0.42795476  0.09659489  1
  N  N54  1  0.23337929  0.52482311  0.85495781  1
  N  N55  1  0.12908296  0.41901620  0.61594226  1
  N  N56  1  0.88698988  0.54176427  0.35224582  1
  N  N57  1  0.77348134  0.43054094  0.09163250  1
  N  N58  1  0.55129485  0.53959835  0.85737595  1
  N  N59  1  0.44722217  0.42304028  0.61558878  1
  N  N60  1  0.23341752  0.85482541  0.36012187  1
  N  N61  1  0.10161619  0.75103577  0.10805520  1
  N  N62  1  0.87101996  0.88160578  0.86447113  1
  N  N63  1  0.76913504  0.77892559  0.61465526  1
  N  N64  1  0.54558662  0.86099308  0.37451235  1
  N  N65  1  0.46615434  0.74959578  0.10940280  1
  N  N66  1  0.23916872  0.86180615  0.85501951  1
  N  N67  1  0.10679176  0.76634286  0.60056690  1
  N  N68  1  0.89705501  0.88361926  0.36057485  1
  N  N69  1  0.77376307  0.76393345  0.09538773  1
  N  N70  1  0.55413939  0.87106707  0.85400978  1
  N  N71  1  0.44458910  0.75967116  0.61791772  1
