# generated using pymatgen
data_Sc11Al25N36
_symmetry_space_group_name_H-M   'P 1'
_cell_length_a   10.29913019
_cell_length_b   10.24725043
_cell_length_c   9.04047689
_cell_angle_alpha   89.99872160
_cell_angle_beta   90.04133237
_cell_angle_gamma   60.05141654
_symmetry_Int_Tables_number   1
_chemical_formula_structural   Sc11Al25N36
_chemical_formula_sum   'Sc11 Al25 N36'
_cell_volume   826.71247785
_cell_formula_units_Z   1
loop_
 _symmetry_equiv_pos_site_id
 _symmetry_equiv_pos_as_xyz
  1  'x, y, z'
loop_
 _atom_site_type_symbol
 _atom_site_label
 _atom_site_symmetry_multiplicity
 _atom_site_fract_x
 _atom_site_fract_y
 _atom_site_fract_z
 _atom_site_occupancy
  Sc  Sc0  1  0.11509427  0.09208176  0.34975966  1
  Sc  Sc1  1  0.87970286  0.20523423  0.60018239  1
  Sc  Sc2  1  0.45051413  0.08910381  0.35065890  1
  Sc  Sc3  1  0.11058247  0.09835446  0.85124197  1
  Sc  Sc4  1  0.11533357  0.43055572  0.34840859  1
  Sc  Sc5  1  0.88795220  0.54197075  0.60902464  1
  Sc  Sc6  1  0.44568558  0.42835415  0.34768600  1
  Sc  Sc7  1  0.76580685  0.43456007  0.34215856  1
  Sc  Sc8  1  0.23136627  0.86040927  0.10151635  1
  Sc  Sc9  1  0.10552753  0.75873664  0.84280924  1
  Sc  Sc10  1  0.77301196  0.77081756  0.34547573  1
  Al  Al11  1  0.22588847  0.20798900  0.09867328  1
  Al  Al12  1  0.76982522  0.09658139  0.86706324  1
  Al  Al13  1  0.56202739  0.20057521  0.10469671  1
  Al  Al14  1  0.23518798  0.20385274  0.62682043  1
  Al  Al15  1  0.77878235  0.08927729  0.36032147  1
  Al  Al16  1  0.88412618  0.20431585  0.10422673  1
  Al  Al17  1  0.45169004  0.09234635  0.86511395  1
  Al  Al18  1  0.55379167  0.20373948  0.62376127  1
  Al  Al19  1  0.21893275  0.54336853  0.10710538  1
  Al  Al20  1  0.77094047  0.42822101  0.86370803  1
  Al  Al21  1  0.55291933  0.54329526  0.09882583  1
  Al  Al22  1  0.11926842  0.42629682  0.86329226  1
  Al  Al23  1  0.23181472  0.52934272  0.61778072  1
  Al  Al24  1  0.88995715  0.54019238  0.09170104  1
  Al  Al25  1  0.44612709  0.42241665  0.86544336  1
  Al  Al26  1  0.54935709  0.53884702  0.62744736  1
  Al  Al27  1  0.10961769  0.76490629  0.37172376  1
  Al  Al28  1  0.77045304  0.76978011  0.86614196  1
  Al  Al29  1  0.87381560  0.87990953  0.61577031  1
  Al  Al30  1  0.44413666  0.75714732  0.37484546  1
  Al  Al31  1  0.55466801  0.86736039  0.10575960  1
  Al  Al32  1  0.23133331  0.86820982  0.60799406  1
  Al  Al33  1  0.89131475  0.87477745  0.11150791  1
  Al  Al34  1  0.45304613  0.75736960  0.85537887  1
  Al  Al35  1  0.55428480  0.87514151  0.62209487  1
  N  N36  1  0.22785789  0.20546634  0.31320182  1
  N  N37  1  0.10300637  0.10610194  0.09171593  1
  N  N38  1  0.86914004  0.21279645  0.84268606  1
  N  N39  1  0.76124874  0.08863440  0.57865741  1
  N  N40  1  0.57599721  0.19381726  0.31726611  1
  N  N41  1  0.45097562  0.08922853  0.08041806  1
  N  N42  1  0.23619939  0.21170941  0.84619615  1
  N  N43  1  0.12929614  0.09117995  0.59834031  1
  N  N44  1  0.87989841  0.19741335  0.33666263  1
  N  N45  1  0.78006287  0.09154936  0.07847470  1
  N  N46  1  0.55624758  0.20514367  0.83996312  1
  N  N47  1  0.44666052  0.09371765  0.59730024  1
  N  N48  1  0.21462676  0.56080792  0.32616595  1
  N  N49  1  0.11210566  0.43107069  0.08149300  1
  N  N50  1  0.88847564  0.54050956  0.85454156  1
  N  N51  1  0.75538177  0.44049223  0.59200118  1
  N  N52  1  0.53919690  0.56019560  0.31491722  1
  N  N53  1  0.44306461  0.42670357  0.08177400  1
  N  N54  1  0.23488674  0.52122614  0.83359111  1
  N  N55  1  0.13045543  0.41646552  0.59553591  1
  N  N56  1  0.88811315  0.54158129  0.33388329  1
  N  N57  1  0.77642524  0.42686477  0.08381684  1
  N  N58  1  0.55417237  0.53547921  0.84151841  1
  N  N59  1  0.44755141  0.42464217  0.59407341  1
  N  N60  1  0.23288048  0.85386628  0.35167434  1
  N  N61  1  0.10093597  0.75503941  0.07853448  1
  N  N62  1  0.86561616  0.88531025  0.83018860  1
  N  N63  1  0.76477010  0.77813959  0.58900229  1
  N  N64  1  0.54214436  0.86035282  0.32303167  1
  N  N65  1  0.46355268  0.75203287  0.06549480  1
  N  N66  1  0.24057285  0.86111999  0.83333340  1
  N  N67  1  0.10648467  0.76056629  0.59082036  1
  N  N68  1  0.90206791  0.88100521  0.32853180  1
  N  N69  1  0.77631948  0.76659371  0.08497246  1
  N  N70  1  0.55642907  0.87290221  0.83545042  1
  N  N71  1  0.44997649  0.75682648  0.59318399  1
