# generated using pymatgen
data_Sc11Al25N36
_symmetry_space_group_name_H-M   'P 1'
_cell_length_a   9.86835511
_cell_length_b   9.82655366
_cell_length_c   10.22776608
_cell_angle_alpha   89.99822758
_cell_angle_beta   90.06373511
_cell_angle_gamma   60.04163425
_symmetry_Int_Tables_number   1
_chemical_formula_structural   Sc11Al25N36
_chemical_formula_sum   'Sc11 Al25 N36'
_cell_volume   859.28869382
_cell_formula_units_Z   1
loop_
 _symmetry_equiv_pos_site_id
 _symmetry_equiv_pos_as_xyz
  1  'x, y, z'
loop_
 _atom_site_type_symbol
 _atom_site_label
 _atom_site_symmetry_multiplicity
 _atom_site_fract_x
 _atom_site_fract_y
 _atom_site_fract_z
 _atom_site_occupancy
  Sc  Sc0  1  0.11406385  0.09275074  0.40831843  1
  Sc  Sc1  1  0.87824395  0.20564212  0.65599497  1
  Sc  Sc2  1  0.45052108  0.08938066  0.40834850  1
  Sc  Sc3  1  0.11169900  0.09747930  0.90079990  1
  Sc  Sc4  1  0.11348606  0.43208878  0.40049166  1
  Sc  Sc5  1  0.88859303  0.54140990  0.66855479  1
  Sc  Sc6  1  0.44567631  0.42869759  0.40209874  1
  Sc  Sc7  1  0.76891299  0.43417303  0.39254224  1
  Sc  Sc8  1  0.22903230  0.86275127  0.15894655  1
  Sc  Sc9  1  0.10692588  0.75821500  0.89196879  1
  Sc  Sc10  1  0.77428511  0.76843467  0.39548714  1
  Al  Al11  1  0.22565778  0.20693788  0.15222161  1
  Al  Al12  1  0.76855118  0.09748962  0.91263076  1
  Al  Al13  1  0.56006571  0.20144379  0.15204428  1
  Al  Al14  1  0.23341078  0.20480235  0.67078413  1
  Al  Al15  1  0.77927653  0.08907200  0.40349515  1
  Al  Al16  1  0.88547448  0.20374985  0.15755074  1
  Al  Al17  1  0.44996252  0.09359059  0.90948831  1
  Al  Al18  1  0.55315844  0.20361657  0.66739660  1
  Al  Al19  1  0.22014583  0.54119231  0.15460682  1
  Al  Al20  1  0.77140231  0.42886809  0.91891254  1
  Al  Al21  1  0.55495129  0.54094919  0.15142038  1
  Al  Al22  1  0.11944018  0.42483426  0.91604867  1
  Al  Al23  1  0.23079507  0.52955146  0.66509825  1
  Al  Al24  1  0.89061476  0.53949067  0.14519648  1
  Al  Al25  1  0.44798906  0.42331684  0.90985135  1
  Al  Al26  1  0.55062588  0.54129535  0.66638137  1
  Al  Al27  1  0.11029408  0.76395215  0.41552880  1
  Al  Al28  1  0.77116363  0.76819185  0.91631141  1
  Al  Al29  1  0.87451716  0.87839176  0.65938060  1
  Al  Al30  1  0.44324239  0.75898323  0.41290966  1
  Al  Al31  1  0.55527282  0.86953315  0.15268104  1
  Al  Al32  1  0.23297098  0.86622035  0.65997987  1
  Al  Al33  1  0.89097049  0.87351331  0.15780459  1
  Al  Al34  1  0.45553499  0.75482536  0.90624200  1
  Al  Al35  1  0.55393315  0.87364073  0.66688916  1
  N  N36  1  0.22840786  0.20488226  0.33558596  1
  N  N37  1  0.10412428  0.10731572  0.11152734  1
  N  N38  1  0.86627611  0.21568447  0.86160087  1
  N  N39  1  0.76120650  0.08717391  0.59233621  1
  N  N40  1  0.57467047  0.19338290  0.33636786  1
  N  N41  1  0.44749760  0.09186750  0.09880507  1
  N  N42  1  0.23520667  0.21366453  0.85730353  1
  N  N43  1  0.12719666  0.08986375  0.62382515  1
  N  N44  1  0.88127515  0.19568867  0.34717548  1
  N  N45  1  0.77921178  0.09168287  0.09894739  1
  N  N46  1  0.55617698  0.20549349  0.85639399  1
  N  N47  1  0.44602360  0.09265712  0.61944339  1
  N  N48  1  0.21440313  0.56118784  0.34078592  1
  N  N49  1  0.11569738  0.42699067  0.10332825  1
  N  N50  1  0.88966413  0.53894916  0.87851588  1
  N  N51  1  0.75750166  0.44141617  0.60128358  1
  N  N52  1  0.53900409  0.56061288  0.33510640  1
  N  N53  1  0.44456220  0.42709892  0.10120601  1
  N  N54  1  0.23523452  0.51796711  0.85127607  1
  N  N55  1  0.12869672  0.41777903  0.61005747  1
  N  N56  1  0.88988771  0.54146497  0.33139638  1
  N  N57  1  0.77603477  0.42560063  0.10799953  1
  N  N58  1  0.55755980  0.53642137  0.85542573  1
  N  N59  1  0.44689720  0.42597219  0.61462795  1
  N  N60  1  0.23039123  0.85556046  0.36837015  1
  N  N61  1  0.10116079  0.75382352  0.09766619  1
  N  N62  1  0.86272287  0.88632801  0.84660016  1
  N  N63  1  0.76544815  0.77550696  0.60510697  1
  N  N64  1  0.54077002  0.86326545  0.33813540  1
  N  N65  1  0.46388850  0.75112732  0.08975061  1
  N  N66  1  0.24595914  0.85849642  0.84754915  1
  N  N67  1  0.10750906  0.76005553  0.61361848  1
  N  N68  1  0.90366795  0.87960847  0.34584141  1
  N  N69  1  0.77617514  0.76728862  0.10622358  1
  N  N70  1  0.55750584  0.87066719  0.85505396  1
  N  N71  1  0.44878399  0.75851576  0.60414112  1
