# generated using pymatgen
data_Sc11Al25N36
_symmetry_space_group_name_H-M   'P 1'
_cell_length_a   10.33771804
_cell_length_b   10.29738605
_cell_length_c   8.90835772
_cell_angle_alpha   89.94912812
_cell_angle_beta   90.01265077
_cell_angle_gamma   60.06790804
_symmetry_Int_Tables_number   1
_chemical_formula_structural   Sc11Al25N36
_chemical_formula_sum   'Sc11 Al25 N36'
_cell_volume   821.81948509
_cell_formula_units_Z   1
loop_
 _symmetry_equiv_pos_site_id
 _symmetry_equiv_pos_as_xyz
  1  'x, y, z'
loop_
 _atom_site_type_symbol
 _atom_site_label
 _atom_site_symmetry_multiplicity
 _atom_site_fract_x
 _atom_site_fract_y
 _atom_site_fract_z
 _atom_site_occupancy
  Sc  Sc0  1  0.11146272  0.09449552  0.35148583  1
  Sc  Sc1  1  0.87988260  0.20206342  0.60450059  1
  Sc  Sc2  1  0.45238448  0.08657171  0.34612701  1
  Sc  Sc3  1  0.11520998  0.09654790  0.85023954  1
  Sc  Sc4  1  0.11287113  0.43387256  0.34471729  1
  Sc  Sc5  1  0.88934684  0.54090451  0.61067916  1
  Sc  Sc6  1  0.44490309  0.42764840  0.34931182  1
  Sc  Sc7  1  0.76809238  0.43257509  0.34379451  1
  Sc  Sc8  1  0.22974240  0.86318066  0.10390603  1
  Sc  Sc9  1  0.10615734  0.76102653  0.84592628  1
  Sc  Sc10  1  0.77262522  0.76959985  0.34805449  1
  Al  Al11  1  0.22628189  0.20895653  0.08365149  1
  Al  Al12  1  0.76711359  0.09493355  0.84772273  1
  Al  Al13  1  0.55605323  0.20491789  0.08310047  1
  Al  Al14  1  0.23369659  0.20324380  0.59607962  1
  Al  Al15  1  0.78124490  0.09085618  0.32526363  1
  Al  Al16  1  0.88314875  0.20915914  0.08752521  1
  Al  Al17  1  0.44906531  0.09529130  0.84309966  1
  Al  Al18  1  0.55916385  0.19954158  0.59393471  1
  Al  Al19  1  0.22393082  0.53600899  0.07981318  1
  Al  Al20  1  0.76819595  0.43055048  0.84887394  1
  Al  Al21  1  0.55531201  0.53887768  0.07742160  1
  Al  Al22  1  0.12221752  0.42299447  0.84529326  1
  Al  Al23  1  0.22737082  0.53743046  0.59791578  1
  Al  Al24  1  0.88815811  0.54101577  0.08211295  1
  Al  Al25  1  0.44783584  0.42191060  0.84067391  1
  Al  Al26  1  0.54672635  0.54478065  0.59786459  1
  Al  Al27  1  0.10904813  0.76396618  0.35392730  1
  Al  Al28  1  0.77144762  0.77006106  0.84401818  1
  Al  Al29  1  0.88266694  0.88055993  0.58973463  1
  Al  Al30  1  0.44725312  0.75690254  0.34003281  1
  Al  Al31  1  0.55846673  0.86748921  0.07534708  1
  Al  Al32  1  0.23116478  0.86578793  0.59317297  1
  Al  Al33  1  0.88515683  0.87125082  0.08680604  1
  Al  Al34  1  0.44890704  0.75703727  0.83728637  1
  Al  Al35  1  0.55072389  0.87264912  0.60089458  1
  N  N36  1  0.22750011  0.20728515  0.36842552  1
  N  N37  1  0.10421895  0.11143648  0.10199806  1
  N  N38  1  0.87109217  0.21141129  0.86254410  1
  N  N39  1  0.76564384  0.08603062  0.62859960  1
  N  N40  1  0.57818321  0.19215316  0.36776603  1
  N  N41  1  0.44892041  0.08901827  0.09782963  1
  N  N42  1  0.23654704  0.21072114  0.86181167  1
  N  N43  1  0.12806589  0.08618389  0.60535589  1
  N  N44  1  0.87854680  0.19895864  0.35427667  1
  N  N45  1  0.77581216  0.09391895  0.10520454  1
  N  N46  1  0.55363532  0.20650074  0.86528983  1
  N  N47  1  0.44824460  0.09308556  0.61776395  1
  N  N48  1  0.21615729  0.55761440  0.37466771  1
  N  N49  1  0.11274928  0.42869816  0.09462851  1
  N  N50  1  0.88994940  0.54032800  0.86107045  1
  N  N51  1  0.75745707  0.43754713  0.61905103  1
  N  N52  1  0.54241355  0.55538647  0.37501670  1
  N  N53  1  0.44471392  0.42777761  0.10038385  1
  N  N54  1  0.23399402  0.52448670  0.85770855  1
  N  N55  1  0.12992116  0.41885443  0.61822784  1
  N  N56  1  0.88696340  0.54155802  0.35980469  1
  N  N57  1  0.77413635  0.43055270  0.09281666  1
  N  N58  1  0.55087028  0.53972085  0.86004319  1
  N  N59  1  0.44707021  0.42314324  0.61638927  1
  N  N60  1  0.23361485  0.85462273  0.35969335  1
  N  N61  1  0.10127942  0.75041210  0.10971701  1
  N  N62  1  0.87045819  0.88182849  0.86835972  1
  N  N63  1  0.76891734  0.77994438  0.61594099  1
  N  N64  1  0.54517560  0.86092196  0.37877476  1
  N  N65  1  0.46738254  0.74890675  0.11385412  1
  N  N66  1  0.23972778  0.86149115  0.86067522  1
  N  N67  1  0.10716012  0.76679132  0.60327619  1
  N  N68  1  0.89722140  0.88399109  0.36385117  1
  N  N69  1  0.77407101  0.76285953  0.09846491  1
  N  N70  1  0.55412627  0.87098962  0.85622107  1
  N  N71  1  0.44357586  0.76007807  0.62111361  1
