# generated using pymatgen
data_Sc11Al25N36
_symmetry_space_group_name_H-M   'P 1'
_cell_length_a   9.92807521
_cell_length_b   9.87760628
_cell_length_c   10.06894794
_cell_angle_alpha   89.92128395
_cell_angle_beta   90.02194498
_cell_angle_gamma   60.11208950
_symmetry_Int_Tables_number   1
_chemical_formula_structural   Sc11Al25N36
_chemical_formula_sum   'Sc11 Al25 N36'
_cell_volume   856.09149258
_cell_formula_units_Z   1
loop_
 _symmetry_equiv_pos_site_id
 _symmetry_equiv_pos_as_xyz
  1  'x, y, z'
loop_
 _atom_site_type_symbol
 _atom_site_label
 _atom_site_symmetry_multiplicity
 _atom_site_fract_x
 _atom_site_fract_y
 _atom_site_fract_z
 _atom_site_occupancy
  Sc  Sc0  1  0.10777243  0.09879907  0.33466816  1
  Sc  Sc1  1  0.88140663  0.20421098  0.58965148  1
  Sc  Sc2  1  0.44952513  0.08921106  0.32679838  1
  Sc  Sc3  1  0.11786373  0.09240911  0.83333119  1
  Sc  Sc4  1  0.10817430  0.43569968  0.32417201  1
  Sc  Sc5  1  0.88960089  0.54054372  0.60210315  1
  Sc  Sc6  1  0.44472113  0.42792023  0.33634637  1
  Sc  Sc7  1  0.76980435  0.43380669  0.31895700  1
  Sc  Sc8  1  0.23082750  0.86519428  0.09412232  1
  Sc  Sc9  1  0.10859718  0.76042653  0.83369326  1
  Sc  Sc10  1  0.77477467  0.76628384  0.33210253  1
  Al  Al11  1  0.22522346  0.21020483  0.06474643  1
  Al  Al12  1  0.76591852  0.09472520  0.82672682  1
  Al  Al13  1  0.55565475  0.20575608  0.06729632  1
  Al  Al14  1  0.23426531  0.20281565  0.58053467  1
  Al  Al15  1  0.78067193  0.09250999  0.32119088  1
  Al  Al16  1  0.88229591  0.20901651  0.06422207  1
  Al  Al17  1  0.44979307  0.09390571  0.82460348  1
  Al  Al18  1  0.55831337  0.19852590  0.57968088  1
  Al  Al19  1  0.22537855  0.53194354  0.06834435  1
  Al  Al20  1  0.76558203  0.43187089  0.83088614  1
  Al  Al21  1  0.55688739  0.53722463  0.06562075  1
  Al  Al22  1  0.12593001  0.42203658  0.82500961  1
  Al  Al23  1  0.22439875  0.54126083  0.57840725  1
  Al  Al24  1  0.89006377  0.54003763  0.05646492  1
  Al  Al25  1  0.44734287  0.42353406  0.82129478  1
  Al  Al26  1  0.54730020  0.54536621  0.58137992  1
  Al  Al27  1  0.10746534  0.76200998  0.32501711  1
  Al  Al28  1  0.76913667  0.77278936  0.82271441  1
  Al  Al29  1  0.88671006  0.87819303  0.57394250  1
  Al  Al30  1  0.45032744  0.75504772  0.32747804  1
  Al  Al31  1  0.56117569  0.86640678  0.06582198  1
  Al  Al32  1  0.22948753  0.86427203  0.56753097  1
  Al  Al33  1  0.88099908  0.87271406  0.07344161  1
  Al  Al34  1  0.44866313  0.75726215  0.82246290  1
  Al  Al35  1  0.54916340  0.87427838  0.58182866  1
  N  N36  1  0.22630012  0.21107534  0.39308555  1
  N  N37  1  0.10052019  0.11572425  0.11222265  1
  N  N38  1  0.87011922  0.21017502  0.87115830  1
  N  N39  1  0.76632701  0.08392340  0.64014226  1
  N  N40  1  0.57789129  0.19025516  0.39092871  1
  N  N41  1  0.44721137  0.09087855  0.11354424  1
  N  N42  1  0.23760811  0.21054298  0.87721938  1
  N  N43  1  0.13127973  0.08259441  0.61550932  1
  N  N44  1  0.87487969  0.20353769  0.37962937  1
  N  N45  1  0.77561068  0.09530314  0.12726009  1
  N  N46  1  0.55383413  0.20714780  0.87743294  1
  N  N47  1  0.44756274  0.09220133  0.63235768  1
  N  N48  1  0.21206139  0.55869637  0.39090259  1
  N  N49  1  0.10947397  0.42843404  0.10967467  1
  N  N50  1  0.89158373  0.54072322  0.86159804  1
  N  N51  1  0.75266400  0.43924537  0.64290483  1
  N  N52  1  0.54699337  0.55413376  0.39443438  1
  N  N53  1  0.44608546  0.42657314  0.12088392  1
  N  N54  1  0.23653832  0.52188261  0.88002580  1
  N  N55  1  0.13585612  0.41714133  0.63599578  1
  N  N56  1  0.88633964  0.53926377  0.39248197  1
  N  N57  1  0.77809150  0.42908459  0.10237589  1
  N  N58  1  0.54941500  0.54085633  0.87710560  1
  N  N59  1  0.44454479  0.42594903  0.62683829  1
  N  N60  1  0.23281914  0.85400645  0.36601501  1
  N  N61  1  0.09876896  0.74884834  0.12775869  1
  N  N62  1  0.86746728  0.88360175  0.88570987  1
  N  N63  1  0.76583682  0.78451236  0.63084574  1
  N  N64  1  0.54433018  0.86304895  0.39455240  1
  N  N65  1  0.47370485  0.74498115  0.13664206  1
  N  N66  1  0.24447831  0.85848534  0.88682557  1
  N  N67  1  0.10952812  0.76539538  0.62258621  1
  N  N68  1  0.89895822  0.88353242  0.38298172  1
  N  N69  1  0.77752212  0.75766149  0.11652302  1
  N  N70  1  0.55453451  0.87019412  0.87490817  1
  N  N71  1  0.44058928  0.76204477  0.63327129  1
