# generated using pymatgen
data_Sc11Al25N36
_symmetry_space_group_name_H-M   'P 1'
_cell_length_a   9.86956555
_cell_length_b   9.82767621
_cell_length_c   10.22465369
_cell_angle_alpha   89.99922784
_cell_angle_beta   90.06311079
_cell_angle_gamma   60.04303131
_symmetry_Int_Tables_number   1
_chemical_formula_structural   Sc11Al25N36
_chemical_formula_sum   'Sc11 Al25 N36'
_cell_volume   859.24281864
_cell_formula_units_Z   1
loop_
 _symmetry_equiv_pos_site_id
 _symmetry_equiv_pos_as_xyz
  1  'x, y, z'
loop_
 _atom_site_type_symbol
 _atom_site_label
 _atom_site_symmetry_multiplicity
 _atom_site_fract_x
 _atom_site_fract_y
 _atom_site_fract_z
 _atom_site_occupancy
  Sc  Sc0  1  0.11402424  0.09285005  0.38006675  1
  Sc  Sc1  1  0.87810259  0.20580075  0.62766236  1
  Sc  Sc2  1  0.45043550  0.08953554  0.38006160  1
  Sc  Sc3  1  0.11152816  0.09767610  0.87247073  1
  Sc  Sc4  1  0.11337533  0.43222400  0.37221959  1
  Sc  Sc5  1  0.88844500  0.54154719  0.64028938  1
  Sc  Sc6  1  0.44555016  0.42884079  0.37381973  1
  Sc  Sc7  1  0.76879826  0.43430690  0.36424220  1
  Sc  Sc8  1  0.22888962  0.86292096  0.13057909  1
  Sc  Sc9  1  0.10676415  0.75836161  0.86365067  1
  Sc  Sc10  1  0.77417737  0.76858491  0.36721152  1
  Al  Al11  1  0.22554427  0.20708633  0.12396072  1
  Al  Al12  1  0.76841220  0.09765238  0.88438359  1
  Al  Al13  1  0.55997203  0.20159219  0.12380160  1
  Al  Al14  1  0.23330480  0.20495189  0.64254892  1
  Al  Al15  1  0.77918202  0.08919810  0.37527656  1
  Al  Al16  1  0.88538440  0.20387139  0.12934346  1
  Al  Al17  1  0.44984112  0.09373106  0.88126508  1
  Al  Al18  1  0.55302315  0.20376187  0.63915845  1
  Al  Al19  1  0.22000364  0.54137176  0.12637380  1
  Al  Al20  1  0.77125645  0.42899569  0.89068696  1
  Al  Al21  1  0.55481538  0.54110613  0.12319830  1
  Al  Al22  1  0.11931166  0.42498437  0.88782113  1
  Al  Al23  1  0.23067186  0.52967145  0.63685134  1
  Al  Al24  1  0.89049823  0.53963696  0.11695303  1
  Al  Al25  1  0.44784191  0.42346743  0.88162682  1
  Al  Al26  1  0.55048849  0.54142984  0.63813095  1
  Al  Al27  1  0.11018316  0.76411783  0.38729259  1
  Al  Al28  1  0.77101441  0.76834658  0.88809238  1
  Al  Al29  1  0.87434838  0.87854839  0.63115525  1
  Al  Al30  1  0.44310768  0.75912933  0.38466712  1
  Al  Al31  1  0.55515222  0.86967854  0.12447165  1
  Al  Al32  1  0.23286106  0.86636099  0.63179231  1
  Al  Al33  1  0.89086267  0.87366699  0.12955939  1
  Al  Al34  1  0.45542504  0.75496339  0.87801691  1
  Al  Al35  1  0.55380267  0.87378517  0.63863120  1
  N  N36  1  0.22831762  0.20501957  0.30737723  1
  N  N37  1  0.10398780  0.10750001  0.08328461  1
  N  N38  1  0.86610633  0.21585233  0.83333764  1
  N  N39  1  0.76106071  0.08730812  0.56415428  1
  N  N40  1  0.57460731  0.19353100  0.30816203  1
  N  N41  1  0.44739859  0.09200584  0.07062815  1
  N  N42  1  0.23509767  0.21381616  0.82912576  1
  N  N43  1  0.12709314  0.08998961  0.59567661  1
  N  N44  1  0.88122544  0.19578779  0.31904912  1
  N  N45  1  0.77911300  0.09183500  0.07074499  1
  N  N46  1  0.55603374  0.20564775  0.82820693  1
  N  N47  1  0.44589900  0.09279863  0.59121495  1
  N  N48  1  0.21426828  0.56135952  0.31260189  1
  N  N49  1  0.11557535  0.42714722  0.07515103  1
  N  N50  1  0.88951911  0.53909139  0.85033379  1
  N  N51  1  0.75733858  0.44158081  0.57304881  1
  N  N52  1  0.53888098  0.56075986  0.30692388  1
  N  N53  1  0.44442820  0.42725546  0.07302908  1
  N  N54  1  0.23510613  0.51810694  0.82308023  1
  N  N55  1  0.12855861  0.41791783  0.58185350  1
  N  N56  1  0.88977614  0.54161047  0.30321375  1
  N  N57  1  0.77590969  0.42572787  0.07984432  1
  N  N58  1  0.55741755  0.53656491  0.82723242  1
  N  N59  1  0.44675982  0.42610658  0.58640514  1
  N  N60  1  0.23028913  0.85568626  0.34007723  1
  N  N61  1  0.10101826  0.75396353  0.06941148  1
  N  N62  1  0.86255277  0.88648652  0.81841628  1
  N  N63  1  0.76531668  0.77564431  0.57689430  1
  N  N64  1  0.54065858  0.86340077  0.30996610  1
  N  N65  1  0.46380102  0.75126014  0.06156514  1
  N  N66  1  0.24583137  0.85864593  0.81943442  1
  N  N67  1  0.10738305  0.76021490  0.58546401  1
  N  N68  1  0.90357115  0.87975727  0.31764243  1
  N  N69  1  0.77604707  0.76744433  0.07805716  1
  N  N70  1  0.55737164  0.87081636  0.82684985  1
  N  N71  1  0.44863612  0.75866056  0.57595062  1
