# generated using pymatgen
data_Sc11Al25N36
_symmetry_space_group_name_H-M   'P 1'
_cell_length_a   10.24809765
_cell_length_b   10.20533734
_cell_length_c   9.16741191
_cell_angle_alpha   89.95142806
_cell_angle_beta   90.00587104
_cell_angle_gamma   60.07806214
_symmetry_Int_Tables_number   1
_chemical_formula_structural   Sc11Al25N36
_chemical_formula_sum   'Sc11 Al25 N36'
_cell_volume   830.97669295
_cell_formula_units_Z   1
loop_
 _symmetry_equiv_pos_site_id
 _symmetry_equiv_pos_as_xyz
  1  'x, y, z'
loop_
 _atom_site_type_symbol
 _atom_site_label
 _atom_site_symmetry_multiplicity
 _atom_site_fract_x
 _atom_site_fract_y
 _atom_site_fract_z
 _atom_site_occupancy
  Sc  Sc0  1  0.10994280  0.09619268  0.34946558  1
  Sc  Sc1  1  0.88038880  0.20206219  0.60328224  1
  Sc  Sc2  1  0.45186662  0.08691744  0.34211058  1
  Sc  Sc3  1  0.11672714  0.09460177  0.84769189  1
  Sc  Sc4  1  0.11151638  0.43447257  0.34048206  1
  Sc  Sc5  1  0.88954753  0.54060319  0.60951431  1
  Sc  Sc6  1  0.44484490  0.42738489  0.34772611  1
  Sc  Sc7  1  0.76915939  0.43210776  0.33938106  1
  Sc  Sc8  1  0.23022594  0.86434939  0.10350199  1
  Sc  Sc9  1  0.10695674  0.76135762  0.84564170  1
  Sc  Sc10  1  0.77304378  0.76849040  0.34650227  1
  Al  Al11  1  0.22611104  0.20970866  0.07686314  1
  Al  Al12  1  0.76625777  0.09446611  0.84128205  1
  Al  Al13  1  0.55535941  0.20584693  0.07814366  1
  Al  Al14  1  0.23395429  0.20283941  0.59063053  1
  Al  Al15  1  0.78160253  0.09147517  0.32311134  1
  Al  Al16  1  0.88277519  0.20971386  0.07857256  1
  Al  Al17  1  0.44955924  0.09502330  0.83626916  1
  Al  Al18  1  0.56004702  0.19834096  0.58768294  1
  Al  Al19  1  0.22509547  0.53395108  0.07549960  1
  Al  Al20  1  0.76653801  0.43129176  0.84296095  1
  Al  Al21  1  0.55548590  0.53810501  0.07371424  1
  Al  Al22  1  0.12397504  0.42255336  0.83801852  1
  Al  Al23  1  0.22571257  0.54012690  0.59159361  1
  Al  Al24  1  0.88841253  0.54127906  0.07236962  1
  Al  Al25  1  0.44787967  0.42207773  0.83260667  1
  Al  Al26  1  0.54621504  0.54576792  0.59164213  1
  Al  Al27  1  0.10840116  0.76315821  0.34137031  1
  Al  Al28  1  0.77052569  0.77176529  0.83522409  1
  Al  Al29  1  0.88499496  0.88010031  0.58317295  1
  Al  Al30  1  0.44898972  0.75583933  0.33363815  1
  Al  Al31  1  0.55972927  0.86699986  0.07183472  1
  Al  Al32  1  0.23047868  0.86466626  0.58282629  1
  Al  Al33  1  0.88304735  0.87146918  0.08278115  1
  Al  Al34  1  0.44805332  0.75723307  0.83271616  1
  Al  Al35  1  0.54966898  0.87286524  0.59489439  1
  N  N36  1  0.22713494  0.20817457  0.37743179  1
  N  N37  1  0.10259574  0.11356622  0.10283871  1
  N  N38  1  0.87050716  0.21113164  0.86279165  1
  N  N39  1  0.76579225  0.08465422  0.63298963  1
  N  N40  1  0.57923233  0.19095529  0.37541157  1
  N  N41  1  0.44854982  0.08947972  0.10358851  1
  N  N42  1  0.23741239  0.21058824  0.86590551  1
  N  N43  1  0.12958585  0.08407300  0.60693143  1
  N  N44  1  0.87795661  0.19926598  0.36473527  1
  N  N45  1  0.77579868  0.09499535  0.11146278  1
  N  N46  1  0.55328609  0.20706197  0.86922989  1
  N  N47  1  0.44839552  0.09272199  0.62071083  1
  N  N48  1  0.21483068  0.55870584  0.38044022  1
  N  N49  1  0.11128905  0.42898035  0.09949039  1
  N  N50  1  0.88999101  0.54114727  0.85949992  1
  N  N51  1  0.75561246  0.43825230  0.62505201  1
  N  N52  1  0.54299126  0.55557489  0.38130029  1
  N  N53  1  0.44508257  0.42733040  0.10841748  1
  N  N54  1  0.23537590  0.52345371  0.86425628  1
  N  N55  1  0.13191718  0.41844696  0.62260487  1
  N  N56  1  0.88691040  0.54092330  0.37325071  1
  N  N57  1  0.77542284  0.43023881  0.09571881  1
  N  N58  1  0.54990164  0.53991072  0.86522899  1
  N  N59  1  0.44630962  0.42380355  0.61772006  1
  N  N60  1  0.23351009  0.85406722  0.35908817  1
  N  N61  1  0.10048267  0.74980144  0.11363507  1
  N  N62  1  0.86898820  0.88240309  0.87463298  1
  N  N63  1  0.76819887  0.78176163  0.61832034  1
  N  N64  1  0.54436932  0.86095927  0.38460948  1
  N  N65  1  0.46975101  0.74761790  0.12063172  1
  N  N66  1  0.24128313  0.86075517  0.87136962  1
  N  N67  1  0.10793972  0.76694170  0.61114002  1
  N  N68  1  0.89812410  0.88420323  0.36937141  1
  N  N69  1  0.77491664  0.76102916  0.10573011  1
  N  N70  1  0.55427826  0.87085660  0.86109163  1
  N  N71  1  0.44173170  0.76083144  0.62557839  1
