# generated using pymatgen
data_Sc11Al25N36
_symmetry_space_group_name_H-M   'P 1'
_cell_length_a   10.38720424
_cell_length_b   10.34003863
_cell_length_c   8.79057790
_cell_angle_alpha   90.00118751
_cell_angle_beta   90.06624968
_cell_angle_gamma   60.04491287
_symmetry_Int_Tables_number   1
_chemical_formula_structural   Sc11Al25N36
_chemical_formula_sum   'Sc11 Al25 N36'
_cell_volume   818.02180906
_cell_formula_units_Z   1
loop_
 _symmetry_equiv_pos_site_id
 _symmetry_equiv_pos_as_xyz
  1  'x, y, z'
loop_
 _atom_site_type_symbol
 _atom_site_label
 _atom_site_symmetry_multiplicity
 _atom_site_fract_x
 _atom_site_fract_y
 _atom_site_fract_z
 _atom_site_occupancy
  Sc  Sc0  1  0.11391528  0.09297192  0.34679185  1
  Sc  Sc1  1  0.87977735  0.20409987  0.59841061  1
  Sc  Sc2  1  0.45094949  0.08878898  0.34601424  1
  Sc  Sc3  1  0.11207706  0.09775414  0.84855070  1
  Sc  Sc4  1  0.11428784  0.43092930  0.34411305  1
  Sc  Sc5  1  0.88825473  0.54140084  0.60601416  1
  Sc  Sc6  1  0.44639041  0.42794130  0.34495102  1
  Sc  Sc7  1  0.76676067  0.43379920  0.33910762  1
  Sc  Sc8  1  0.23218571  0.86092620  0.09896010  1
  Sc  Sc9  1  0.10608904  0.75886843  0.84194817  1
  Sc  Sc10  1  0.77313801  0.77020281  0.34339155  1
  Al  Al11  1  0.22615431  0.20829115  0.09421141  1
  Al  Al12  1  0.76967487  0.09599947  0.86097891  1
  Al  Al13  1  0.56058452  0.20166513  0.09800653  1
  Al  Al14  1  0.23437369  0.20370485  0.61894511  1
  Al  Al15  1  0.77910050  0.09009474  0.34996912  1
  Al  Al16  1  0.88352733  0.20559355  0.09462093  1
  Al  Al17  1  0.45079621  0.09270975  0.85729369  1
  Al  Al18  1  0.55480375  0.20300652  0.61767866  1
  Al  Al19  1  0.22101488  0.54042743  0.09690044  1
  Al  Al20  1  0.77023569  0.42907802  0.85467740  1
  Al  Al21  1  0.55322684  0.54284908  0.09177731  1
  Al  Al22  1  0.12009283  0.42549044  0.85331569  1
  Al  Al23  1  0.22936270  0.53324282  0.60653372  1
  Al  Al24  1  0.88944371  0.54054189  0.08573988  1
  Al  Al25  1  0.44569942  0.42282327  0.85572510  1
  Al  Al26  1  0.54918456  0.53968086  0.62226850  1
  Al  Al27  1  0.10894151  0.76479723  0.36032184  1
  Al  Al28  1  0.77051660  0.76983164  0.85496532  1
  Al  Al29  1  0.87736171  0.87940936  0.60839578  1
  Al  Al30  1  0.44466209  0.75713544  0.36946186  1
  Al  Al31  1  0.55569368  0.86742152  0.09650367  1
  Al  Al32  1  0.23032035  0.86750725  0.60133692  1
  Al  Al33  1  0.88910541  0.87426033  0.10230048  1
  Al  Al34  1  0.45172690  0.75793196  0.85011599  1
  Al  Al35  1  0.55364404  0.87459440  0.61558486  1
  N  N36  1  0.22769526  0.20574896  0.32106239  1
  N  N37  1  0.10395120  0.10601677  0.09259268  1
  N  N38  1  0.87051161  0.21157950  0.84905263  1
  N  N39  1  0.76253698  0.08862978  0.58583859  1
  N  N40  1  0.57467294  0.19482684  0.32356455  1
  N  N41  1  0.45068945  0.08920197  0.08151004  1
  N  N42  1  0.23586609  0.21118123  0.84816350  1
  N  N43  1  0.12849289  0.09126616  0.59749458  1
  N  N44  1  0.87956682  0.19843450  0.33783437  1
  N  N45  1  0.77911526  0.09184616  0.08374904  1
  N  N46  1  0.55635129  0.20483712  0.84401555  1
  N  N47  1  0.44693523  0.09364659  0.60234542  1
  N  N48  1  0.21629249  0.55776702  0.33902755  1
  N  N49  1  0.11199655  0.43095590  0.08197677  1
  N  N50  1  0.88902745  0.54027462  0.85453799  1
  N  N51  1  0.75650423  0.43893007  0.60071024  1
  N  N52  1  0.54088946  0.55837552  0.32182797  1
  N  N53  1  0.44296641  0.42694807  0.08214302  1
  N  N54  1  0.23333177  0.52373407  0.83852921  1
  N  N55  1  0.12971820  0.41719297  0.60206050  1
  N  N56  1  0.88751443  0.54166409  0.33923103  1
  N  N57  1  0.77610584  0.42817171  0.08256261  1
  N  N58  1  0.55304103  0.53676918  0.84495745  1
  N  N59  1  0.44756368  0.42452456  0.60135813  1
  N  N60  1  0.23324012  0.85437193  0.35489098  1
  N  N61  1  0.10229080  0.75414874  0.08965043  1
  N  N62  1  0.86870499  0.88419585  0.83743162  1
  N  N63  1  0.76601115  0.77806016  0.59826341  1
  N  N64  1  0.54368444  0.86062136  0.33123133  1
  N  N65  1  0.46285929  0.75244553  0.07081458  1
  N  N66  1  0.23932737  0.86138037  0.83498860  1
  N  N67  1  0.10547321  0.76243111  0.58960057  1
  N  N68  1  0.89926086  0.88115770  0.33426552  1
  N  N69  1  0.77605846  0.76557700  0.08396686  1
  N  N70  1  0.55534724  0.87293063  0.83916401  1
  N  N71  1  0.44968081  0.75674060  0.59712023  1
