# generated using pymatgen
data_Sc11Al25N36
_symmetry_space_group_name_H-M   'P 1'
_cell_length_a   9.91283858
_cell_length_b   9.86711261
_cell_length_c   10.11425566
_cell_angle_alpha   90.00178738
_cell_angle_beta   90.03917653
_cell_angle_gamma   60.07330688
_symmetry_Int_Tables_number   1
_chemical_formula_structural   Sc11Al25N36
_chemical_formula_sum   'Sc11 Al25 N36'
_cell_volume   857.37908153
_cell_formula_units_Z   1
loop_
 _symmetry_equiv_pos_site_id
 _symmetry_equiv_pos_as_xyz
  1  'x, y, z'
loop_
 _atom_site_type_symbol
 _atom_site_label
 _atom_site_symmetry_multiplicity
 _atom_site_fract_x
 _atom_site_fract_y
 _atom_site_fract_z
 _atom_site_occupancy
  Sc  Sc0  1  0.11543817  0.09159297  0.37403944  1
  Sc  Sc1  1  0.87833357  0.20644854  0.62046830  1
  Sc  Sc2  1  0.45074049  0.08926361  0.37500361  1
  Sc  Sc3  1  0.11026932  0.09900166  0.86679184  1
  Sc  Sc4  1  0.11348953  0.43205604  0.36701506  1
  Sc  Sc5  1  0.88817618  0.54219376  0.63516904  1
  Sc  Sc6  1  0.44531268  0.42826302  0.36758581  1
  Sc  Sc7  1  0.76823430  0.43492549  0.35900648  1
  Sc  Sc8  1  0.22848865  0.86265215  0.12276804  1
  Sc  Sc9  1  0.10619361  0.75811915  0.85653789  1
  Sc  Sc10  1  0.77424771  0.76906680  0.36093026  1
  Al  Al11  1  0.22560708  0.20704353  0.11940460  1
  Al  Al12  1  0.76841833  0.09808773  0.87983620  1
  Al  Al13  1  0.56070198  0.20086354  0.11970345  1
  Al  Al14  1  0.23383491  0.20500605  0.63831138  1
  Al  Al15  1  0.77942895  0.08863123  0.37217231  1
  Al  Al16  1  0.88534027  0.20362527  0.12649358  1
  Al  Al17  1  0.45002378  0.09350306  0.87741676  1
  Al  Al18  1  0.55304691  0.20397887  0.63521128  1
  Al  Al19  1  0.21913101  0.54234088  0.12233185  1
  Al  Al20  1  0.77085872  0.42861843  0.88648999  1
  Al  Al21  1  0.55438930  0.54138768  0.11950395  1
  Al  Al22  1  0.11957155  0.42500453  0.88388635  1
  Al  Al23  1  0.23158365  0.52852743  0.63239747  1
  Al  Al24  1  0.89048084  0.53958733  0.11250969  1
  Al  Al25  1  0.44766621  0.42330414  0.87847368  1
  Al  Al26  1  0.55033157  0.54113939  0.63391394  1
  Al  Al27  1  0.11053988  0.76447142  0.38403187  1
  Al  Al28  1  0.77056608  0.76888080  0.88496015  1
  Al  Al29  1  0.87307829  0.87917717  0.62743275  1
  Al  Al30  1  0.44239016  0.75904748  0.38087147  1
  Al  Al31  1  0.55463538  0.86953949  0.12112350  1
  Al  Al32  1  0.23340473  0.86675016  0.62903223  1
  Al  Al33  1  0.89151587  0.87396105  0.12535956  1
  Al  Al34  1  0.45599713  0.75472686  0.87392639  1
  Al  Al35  1  0.55409508  0.87377628  0.63415657  1
  N  N36  1  0.22878894  0.20494128  0.30457732  1
  N  N37  1  0.10317976  0.10821615  0.08073777  1
  N  N38  1  0.86540016  0.21638398  0.82863508  1
  N  N39  1  0.76076458  0.08745790  0.56237607  1
  N  N40  1  0.57593030  0.19237168  0.30551727  1
  N  N41  1  0.44770542  0.09156693  0.06845152  1
  N  N42  1  0.23539360  0.21378006  0.82706733  1
  N  N43  1  0.12806756  0.08954690  0.59316747  1
  N  N44  1  0.88144114  0.19568330  0.31898991  1
  N  N45  1  0.77962992  0.09200569  0.06791039  1
  N  N46  1  0.55581332  0.20584051  0.82603496  1
  N  N47  1  0.44617242  0.09286139  0.58815018  1
  N  N48  1  0.21357061  0.56221406  0.31036856  1
  N  N49  1  0.11548704  0.42730153  0.07304931  1
  N  N50  1  0.88918694  0.53939241  0.84807032  1
  N  N51  1  0.75665977  0.44275994  0.57006388  1
  N  N52  1  0.53848634  0.56082428  0.30479306  1
  N  N53  1  0.44414799  0.42714708  0.07159892  1
  N  N54  1  0.23578125  0.51745477  0.82047131  1
  N  N55  1  0.12862670  0.41779710  0.57894335  1
  N  N56  1  0.88982886  0.54159302  0.30106731  1
  N  N57  1  0.77566800  0.42532532  0.07804448  1
  N  N58  1  0.55700543  0.53633345  0.82481764  1
  N  N59  1  0.44701109  0.42571172  0.58239803  1
  N  N60  1  0.23066373  0.85487332  0.33505818  1
  N  N61  1  0.10031315  0.75359442  0.06467916  1
  N  N62  1  0.86159742  0.88679650  0.81617601  1
  N  N63  1  0.76509198  0.77612977  0.57301314  1
  N  N64  1  0.54039354  0.86287419  0.30810090  1
  N  N65  1  0.46458633  0.75072542  0.05898290  1
  N  N66  1  0.24565205  0.85924202  0.81926010  1
  N  N67  1  0.10764859  0.76053599  0.58455746  1
  N  N68  1  0.90450576  0.88002073  0.31521844  1
  N  N69  1  0.77569094  0.76797247  0.07685946  1
  N  N70  1  0.55757285  0.87075774  0.82409787  1
  N  N71  1  0.44822082  0.75875494  0.57391465  1
