# generated using pymatgen
data_Sc11Al25N36
_symmetry_space_group_name_H-M   'P 1'
_cell_length_a   9.86835395
_cell_length_b   9.82657770
_cell_length_c   10.22779352
_cell_angle_alpha   89.99921918
_cell_angle_beta   90.06477510
_cell_angle_gamma   60.04103479
_symmetry_Int_Tables_number   1
_chemical_formula_structural   Sc11Al25N36
_chemical_formula_sum   'Sc11 Al25 N36'
_cell_volume   859.28780791
_cell_formula_units_Z   1
loop_
 _symmetry_equiv_pos_site_id
 _symmetry_equiv_pos_as_xyz
  1  'x, y, z'
loop_
 _atom_site_type_symbol
 _atom_site_label
 _atom_site_symmetry_multiplicity
 _atom_site_fract_x
 _atom_site_fract_y
 _atom_site_fract_z
 _atom_site_occupancy
  Sc  Sc0  1  0.11399492  0.09287072  0.38487411  1
  Sc  Sc1  1  0.87811666  0.20574608  0.63250638  1
  Sc  Sc2  1  0.45044523  0.08952355  0.38484111  1
  Sc  Sc3  1  0.11159494  0.09760695  0.87727912  1
  Sc  Sc4  1  0.11339477  0.43221035  0.37700689  1
  Sc  Sc5  1  0.88847263  0.54149515  0.64506781  1
  Sc  Sc6  1  0.44557747  0.42884345  0.37863692  1
  Sc  Sc7  1  0.76883342  0.43426434  0.36903109  1
  Sc  Sc8  1  0.22893349  0.86290056  0.13545348  1
  Sc  Sc9  1  0.10680626  0.75834692  0.86850496  1
  Sc  Sc10  1  0.77419240  0.76854705  0.37202939  1
  Al  Al11  1  0.22556273  0.20706564  0.12873462  1
  Al  Al12  1  0.76843690  0.09761092  0.88914965  1
  Al  Al13  1  0.55997017  0.20159446  0.12855699  1
  Al  Al14  1  0.23330663  0.20492488  0.64730371  1
  Al  Al15  1  0.77918802  0.08919267  0.37999967  1
  Al  Al16  1  0.88540595  0.20385265  0.13406199  1
  Al  Al17  1  0.44985639  0.09371620  0.88601552  1
  Al  Al18  1  0.55303912  0.20373062  0.64390917  1
  Al  Al19  1  0.22005294  0.54132106  0.13112476  1
  Al  Al20  1  0.77129571  0.42897668  0.89544144  1
  Al  Al21  1  0.55485164  0.54107636  0.12793617  1
  Al  Al22  1  0.11932432  0.42495974  0.89257132  1
  Al  Al23  1  0.23066115  0.52968416  0.64161819  1
  Al  Al24  1  0.89052059  0.53961317  0.12172024  1
  Al  Al25  1  0.44786890  0.42344811  0.88635253  1
  Al  Al26  1  0.55051405  0.54140942  0.64289295  1
  Al  Al27  1  0.11018957  0.76408603  0.39202639  1
  Al  Al28  1  0.77105303  0.76830194  0.89281857  1
  Al  Al29  1  0.87440656  0.87849954  0.63590069  1
  Al  Al30  1  0.44315100  0.75911170  0.38941548  1
  Al  Al31  1  0.55518915  0.86965909  0.12919939  1
  Al  Al32  1  0.23286253  0.86632547  0.63650161  1
  Al  Al33  1  0.89086443  0.87363540  0.13432114  1
  Al  Al34  1  0.45543000  0.75494634  0.88276163  1
  Al  Al35  1  0.55381448  0.87376160  0.64339987  1
  N  N36  1  0.22831816  0.20500253  0.31210117  1
  N  N37  1  0.10403713  0.10745020  0.08800732  1
  N  N38  1  0.86615749  0.21580205  0.83811621  1
  N  N39  1  0.76108616  0.08727583  0.56884242  1
  N  N40  1  0.57457861  0.19355255  0.31287695  1
  N  N41  1  0.44740971  0.09199912  0.07533200  1
  N  N42  1  0.23510843  0.21379228  0.83382221  1
  N  N43  1  0.12708117  0.08998107  0.60038293  1
  N  N44  1  0.88123056  0.19576837  0.32368933  1
  N  N45  1  0.77911733  0.09180628  0.07546458  1
  N  N46  1  0.55606188  0.20561606  0.83290800  1
  N  N47  1  0.44590896  0.09277268  0.59593920  1
  N  N48  1  0.21431053  0.56131277  0.31730308  1
  N  N49  1  0.11559923  0.42712163  0.07985150  1
  N  N50  1  0.88954997  0.53905455  0.85503337  1
  N  N51  1  0.75737829  0.44151078  0.57777503  1
  N  N52  1  0.53891139  0.56074110  0.31161867  1
  N  N53  1  0.44445867  0.42723845  0.07770560  1
  N  N54  1  0.23510256  0.51810625  0.82779699  1
  N  N55  1  0.12857639  0.41789898  0.58657613  1
  N  N56  1  0.88979276  0.54158565  0.30791899  1
  N  N57  1  0.77594183  0.42571464  0.08453150  1
  N  N58  1  0.55745368  0.53654295  0.83194117  1
  N  N59  1  0.44676906  0.42609568  0.59116253  1
  N  N60  1  0.23029535  0.85568977  0.34487537  1
  N  N61  1  0.10106341  0.75395815  0.07419836  1
  N  N62  1  0.86260873  0.88644598  0.82312095  1
  N  N63  1  0.76534321  0.77560140  0.58164711  1
  N  N64  1  0.54068356  0.86339559  0.31465405  1
  N  N65  1  0.46379935  0.75125519  0.06626926  1
  N  N66  1  0.24585535  0.85860220  0.82407152  1
  N  N67  1  0.10739352  0.76018041  0.59012272  1
  N  N68  1  0.90355691  0.87972543  0.32235291  1
  N  N69  1  0.77608224  0.76740328  0.08272919  1
  N  N70  1  0.55738683  0.87079619  0.83156913  1
  N  N71  1  0.44867262  0.75863105  0.58065054  1
