# generated using pymatgen
data_Sc11Al25N36
_symmetry_space_group_name_H-M   'P 1'
_cell_length_a   10.09884044
_cell_length_b   10.05015077
_cell_length_c   9.60253042
_cell_angle_alpha   89.95471431
_cell_angle_beta   90.00500975
_cell_angle_gamma   60.09472104
_symmetry_Int_Tables_number   1
_chemical_formula_structural   Sc11Al25N36
_chemical_formula_sum   'Sc11 Al25 N36'
_cell_volume   844.83897212
_cell_formula_units_Z   1
loop_
 _symmetry_equiv_pos_site_id
 _symmetry_equiv_pos_as_xyz
  1  'x, y, z'
loop_
 _atom_site_type_symbol
 _atom_site_label
 _atom_site_symmetry_multiplicity
 _atom_site_fract_x
 _atom_site_fract_y
 _atom_site_fract_z
 _atom_site_occupancy
  Sc  Sc0  1  0.10806796  0.09803432  0.34439088  1
  Sc  Sc1  1  0.88116985  0.20279029  0.59969467  1
  Sc  Sc2  1  0.45089899  0.08778445  0.33436272  1
  Sc  Sc3  1  0.11836116  0.09276004  0.84239529  1
  Sc  Sc4  1  0.10932543  0.43542284  0.33299457  1
  Sc  Sc5  1  0.88970635  0.54017624  0.60752073  1
  Sc  Sc6  1  0.44470160  0.42724422  0.34394457  1
  Sc  Sc7  1  0.77041103  0.43187046  0.32948168  1
  Sc  Sc8  1  0.23097181  0.86579829  0.10100463  1
  Sc  Sc9  1  0.10807747  0.76101152  0.84354021  1
  Sc  Sc10  1  0.77409855  0.76700923  0.34204610  1
  Al  Al11  1  0.22562645  0.21071488  0.07010438  1
  Al  Al12  1  0.76523117  0.09418990  0.83240046  1
  Al  Al13  1  0.55516811  0.20642003  0.07241528  1
  Al  Al14  1  0.23437814  0.20245956  0.58437250  1
  Al  Al15  1  0.78198145  0.09203416  0.32189293  1
  Al  Al16  1  0.88212757  0.20984436  0.06836120  1
  Al  Al17  1  0.44997725  0.09443577  0.82859095  1
  Al  Al18  1  0.56008662  0.19733164  0.58169700  1
  Al  Al19  1  0.22621278  0.53148667  0.07153181  1
  Al  Al20  1  0.76463182  0.43232211  0.83546460  1
  Al  Al21  1  0.55589214  0.53733073  0.06951283  1
  Al  Al22  1  0.12635325  0.42192659  0.82911478  1
  Al  Al23  1  0.22383430  0.54277637  0.58349439  1
  Al  Al24  1  0.88910285  0.54130175  0.06245276  1
  Al  Al25  1  0.44759746  0.42268581  0.82395159  1
  Al  Al26  1  0.54639386  0.54629398  0.58466648  1
  Al  Al27  1  0.10743524  0.76223014  0.32710530  1
  Al  Al28  1  0.76901216  0.77371157  0.82531309  1
  Al  Al29  1  0.88762667  0.87891255  0.57707888  1
  Al  Al30  1  0.45045069  0.75470248  0.32833831  1
  Al  Al31  1  0.56127023  0.86636752  0.06861720  1
  Al  Al32  1  0.22966888  0.86353575  0.57268124  1
  Al  Al33  1  0.88034519  0.87245699  0.07755790  1
  Al  Al34  1  0.44789306  0.75733912  0.82709043  1
  Al  Al35  1  0.54853381  0.87342694  0.58651267  1
  N  N36  1  0.22677912  0.20962974  0.38631574  1
  N  N37  1  0.10064279  0.11579213  0.10584266  1
  N  N38  1  0.86990316  0.21060203  0.86456543  1
  N  N39  1  0.76587345  0.08337561  0.63684769  1
  N  N40  1  0.57972636  0.18958497  0.38375959  1
  N  N41  1  0.44793252  0.09032839  0.11027563  1
  N  N42  1  0.23822685  0.21073826  0.87201310  1
  N  N43  1  0.13142872  0.08227134  0.61049802  1
  N  N44  1  0.87643583  0.20077753  0.37676180  1
  N  N45  1  0.77594703  0.09580218  0.12035392  1
  N  N46  1  0.55320715  0.20756301  0.87390037  1
  N  N47  1  0.44822197  0.09218600  0.62609482  1
  N  N48  1  0.21244868  0.56041844  0.38606322  1
  N  N49  1  0.10974051  0.42919687  0.10652660  1
  N  N50  1  0.89058978  0.54174321  0.85896204  1
  N  N51  1  0.75304829  0.43948507  0.63482111  1
  N  N52  1  0.54488634  0.55517022  0.38822846  1
  N  N53  1  0.44561367  0.42675805  0.11777998  1
  N  N54  1  0.23708868  0.52165759  0.87336279  1
  N  N55  1  0.13470586  0.41770991  0.62896725  1
  N  N56  1  0.88663675  0.53961686  0.38691404  1
  N  N57  1  0.77700501  0.42954429  0.09979062  1
  N  N58  1  0.54886435  0.54024666  0.87210630  1
  N  N59  1  0.44508108  0.42503485  0.62052402  1
  N  N60  1  0.23303805  0.85345445  0.35964008  1
  N  N61  1  0.09928646  0.74945281  0.11830702  1
  N  N62  1  0.86674455  0.88340666  0.88112366  1
  N  N63  1  0.76677413  0.78374598  0.62255315  1
  N  N64  1  0.54350394  0.86157672  0.39003262  1
  N  N65  1  0.47260577  0.74592724  0.12887856  1
  N  N66  1  0.24377990  0.85952737  0.88246349  1
  N  N67  1  0.10901044  0.76645340  0.62109090  1
  N  N68  1  0.89987756  0.88379391  0.37651004  1
  N  N69  1  0.77635159  0.75899192  0.11460424  1
  N  N70  1  0.55464986  0.87054399  0.86869119  1
  N  N71  1  0.44026802  0.76162116  0.63006014  1
