# generated using pymatgen
data_ScAl17N18
_symmetry_space_group_name_H-M   'P 1'
_cell_length_a   9.49672869
_cell_length_b   9.49499181
_cell_length_c   9.99672816
_cell_angle_alpha   90.00000653
_cell_angle_beta   89.98546339
_cell_angle_gamma   60.00638329
_symmetry_Int_Tables_number   1
_chemical_formula_structural   ScAl17N18
_chemical_formula_sum   'Sc2 Al34 N36'
_cell_volume   780.70156928
_cell_formula_units_Z   2
loop_
 _symmetry_equiv_pos_site_id
 _symmetry_equiv_pos_as_xyz
  1  'x, y, z'
loop_
 _atom_site_type_symbol
 _atom_site_label
 _atom_site_symmetry_multiplicity
 _atom_site_fract_x
 _atom_site_fract_y
 _atom_site_fract_z
 _atom_site_occupancy
  Al  Al0  1  0.11375450  0.09081574  0.38648391  1
  Al  Al1  1  0.22235476  0.20548926  0.13622612  1
  Al  Al2  1  0.77662027  0.09451348  0.89013335  1
  Al  Al3  1  0.88841581  0.20803213  0.64116657  1
  Al  Al4  1  0.44423305  0.09455020  0.38596571  1
  Al  Al5  1  0.55387249  0.20635854  0.13593086  1
  Al  Al6  1  0.11270074  0.09361843  0.88595459  1
  Al  Al7  1  0.22246333  0.20543496  0.63585979  1
  Al  Al8  1  0.77594212  0.09645595  0.38300370  1
  Al  Al9  1  0.89225179  0.20083520  0.13265857  1
  Al  Al10  1  0.44426657  0.09453337  0.88599652  1
  Al  Al11  1  0.55296604  0.20932793  0.63628173  1
  Al  Al12  1  0.11375427  0.42876279  0.38648392  1
  Al  Al13  1  0.22312225  0.53713627  0.13631812  1
  Al  Al14  1  0.77719300  0.42807009  0.88768676  1
  Al  Al15  1  0.88841596  0.53688574  0.64116661  1
  Al  Al16  1  0.44047151  0.42882273  0.38677116  1
  Al  Al17  1  0.54980008  0.54176679  0.13328167  1
  Al  Al18  1  0.11270069  0.42701392  0.88595466  1
  Al  Al19  1  0.22589568  0.53663959  0.63670618  1
  Al  Al20  1  0.89225157  0.54024643  0.13265868  1
  Al  Al21  1  0.44375556  0.42740561  0.88625060  1
  Al  Al22  1  0.55431754  0.53950808  0.63998208  1
  Al  Al23  1  0.11724243  0.75804525  0.38229475  1
  Al  Al24  1  0.22312230  0.87307477  0.13631812  1
  Al  Al25  1  0.77662033  0.76219946  0.89013335  1
  Al  Al26  1  0.44047172  0.76403909  0.38677123  1
  Al  Al27  1  0.55387255  0.87310255  0.13593092  1
  Al  Al28  1  0.11207071  0.76063119  0.89035646  1
  Al  Al29  1  0.22589582  0.87079797  0.63670619  1
  Al  Al30  1  0.77594209  0.76093500  0.38300380  1
  Al  Al31  1  0.88856493  0.87238422  0.13812860  1
  Al  Al32  1  0.44375561  0.76217211  0.88625058  1
  Al  Al33  1  0.55296627  0.87103967  0.63628177  1
  Sc  Sc34  1  0.77768420  0.42782414  0.38001765  1
  Sc  Sc35  1  0.88926973  0.87203223  0.62764693  1
  N  N36  1  0.22157952  0.20587711  0.32955048  1
  N  N37  1  0.11350198  0.09369402  0.07665629  1
  N  N38  1  0.88937301  0.20406669  0.83346048  1
  N  N39  1  0.76760243  0.11605892  0.57301530  1
  N  N40  1  0.55368972  0.20685139  0.32761457  1
  N  N41  1  0.44390099  0.09471588  0.07828237  1
  N  N42  1  0.22264657  0.20534359  0.82759602  1
  N  N43  1  0.11054576  0.09414582  0.57998552  1
  N  N44  1  0.90044231  0.18575645  0.32118323  1
  N  N45  1  0.77588512  0.09463070  0.08090483  1
  N  N46  1  0.55567661  0.20524222  0.82875497  1
  N  N47  1  0.44530150  0.09401566  0.57869769  1
  N  N48  1  0.22312706  0.53682130  0.32712385  1
  N  N49  1  0.11350176  0.42613658  0.07665648  1
  N  N50  1  0.88937297  0.53989431  0.83346052  1
  N  N51  1  0.77760667  0.42786320  0.59335973  1
  N  N52  1  0.53451519  0.54940954  0.32317681  1
  N  N53  1  0.44359091  0.42690856  0.07684512  1
  N  N54  1  0.22193657  0.53962374  0.82897080  1
  N  N55  1  0.11054579  0.42864085  0.57998551  1
  N  N56  1  0.90044180  0.54713503  0.32118352  1
  N  N57  1  0.77719533  0.42806866  0.08392592  1
  N  N58  1  0.55407980  0.53962715  0.83207419  1
  N  N59  1  0.44461984  0.42806144  0.57932494  1
  N  N60  1  0.22312725  0.87338529  0.32712388  1
  N  N61  1  0.11217320  0.76057969  0.08275322  1
  N  N62  1  0.88938724  0.87197334  0.84086424  1
  N  N63  1  0.76760275  0.74967159  0.57301556  1
  N  N64  1  0.55368984  0.87279308  0.32761468  1
  N  N65  1  0.44359099  0.76283338  0.07684503  1
  N  N66  1  0.22193665  0.87177344  0.82897077  1
  N  N67  1  0.13241404  0.75045921  0.57216911  1
  N  N68  1  0.88906599  0.87213386  0.33508616  1
  N  N69  1  0.77588514  0.76281674  0.08090489  1
  N  N70  1  0.55567674  0.87241513  0.82875498  1
  N  N71  1  0.44461999  0.76065169  0.57932500  1
