# generated using pymatgen
data_ScAl17N18
_symmetry_space_group_name_H-M   'P 1'
_cell_length_a   9.49497045
_cell_length_b   9.49327718
_cell_length_c   10.00136240
_cell_angle_alpha   89.99999451
_cell_angle_beta   89.98550403
_cell_angle_gamma   60.00594943
_symmetry_Int_Tables_number   1
_chemical_formula_structural   ScAl17N18
_chemical_formula_sum   'Sc2 Al34 N36'
_cell_volume   780.77444267
_cell_formula_units_Z   2
loop_
 _symmetry_equiv_pos_site_id
 _symmetry_equiv_pos_as_xyz
  1  'x, y, z'
loop_
 _atom_site_type_symbol
 _atom_site_label
 _atom_site_symmetry_multiplicity
 _atom_site_fract_x
 _atom_site_fract_y
 _atom_site_fract_z
 _atom_site_occupancy
  Al  Al0  1  0.11374789  0.09082974  0.39064280  1
  Al  Al1  1  0.22236220  0.20548560  0.14039487  1
  Al  Al2  1  0.77661023  0.09453858  0.89434914  1
  Al  Al3  1  0.88843429  0.20799841  0.64535988  1
  Al  Al4  1  0.44423260  0.09455038  0.39015306  1
  Al  Al5  1  0.55387041  0.20636024  0.14012542  1
  Al  Al6  1  0.11270098  0.09361126  0.89015248  1
  Al  Al7  1  0.22246102  0.20543616  0.64004946  1
  Al  Al8  1  0.77596410  0.09642482  0.38715968  1
  Al  Al9  1  0.89222570  0.20088765  0.13684875  1
  Al  Al10  1  0.44427774  0.09452782  0.89016428  1
  Al  Al11  1  0.55297221  0.20933217  0.64044005  1
  Al  Al12  1  0.11374785  0.42875572  0.39064290  1
  Al  Al13  1  0.22311901  0.53714536  0.14051214  1
  Al  Al14  1  0.77719857  0.42806736  0.89180383  1
  Al  Al15  1  0.88843427  0.53690060  0.64535991  1
  Al  Al16  1  0.44047447  0.42882922  0.39092873  1
  Al  Al17  1  0.54984591  0.54174376  0.13744421  1
  Al  Al18  1  0.11270098  0.42702104  0.89015248  1
  Al  Al19  1  0.22588391  0.53664336  0.64086117  1
  Al  Al20  1  0.89222573  0.54021997  0.13684875  1
  Al  Al21  1  0.44374734  0.42740518  0.89044189  1
  Al  Al22  1  0.55428222  0.53952560  0.64419417  1
  Al  Al23  1  0.11718574  0.75807377  0.38647605  1
  Al  Al24  1  0.22311896  0.87306898  0.14051206  1
  Al  Al25  1  0.77661019  0.76218445  0.89434917  1
  Al  Al26  1  0.44047444  0.76402969  0.39092869  1
  Al  Al27  1  0.55387036  0.87310277  0.14012542  1
  Al  Al28  1  0.11209582  0.76061871  0.89454494  1
  Al  Al29  1  0.22588385  0.87080609  0.64086110  1
  Al  Al30  1  0.77596406  0.76094438  0.38715965  1
  Al  Al31  1  0.88856749  0.87238290  0.14225177  1
  Al  Al32  1  0.44374732  0.76218082  0.89044184  1
  Al  Al33  1  0.55297215  0.87102903  0.64044004  1
  Sc  Sc34  1  0.77766905  0.42783209  0.38437299  1
  Sc  Sc35  1  0.88924226  0.87204548  0.63198184  1
  N  N36  1  0.22159071  0.20587140  0.33364864  1
  N  N37  1  0.11349362  0.09369356  0.08078431  1
  N  N38  1  0.88938727  0.20403759  0.83756266  1
  N  N39  1  0.76762829  0.11602408  0.57710169  1
  N  N40  1  0.55368933  0.20684762  0.33173704  1
  N  N41  1  0.44391328  0.09471001  0.08238414  1
  N  N42  1  0.22264162  0.20534591  0.83171959  1
  N  N43  1  0.11054681  0.09415482  0.58407897  1
  N  N44  1  0.90041002  0.18581814  0.32530069  1
  N  N45  1  0.77587574  0.09466100  0.08503191  1
  N  N46  1  0.55568483  0.20524577  0.83285028  1
  N  N47  1  0.44530063  0.09401631  0.58281583  1
  N  N48  1  0.22311225  0.53683868  0.33124545  1
  N  N49  1  0.11349363  0.42614604  0.08078434  1
  N  N50  1  0.88938725  0.53990862  0.83756269  1
  N  N51  1  0.77759666  0.42786825  0.59760487  1
  N  N52  1  0.53456161  0.54938597  0.32726766  1
  N  N53  1  0.44358919  0.42690805  0.08096777  1
  N  N54  1  0.22193621  0.53962074  0.83306369  1
  N  N55  1  0.11054679  0.42863159  0.58407907  1
  N  N56  1  0.90041000  0.54710532  0.32530069  1
  N  N57  1  0.77719949  0.42806688  0.08794079  1
  N  N58  1  0.55404964  0.53964192  0.83619571  1
  N  N59  1  0.44461812  0.42807299  0.58341520  1
  N  N60  1  0.22311223  0.87338253  0.33124534  1
  N  N61  1  0.11219567  0.76056874  0.08685298  1
  N  N62  1  0.88937785  0.87197774  0.84509160  1
  N  N63  1  0.76762822  0.74968075  0.57710162  1
  N  N64  1  0.55368931  0.87279659  0.33173702  1
  N  N65  1  0.44358915  0.76283604  0.08096769  1
  N  N66  1  0.22193617  0.87177649  0.83306362  1
  N  N67  1  0.13234532  0.75049391  0.57628093  1
  N  N68  1  0.88906455  0.87213443  0.33910158  1
  N  N69  1  0.77587569  0.76279644  0.08503192  1
  N  N70  1  0.55568481  0.87240291  0.83285029  1
  N  N71  1  0.44461807  0.76064217  0.58341515  1
