# generated using pymatgen
data_ScAl17N18
_symmetry_space_group_name_H-M   'P 1'
_cell_length_a   9.49482750
_cell_length_b   9.49312715
_cell_length_c   10.00175248
_cell_angle_alpha   89.99999806
_cell_angle_beta   89.98551624
_cell_angle_gamma   60.00594552
_symmetry_Int_Tables_number   1
_chemical_formula_structural   ScAl17N18
_chemical_formula_sum   'Sc2 Al34 N36'
_cell_volume   780.78076937
_cell_formula_units_Z   2
loop_
 _symmetry_equiv_pos_site_id
 _symmetry_equiv_pos_as_xyz
  1  'x, y, z'
loop_
 _atom_site_type_symbol
 _atom_site_label
 _atom_site_symmetry_multiplicity
 _atom_site_fract_x
 _atom_site_fract_y
 _atom_site_fract_z
 _atom_site_occupancy
  Al  Al0  1  0.11373968  0.09083445  0.40607071  1
  Al  Al1  1  0.22235501  0.20548918  0.15582387  1
  Al  Al2  1  0.77660240  0.09454417  0.90977961  1
  Al  Al3  1  0.88842784  0.20799946  0.66078644  1
  Al  Al4  1  0.44422538  0.09455399  0.40558258  1
  Al  Al5  1  0.55386260  0.20636440  0.15555472  1
  Al  Al6  1  0.11269323  0.09361483  0.90558128  1
  Al  Al7  1  0.22245369  0.20543986  0.65547839  1
  Al  Al8  1  0.77595811  0.09642648  0.40258280  1
  Al  Al9  1  0.89221678  0.20089534  0.15227640  1
  Al  Al10  1  0.44427115  0.09453109  0.90559246  1
  Al  Al11  1  0.55296578  0.20933596  0.65586718  1
  Al  Al12  1  0.11373961  0.42875925  0.40607071  1
  Al  Al13  1  0.22311128  0.53714960  0.15594194  1
  Al  Al14  1  0.77719196  0.42807067  0.90722740  1
  Al  Al15  1  0.88842780  0.53690602  0.66078643  1
  Al  Al16  1  0.44046717  0.42883379  0.40635669  1
  Al  Al17  1  0.54984193  0.54174572  0.15286944  1
  Al  Al18  1  0.11269322  0.42702528  0.90558128  1
  Al  Al19  1  0.22587522  0.53664796  0.65628897  1
  Al  Al20  1  0.89221675  0.54022123  0.15227640  1
  Al  Al21  1  0.44373923  0.42740887  0.90587131  1
  Al  Al22  1  0.55427213  0.53953062  0.65962541  1
  Al  Al23  1  0.11717407  0.75807964  0.40190362  1
  Al  Al24  1  0.22311129  0.87307248  0.15594194  1
  Al  Al25  1  0.77660238  0.76218675  0.90977962  1
  Al  Al26  1  0.44046719  0.76403238  0.40635668  1
  Al  Al27  1  0.55386259  0.87310638  0.15555472  1
  Al  Al28  1  0.11208978  0.76062177  0.90997361  1
  Al  Al29  1  0.22587519  0.87081022  0.65628894  1
  Al  Al30  1  0.77595809  0.76094867  0.40258274  1
  Al  Al31  1  0.88856059  0.87238639  0.15767553  1
  Al  Al32  1  0.44373921  0.76218523  0.90587128  1
  Al  Al33  1  0.55296574  0.87103163  0.65586715  1
  Sc  Sc34  1  0.77765995  0.42783657  0.39981460  1
  Sc  Sc35  1  0.88923227  0.87205045  0.64742023  1
  N  N36  1  0.22158405  0.20587468  0.34907168  1
  N  N37  1  0.11348567  0.09369741  0.09620772  1
  N  N38  1  0.88938090  0.20403897  0.85298253  1
  N  N39  1  0.76762236  0.11602526  0.59251948  1
  N  N40  1  0.55368133  0.20685152  0.34716027  1
  N  N41  1  0.44390647  0.09471343  0.09780694  1
  N  N42  1  0.22263423  0.20534958  0.84714278  1
  N  N43  1  0.11053945  0.09415908  0.59950048  1
  N  N44  1  0.90040053  0.18582682  0.34072231  1
  N  N45  1  0.77586749  0.09466730  0.10045513  1
  N  N46  1  0.55567829  0.20524958  0.84827208  1
  N  N47  1  0.44529338  0.09401997  0.59823950  1
  N  N48  1  0.22310382  0.53684344  0.34666933  1
  N  N49  1  0.11348565  0.42615024  0.09620771  1
  N  N50  1  0.88938089  0.53991352  0.85298252  1
  N  N51  1  0.77758778  0.42787272  0.61303700  1
  N  N52  1  0.53455767  0.54938786  0.34268770  1
  N  N53  1  0.44358126  0.42691188  0.09639123  1
  N  N54  1  0.22192880  0.53962429  0.84848550  1
  N  N55  1  0.11053942  0.42863483  0.59950050  1
  N  N56  1  0.90040045  0.54710592  0.34072231  1
  N  N57  1  0.77719247  0.42807041  0.10335523  1
  N  N58  1  0.55404004  0.53964667  0.85161945  1
  N  N59  1  0.44461017  0.42807781  0.59883708  1
  N  N60  1  0.22310383  0.87338614  0.34666934  1
  N  N61  1  0.11219002  0.76057165  0.10227466  1
  N  N62  1  0.88936968  0.87198183  0.86052227  1
  N  N63  1  0.76762227  0.74968559  0.59251941  1
  N  N64  1  0.55368132  0.87280059  0.34716024  1
  N  N65  1  0.44358125  0.76284019  0.09639120  1
  N  N66  1  0.22192878  0.87178030  0.84848550  1
  N  N67  1  0.13233224  0.75050053  0.59170303  1
  N  N68  1  0.88905726  0.87213805  0.35451545  1
  N  N69  1  0.77586748  0.76279854  0.10045514  1
  N  N70  1  0.55567828  0.87240552  0.84827204  1
  N  N71  1  0.44461013  0.76064533  0.59883704  1
