# generated using pymatgen
data_ScAl17N18
_symmetry_space_group_name_H-M   'P 1'
_cell_length_a   9.58969257
_cell_length_b   9.58701535
_cell_length_c   9.73975161
_cell_angle_alpha   90.00000166
_cell_angle_beta   89.98500495
_cell_angle_gamma   60.01219464
_symmetry_Int_Tables_number   1
_chemical_formula_structural   ScAl17N18
_chemical_formula_sum   'Sc2 Al34 N36'
_cell_volume   775.56812959
_cell_formula_units_Z   2
loop_
 _symmetry_equiv_pos_site_id
 _symmetry_equiv_pos_as_xyz
  1  'x, y, z'
loop_
 _atom_site_type_symbol
 _atom_site_label
 _atom_site_symmetry_multiplicity
 _atom_site_fract_x
 _atom_site_fract_y
 _atom_site_fract_z
 _atom_site_occupancy
  Al  Al0  1  0.11375464  0.09054748  0.38230427  1
  Al  Al1  1  0.22216208  0.20558617  0.13188434  1
  Al  Al2  1  0.77671585  0.09380566  0.88377896  1
  Al  Al3  1  0.88782176  0.20901116  0.63595584  1
  Al  Al4  1  0.44437379  0.09447966  0.38060683  1
  Al  Al5  1  0.55375949  0.20644605  0.13040188  1
  Al  Al6  1  0.11302154  0.09380222  0.88012485  1
  Al  Al7  1  0.22270281  0.20531549  0.63020826  1
  Al  Al8  1  0.77523044  0.09766699  0.37824722  1
  Al  Al9  1  0.89319295  0.19922857  0.12641611  1
  Al  Al10  1  0.44387158  0.09473016  0.88146726  1
  Al  Al11  1  0.55277022  0.20914469  0.63189976  1
  Al  Al12  1  0.11375374  0.42902866  0.38230430  1
  Al  Al13  1  0.22329957  0.53655120  0.13071306  1
  Al  Al14  1  0.77677069  0.42828042  0.88391598  1
  Al  Al15  1  0.88782266  0.53650262  0.63595598  1
  Al  Al16  1  0.44024874  0.42867911  0.38251610  1
  Al  Al17  1  0.54812281  0.54260681  0.12845468  1
  Al  Al18  1  0.11302135  0.42650742  0.88012543  1
  Al  Al19  1  0.22593405  0.53687183  0.63246375  1
  Al  Al20  1  0.89319192  0.54091354  0.12641632  1
  Al  Al21  1  0.44392607  0.42741376  0.88064840  1
  Al  Al22  1  0.55518183  0.53907723  0.63366997  1
  Al  Al23  1  0.11885500  0.75723726  0.37627701  1
  Al  Al24  1  0.22329972  0.87348360  0.13071310  1
  Al  Al25  1  0.77671599  0.76281013  0.88377929  1
  Al  Al26  1  0.44024920  0.76440488  0.38251657  1
  Al  Al27  1  0.55375930  0.87313034  0.13040244  1
  Al  Al28  1  0.11135617  0.76098749  0.88524096  1
  Al  Al29  1  0.22593450  0.87052777  0.63246364  1
  Al  Al30  1  0.77523043  0.76043367  0.37824734  1
  Al  Al31  1  0.88825355  0.87254072  0.13401526  1
  Al  Al32  1  0.44392617  0.76199207  0.88064803  1
  Al  Al33  1  0.55277152  0.87142057  0.63189978  1
  Sc  Sc34  1  0.77807313  0.42762702  0.36825893  1
  Sc  Sc35  1  0.88998134  0.87167918  0.61681909  1
  N  N36  1  0.22123494  0.20605141  0.32946939  1
  N  N37  1  0.11406585  0.09377600  0.07496568  1
  N  N38  1  0.88899589  0.20487720  0.83328114  1
  N  N39  1  0.76687973  0.11704201  0.57304455  1
  N  N40  1  0.55354755  0.20713585  0.32632135  1
  N  N41  1  0.44343831  0.09494526  0.07788048  1
  N  N42  1  0.22306091  0.20513858  0.82594694  1
  N  N43  1  0.11041351  0.09391098  0.57992242  1
  N  N44  1  0.90143528  0.18411874  0.31972873  1
  N  N45  1  0.77593194  0.09387334  0.07939109  1
  N  N46  1  0.55529915  0.20510423  0.82837939  1
  N  N47  1  0.44549277  0.09391794  0.57740888  1
  N  N48  1  0.22352384  0.53607547  0.32578269  1
  N  N49  1  0.11406483  0.42548611  0.07496648  1
  N  N50  1  0.88899593  0.53946545  0.83328135  1
  N  N51  1  0.77791880  0.42770522  0.58837255  1
  N  N52  1  0.53299658  0.55017207  0.32308022  1
  N  N53  1  0.44359214  0.42690239  0.07536615  1
  N  N54  1  0.22183232  0.53987380  0.82871833  1
  N  N55  1  0.11041402  0.42900178  0.57992201  1
  N  N56  1  0.90143311  0.54778411  0.31972989  1
  N  N57  1  0.77683024  0.42824884  0.08581309  1
  N  N58  1  0.55476913  0.53928480  0.83070112  1
  N  N59  1  0.44446375  0.42774803  0.57926694  1
  N  N60  1  0.22352412  0.87373759  0.32578320  1
  N  N61  1  0.11159395  0.76086688  0.08257475  1
  N  N62  1  0.88972195  0.87180838  0.83645820  1
  N  N63  1  0.76688194  0.74940714  0.57304556  1
  N  N64  1  0.55354761  0.87265690  0.32632208  1
  N  N65  1  0.44359195  0.76283476  0.07536574  1
  N  N66  1  0.22183234  0.87163147  0.82871782  1
  N  N67  1  0.13412147  0.74960237  0.57086516  1
  N  N68  1  0.88875989  0.87228894  0.33684986  1
  N  N69  1  0.77593188  0.76352260  0.07939161  1
  N  N70  1  0.55529954  0.87293530  0.82837905  1
  N  N71  1  0.44446425  0.76111741  0.57926734  1
