# generated using pymatgen
data_ScAl17N18
_symmetry_space_group_name_H-M   'P 1'
_cell_length_a   9.53355023
_cell_length_b   9.53136285
_cell_length_c   9.89709037
_cell_angle_alpha   89.99999416
_cell_angle_beta   89.98468689
_cell_angle_gamma   60.00984981
_symmetry_Int_Tables_number   1
_chemical_formula_structural   ScAl17N18
_chemical_formula_sum   'Sc2 Al34 N36'
_cell_volume   778.91650406
_cell_formula_units_Z   2
loop_
 _symmetry_equiv_pos_site_id
 _symmetry_equiv_pos_as_xyz
  1  'x, y, z'
loop_
 _atom_site_type_symbol
 _atom_site_label
 _atom_site_symmetry_multiplicity
 _atom_site_fract_x
 _atom_site_fract_y
 _atom_site_fract_z
 _atom_site_occupancy
  Al  Al0  1  0.11379076  0.09064367  0.38305741  1
  Al  Al1  1  0.22224415  0.20554488  0.13269559  1
  Al  Al2  1  0.77672940  0.09410331  0.88555483  1
  Al  Al3  1  0.88807783  0.20862477  0.63713072  1
  Al  Al4  1  0.44426663  0.09453345  0.38202696  1
  Al  Al5  1  0.55386319  0.20636564  0.13186422  1
  Al  Al6  1  0.11278050  0.09373242  0.88178834  1
  Al  Al7  1  0.22253758  0.20539786  0.63183285  1
  Al  Al8  1  0.77554441  0.09707424  0.37945369  1
  Al  Al9  1  0.89271393  0.19994142  0.12837309  1
  Al  Al10  1  0.44406985  0.09463131  0.88243737  1
  Al  Al11  1  0.55283434  0.20926691  0.63281964  1
  Al  Al12  1  0.11379000  0.42889684  0.38305748  1
  Al  Al13  1  0.22317178  0.53692158  0.13223681  1
  Al  Al14  1  0.77700725  0.42816244  0.88472230  1
  Al  Al15  1  0.88807865  0.53663236  0.63713085  1
  Al  Al16  1  0.44035662  0.42874050  0.38334053  1
  Al  Al17  1  0.54891399  0.54221083  0.12965428  1
  Al  Al18  1  0.11278030  0.42681874  0.88178883  1
  Al  Al19  1  0.22598299  0.53668037  0.63329269  1
  Al  Al20  1  0.89271302  0.54067911  0.12837340  1
  Al  Al21  1  0.44386055  0.42742382  0.88218941  1
  Al  Al22  1  0.55484977  0.53924294  0.63545807  1
  Al  Al23  1  0.11813993  0.75759522  0.37817079  1
  Al  Al24  1  0.22317202  0.87324043  0.13223682  1
  Al  Al25  1  0.77672955  0.76249946  0.88555503  1
  Al  Al26  1  0.44035716  0.76423600  0.38334088  1
  Al  Al27  1  0.55386310  0.87310647  0.13186465  1
  Al  Al28  1  0.11163431  0.76084868  0.88636691  1
  Al  Al29  1  0.22598350  0.87066980  0.63329261  1
  Al  Al30  1  0.77554435  0.76071310  0.37945405  1
  Al  Al31  1  0.88843107  0.87245162  0.13500402  1
  Al  Al32  1  0.44386071  0.76204806  0.88218918  1
  Al  Al33  1  0.55283541  0.87123379  0.63281977  1
  Sc  Sc34  1  0.77790013  0.42771410  0.37280292  1
  Sc  Sc35  1  0.88966226  0.87183819  0.62090163  1
  N  N36  1  0.22139021  0.20597329  0.32757092  1
  N  N37  1  0.11372981  0.09372142  0.07399035  1
  N  N38  1  0.88914156  0.20455613  0.83136486  1
  N  N39  1  0.76715446  0.11667365  0.57112799  1
  N  N40  1  0.55363594  0.20697009  0.32510990  1
  N  N41  1  0.44367895  0.09482542  0.07619730  1
  N  N42  1  0.22280310  0.20526697  0.82500395  1
  N  N43  1  0.11049304  0.09402311  0.57803516  1
  N  N44  1  0.90098360  0.18476341  0.31859626  1
  N  N45  1  0.77596475  0.09416540  0.07820762  1
  N  N46  1  0.55548133  0.20519045  0.82670136  1
  N  N47  1  0.44535266  0.09398850  0.57624103  1
  N  N48  1  0.22333376  0.53647817  0.32460250  1
  N  N49  1  0.11372892  0.42587766  0.07399103  1
  N  N50  1  0.88914160  0.53963987  0.83136501  1
  N  N51  1  0.77775844  0.42778590  0.58866331  1
  N  N52  1  0.53363652  0.54985143  0.32121608  1
  N  N53  1  0.44358709  0.42691376  0.07427987  1
  N  N54  1  0.22190069  0.53971551  0.82696375  1
  N  N55  1  0.11049346  0.42881124  0.57803484  1
  N  N56  1  0.90098167  0.54759009  0.31859737  1
  N  N57  1  0.77703802  0.42814540  0.08317443  1
  N  N58  1  0.55451157  0.53941312  0.82948437  1
  N  N59  1  0.44456859  0.42788807  0.57739327  1
  N  N60  1  0.22333417  0.87352402  0.32460287  1
  N  N61  1  0.11180266  0.76076300  0.08067786  1
  N  N62  1  0.88954012  0.87189882  0.83650052  1
  N  N63  1  0.76715643  0.74950190  0.57112904  1
  N  N64  1  0.55363604  0.87273311  0.32511048  1
  N  N65  1  0.44358706  0.76282927  0.07427962  1
  N  N66  1  0.22190080  0.87172039  0.82696337  1
  N  N67  1  0.13346743  0.74993004  0.56969218  1
  N  N68  1  0.88895682  0.87218999  0.33430756  1
  N  N69  1  0.77596473  0.76319869  0.07820799  1
  N  N70  1  0.55548168  0.87266596  0.82670118  1
  N  N71  1  0.44456914  0.76087347  0.57739359  1
