# generated using pymatgen
data_AlN
_symmetry_space_group_name_H-M   'P 1'
_cell_length_a   3.20447982
_cell_length_b   3.20450219
_cell_length_c   4.68758680
_cell_angle_alpha   90.00000009
_cell_angle_beta   90.00000010
_cell_angle_gamma   60.00024627
_symmetry_Int_Tables_number   1
_chemical_formula_structural   AlN
_chemical_formula_sum   'Al2 N2'
_cell_volume   41.68685629
_cell_formula_units_Z   2
loop_
 _symmetry_equiv_pos_site_id
 _symmetry_equiv_pos_as_xyz
  1  'x, y, z'
loop_
 _atom_site_type_symbol
 _atom_site_label
 _atom_site_symmetry_multiplicity
 _atom_site_fract_x
 _atom_site_fract_y
 _atom_site_fract_z
 _atom_site_occupancy
  Al  Al0  1  0.33333374  0.28333367  0.66307490  1
  Al  Al1  1  0.66666645  0.61666843  0.16307490  1
  N  N2  1  0.66666532  0.61667068  0.75552471  1
  N  N3  1  0.33333486  0.28333142  0.25552471  1
