
#======================================================================
# CRYSTAL DATA
#----------------------------------------------------------------------
data_VESTA_phase_1

_chemical_name_common                  'S    Al   Li                          '
_cell_length_a                         6.245486
_cell_length_b                         6.574646
_cell_length_c                         7.974915
_cell_angle_alpha                      90.132172
_cell_angle_beta                       89.374443
_cell_angle_gamma                      89.973412
_cell_volume                           327.444382
_space_group_name_H-M_alt              'P 1'
_space_group_IT_number                 1

loop_
_space_group_symop_operation_xyz
   'x, y, z'

loop_
   _atom_site_label
   _atom_site_occupancy
   _atom_site_fract_x
   _atom_site_fract_y
   _atom_site_fract_z
   _atom_site_adp_type
   _atom_site_U_iso_or_equiv
   _atom_site_type_symbol
   S1         1.0     0.849669     0.067690     0.875320    Uiso  ? S
   S2         1.0     0.871632     0.601174     0.117601    Uiso  ? S
   S3         1.0     0.867886     0.092808     0.350041    Uiso  ? S
   S4         1.0     0.347344     0.943888     0.102079    Uiso  ? S
   S5         1.0     0.851640     0.572325     0.602679    Uiso  ? S
   S6         1.0     0.378497     0.408935     0.849307    Uiso  ? S
   S7         1.0     0.377058     0.907037     0.631639    Uiso  ? S
   S8         1.0     0.352977     0.440622     0.374947    Uiso  ? S
   Al1        1.0     0.984311     0.932554     0.112127    Uiso  ? Al
   Al2        1.0     0.484664     0.078853     0.862915    Uiso  ? Al
   Al3        1.0     0.938401     0.430188     0.356177    Uiso  ? Al
   Al4        1.0     0.485307     0.575628     0.612099    Uiso  ? Al
   Li1        1.0     0.988563     0.412547     0.860395    Uiso  ? Li
   Li2        1.0     0.988366     0.922781     0.612161    Uiso  ? Li
   Li3        1.0     0.473511     0.592279     0.110521    Uiso  ? Li
   Li4        1.0     0.470338     0.087559     0.369815    Uiso  ? Li
