
#======================================================================
# CRYSTAL DATA
#----------------------------------------------------------------------
data_VESTA_phase_1

_chemical_name_common                  'S    Al   Li                          '
_cell_length_a                         6.245490
_cell_length_b                         6.587477
_cell_length_c                         7.994396
_cell_angle_alpha                      89.859306
_cell_angle_beta                       90.736923
_cell_angle_gamma                      89.930687
_cell_volume                           328.877163
_space_group_name_H-M_alt              'P 1'
_space_group_IT_number                 1

loop_
_space_group_symop_operation_xyz
   'x, y, z'

loop_
   _atom_site_label
   _atom_site_occupancy
   _atom_site_fract_x
   _atom_site_fract_y
   _atom_site_fract_z
   _atom_site_adp_type
   _atom_site_U_iso_or_equiv
   _atom_site_type_symbol
   S1         1.0     0.926501     0.069131     0.873440    Uiso  ? S
   S2         1.0     0.960676     0.601762     0.132418    Uiso  ? S
   S3         1.0     0.959680     0.099757     0.349023    Uiso  ? S
   S4         1.0     0.475557     0.933910     0.105766    Uiso  ? S
   S5         1.0     0.991087     0.563838     0.601508    Uiso  ? S
   S6         1.0     0.465531     0.418588     0.851218    Uiso  ? S
   S7         1.0     0.461302     0.906320     0.614527    Uiso  ? S
   S8         1.0     0.488698     0.440282     0.375569    Uiso  ? S
   Al1        1.0     0.843522     0.929944     0.117007    Uiso  ? Al
   Al2        1.0     0.498926     0.078341     0.854266    Uiso  ? Al
   Al3        1.0     0.853735     0.429384     0.362757    Uiso  ? Al
   Al4        1.0     0.354209     0.574572     0.611826    Uiso  ? Al
   Li1        1.0     0.867146     0.426133     0.870292    Uiso  ? Li
   Li2        1.0     0.864971     0.913319     0.606832    Uiso  ? Li
   Li3        1.0     0.349395     0.584799     0.112644    Uiso  ? Li
   Li4        1.0     0.349229     0.096790     0.360731    Uiso  ? Li
