
#======================================================================
# CRYSTAL DATA
#----------------------------------------------------------------------
data_VESTA_phase_1

_chemical_name_common                  'S    Al   Li                          '
_cell_length_a                         6.245491
_cell_length_b                         6.587637
_cell_length_c                         7.995585
_cell_angle_alpha                      90.137444
_cell_angle_beta                       89.235146
_cell_angle_gamma                      89.921104
_cell_volume                           328.932032
_space_group_name_H-M_alt              'P 1'
_space_group_IT_number                 1

loop_
_space_group_symop_operation_xyz
   'x, y, z'

loop_
   _atom_site_label
   _atom_site_occupancy
   _atom_site_fract_x
   _atom_site_fract_y
   _atom_site_fract_z
   _atom_site_adp_type
   _atom_site_U_iso_or_equiv
   _atom_site_type_symbol
   S1         1.0     0.850109     0.068034     0.875538    Uiso  ? S
   S2         1.0     0.878077     0.601764     0.114461    Uiso  ? S
   S3         1.0     0.873504     0.089843     0.351223    Uiso  ? S
   S4         1.0     0.347580     0.944661     0.101550    Uiso  ? S
   S5         1.0     0.863919     0.574331     0.605553    Uiso  ? S
   S6         1.0     0.379087     0.408613     0.849057    Uiso  ? S
   S7         1.0     0.378050     0.906640     0.632560    Uiso  ? S
   S8         1.0     0.416187     0.439267     0.373370    Uiso  ? S
   Al1        1.0     0.984223     0.933650     0.111913    Uiso  ? Al
   Al2        1.0     0.485197     0.078977     0.862867    Uiso  ? Al
   Al3        1.0     0.832965     0.430007     0.354112    Uiso  ? Al
   Al4        1.0     0.496312     0.578935     0.617830    Uiso  ? Al
   Li1        1.0     0.989523     0.411465     0.860562    Uiso  ? Li
   Li2        1.0     0.989247     0.923560     0.612526    Uiso  ? Li
   Li3        1.0     0.474317     0.595578     0.106348    Uiso  ? Li
   Li4        1.0     0.471867     0.081544     0.370355    Uiso  ? Li
