
#======================================================================
# CRYSTAL DATA
#----------------------------------------------------------------------
data_VESTA_phase_1

_chemical_name_common                  'S    Al   Li                          '
_cell_length_a                         6.245488
_cell_length_b                         6.578733
_cell_length_c                         8.040082
_cell_angle_alpha                      90.017197
_cell_angle_beta                       88.123650
_cell_angle_gamma                      90.060059
_cell_volume                           330.168736
_space_group_name_H-M_alt              'P 1'
_space_group_IT_number                 1

loop_
_space_group_symop_operation_xyz
   'x, y, z'

loop_
   _atom_site_label
   _atom_site_occupancy
   _atom_site_fract_x
   _atom_site_fract_y
   _atom_site_fract_z
   _atom_site_adp_type
   _atom_site_U_iso_or_equiv
   _atom_site_type_symbol
   S1         1.0     0.852778     0.067622     0.875247    Uiso  ? S
   S2         1.0     0.879510     0.599030     0.112987    Uiso  ? S
   S3         1.0     0.873026     0.091646     0.350262    Uiso  ? S
   S4         1.0     0.344270     0.946866     0.102732    Uiso  ? S
   S5         1.0     0.873726     0.571017     0.597917    Uiso  ? S
   S6         1.0     0.380570     0.408660     0.850888    Uiso  ? S
   S7         1.0     0.381088     0.906647     0.637663    Uiso  ? S
   S8         1.0     0.427770     0.441345     0.379501    Uiso  ? S
   Al1        1.0     0.978796     0.932682     0.112129    Uiso  ? Al
   Al2        1.0     0.488927     0.079459     0.865023    Uiso  ? Al
   Al3        1.0     0.794903     0.429760     0.350770    Uiso  ? Al
   Al4        1.0     0.509848     0.583317     0.626007    Uiso  ? Al
   Li1        1.0     0.988471     0.413747     0.857045    Uiso  ? Li
   Li2        1.0     0.989289     0.924356     0.608894    Uiso  ? Li
   Li3        1.0     0.473130     0.600090     0.101658    Uiso  ? Li
   Li4        1.0     0.474062     0.070624     0.371100    Uiso  ? Li
