
#======================================================================
# CRYSTAL DATA
#----------------------------------------------------------------------
data_VESTA_phase_1

_chemical_name_common                  'S    Al   Li                          '
_cell_length_a                         6.246437
_cell_length_b                         6.627510
_cell_length_c                         8.055402
_cell_angle_alpha                      90.182838
_cell_angle_beta                       90.315605
_cell_angle_gamma                      88.999649
_cell_volume                           333.422632
_space_group_name_H-M_alt              'P 1'
_space_group_IT_number                 1

loop_
_space_group_symop_operation_xyz
   'x, y, z'

loop_
   _atom_site_label
   _atom_site_occupancy
   _atom_site_fract_x
   _atom_site_fract_y
   _atom_site_fract_z
   _atom_site_adp_type
   _atom_site_U_iso_or_equiv
   _atom_site_type_symbol
   S1         1.0     0.890646     0.061589     0.872375    Uiso  ? S
   S2         1.0     0.942649     0.598843     0.131666    Uiso  ? S
   S3         1.0     0.944665     0.101065     0.342262    Uiso  ? S
   S4         1.0     0.455021     0.941878     0.100834    Uiso  ? S
   S5         1.0     0.925764     0.564667     0.602277    Uiso  ? S
   S6         1.0     0.404535     0.406436     0.853982    Uiso  ? S
   S7         1.0     0.399266     0.916543     0.625027    Uiso  ? S
   S8         1.0     0.464778     0.438664     0.369748    Uiso  ? S
   Al1        1.0     0.818888     0.922236     0.123365    Uiso  ? Al
   Al2        1.0     0.529693     0.080700     0.851608    Uiso  ? Al
   Al3        1.0     0.833355     0.430184     0.361952    Uiso  ? Al
   Al4        1.0     0.445341     0.580608     0.619874    Uiso  ? Al
   Li1        1.0     0.991963     0.410556     0.865918    Uiso  ? Li
   Li2        1.0     0.991159     0.915419     0.605698    Uiso  ? Li
   Li3        1.0     0.335738     0.599517     0.116104    Uiso  ? Li
   Li4        1.0     0.336703     0.097964     0.357134    Uiso  ? Li
