
#======================================================================
# CRYSTAL DATA
#----------------------------------------------------------------------
data_VESTA_phase_1

_chemical_name_common                  'S    Al   Li                          '
_cell_length_a                         6.245814
_cell_length_b                         6.606516
_cell_length_c                         8.071683
_cell_angle_alpha                      90.111015
_cell_angle_beta                       91.132591
_cell_angle_gamma                      89.411568
_cell_volume                           332.979322
_space_group_name_H-M_alt              'P 1'
_space_group_IT_number                 1

loop_
_space_group_symop_operation_xyz
   'x, y, z'

loop_
   _atom_site_label
   _atom_site_occupancy
   _atom_site_fract_x
   _atom_site_fract_y
   _atom_site_fract_z
   _atom_site_adp_type
   _atom_site_U_iso_or_equiv
   _atom_site_type_symbol
   S1         1.0     0.891104     0.058781     0.872876    Uiso  ? S
   S2         1.0     0.950254     0.602019     0.136448    Uiso  ? S
   S3         1.0     0.950120     0.101886     0.342007    Uiso  ? S
   S4         1.0     0.455771     0.939799     0.099170    Uiso  ? S
   S5         1.0     0.981189     0.559026     0.598605    Uiso  ? S
   S6         1.0     0.435716     0.413305     0.853240    Uiso  ? S
   S7         1.0     0.405213     0.913422     0.620590    Uiso  ? S
   S8         1.0     0.478099     0.442432     0.376529    Uiso  ? S
   Al1        1.0     0.818333     0.923406     0.123061    Uiso  ? Al
   Al2        1.0     0.526034     0.078883     0.848742    Uiso  ? Al
   Al3        1.0     0.841020     0.429673     0.362277    Uiso  ? Al
   Al4        1.0     0.347537     0.572265     0.614120    Uiso  ? Al
   Li1        1.0     0.940537     0.417832     0.873844    Uiso  ? Li
   Li2        1.0     0.997838     0.925260     0.607861    Uiso  ? Li
   Li3        1.0     0.345325     0.590078     0.114480    Uiso  ? Li
   Li4        1.0     0.346073     0.098801     0.355976    Uiso  ? Li
