
#======================================================================
# CRYSTAL DATA
#----------------------------------------------------------------------
data_VESTA_phase_1

_chemical_name_common                  'S    Al   Li                          '
_cell_length_a                         6.245708
_cell_length_b                         6.599593
_cell_length_c                         8.063473
_cell_angle_alpha                      90.118851
_cell_angle_beta                       91.294571
_cell_angle_gamma                      89.515388
_cell_volume                           332.272036
_space_group_name_H-M_alt              'P 1'
_space_group_IT_number                 1

loop_
_space_group_symop_operation_xyz
   'x, y, z'

loop_
   _atom_site_label
   _atom_site_occupancy
   _atom_site_fract_x
   _atom_site_fract_y
   _atom_site_fract_z
   _atom_site_adp_type
   _atom_site_U_iso_or_equiv
   _atom_site_type_symbol
   S1         1.0     0.895823     0.059067     0.874660    Uiso  ? S
   S2         1.0     0.952207     0.601082     0.136726    Uiso  ? S
   S3         1.0     0.951216     0.101233     0.343601    Uiso  ? S
   S4         1.0     0.457380     0.938841     0.098501    Uiso  ? S
   S5         1.0     0.985334     0.556001     0.601149    Uiso  ? S
   S6         1.0     0.457664     0.416152     0.851532    Uiso  ? S
   S7         1.0     0.407394     0.913613     0.619887    Uiso  ? S
   S8         1.0     0.479902     0.443170     0.375718    Uiso  ? S
   Al1        1.0     0.820232     0.922744     0.123908    Uiso  ? Al
   Al2        1.0     0.530545     0.076915     0.848415    Uiso  ? Al
   Al3        1.0     0.843005     0.429515     0.363260    Uiso  ? Al
   Al4        1.0     0.351021     0.571656     0.614347    Uiso  ? Al
   Li1        1.0     0.886157     0.426116     0.872242    Uiso  ? Li
   Li2        1.0     0.999780     0.924172     0.609312    Uiso  ? Li
   Li3        1.0     0.345363     0.587601     0.111475    Uiso  ? Li
   Li4        1.0     0.347141     0.098992     0.355093    Uiso  ? Li
