
#======================================================================
# CRYSTAL DATA
#----------------------------------------------------------------------
data_VESTA_phase_1

_chemical_name_common                  'S    Al   Li                          '
_cell_length_a                         6.245489
_cell_length_b                         6.583089
_cell_length_c                         7.988029
_cell_angle_alpha                      90.136314
_cell_angle_beta                       89.290825
_cell_angle_gamma                      89.939293
_cell_volume                           328.398414
_space_group_name_H-M_alt              'P 1'
_space_group_IT_number                 1

loop_
_space_group_symop_operation_xyz
   'x, y, z'

loop_
   _atom_site_label
   _atom_site_occupancy
   _atom_site_fract_x
   _atom_site_fract_y
   _atom_site_fract_z
   _atom_site_adp_type
   _atom_site_U_iso_or_equiv
   _atom_site_type_symbol
   S1         1.0     0.849882     0.067761     0.875549    Uiso  ? S
   S2         1.0     0.874222     0.602182     0.114736    Uiso  ? S
   S3         1.0     0.870079     0.089734     0.350820    Uiso  ? S
   S4         1.0     0.347744     0.944254     0.101889    Uiso  ? S
   S5         1.0     0.858342     0.574113     0.604997    Uiso  ? S
   S6         1.0     0.379436     0.409097     0.849578    Uiso  ? S
   S7         1.0     0.378078     0.906861     0.632395    Uiso  ? S
   S8         1.0     0.383753     0.440088     0.374738    Uiso  ? S
   Al1        1.0     0.985459     0.933704     0.111442    Uiso  ? Al
   Al2        1.0     0.484380     0.079229     0.862756    Uiso  ? Al
   Al3        1.0     0.885079     0.429696     0.354453    Uiso  ? Al
   Al4        1.0     0.489953     0.576367     0.613613    Uiso  ? Al
   Li1        1.0     0.989986     0.411336     0.860265    Uiso  ? Li
   Li2        1.0     0.989792     0.923415     0.612700    Uiso  ? Li
   Li3        1.0     0.473487     0.593386     0.109426    Uiso  ? Li
   Li4        1.0     0.470492     0.085646     0.370465    Uiso  ? Li
