
#======================================================================
# CRYSTAL DATA
#----------------------------------------------------------------------
data_VESTA_phase_1

_chemical_name_common                  'S    Al   Li                          '
_cell_length_a                         6.246367
_cell_length_b                         6.628309
_cell_length_c                         8.055593
_cell_angle_alpha                      90.206711
_cell_angle_beta                       90.376968
_cell_angle_gamma                      89.036850
_cell_volume                           333.468166
_space_group_name_H-M_alt              'P 1'
_space_group_IT_number                 1

loop_
_space_group_symop_operation_xyz
   'x, y, z'

loop_
   _atom_site_label
   _atom_site_occupancy
   _atom_site_fract_x
   _atom_site_fract_y
   _atom_site_fract_z
   _atom_site_adp_type
   _atom_site_U_iso_or_equiv
   _atom_site_type_symbol
   S1         1.0     0.890717     0.061508     0.872516    Uiso  ? S
   S2         1.0     0.943024     0.599074     0.131709    Uiso  ? S
   S3         1.0     0.945048     0.101090     0.342309    Uiso  ? S
   S4         1.0     0.455077     0.941764     0.100965    Uiso  ? S
   S5         1.0     0.958360     0.562946     0.599370    Uiso  ? S
   S6         1.0     0.408805     0.406998     0.855476    Uiso  ? S
   S7         1.0     0.402131     0.917142     0.624321    Uiso  ? S
   S8         1.0     0.470504     0.439604     0.371702    Uiso  ? S
   Al1        1.0     0.818749     0.922323     0.123259    Uiso  ? Al
   Al2        1.0     0.529278     0.080452     0.851621    Uiso  ? Al
   Al3        1.0     0.837169     0.430848     0.362817    Uiso  ? Al
   Al4        1.0     0.394691     0.578480     0.617261    Uiso  ? Al
   Li1        1.0     0.991799     0.410009     0.867003    Uiso  ? Li
   Li2        1.0     0.991174     0.917254     0.605859    Uiso  ? Li
   Li3        1.0     0.336375     0.599033     0.116385    Uiso  ? Li
   Li4        1.0     0.337262     0.098344     0.357249    Uiso  ? Li
