
#======================================================================
# CRYSTAL DATA
#----------------------------------------------------------------------
data_VESTA_phase_1

_chemical_name_common                  '100% icsd_608360.cif, 0% icsd_608360.c'
_cell_length_a                         6.245485
_cell_length_b                         6.548487
_cell_length_c                         7.922983
_cell_angle_alpha                      90.000000
_cell_angle_beta                       90.000000
_cell_angle_gamma                      89.999992
_cell_volume                           324.037948
_space_group_name_H-M_alt              'P 1'
_space_group_IT_number                 1

loop_
_space_group_symop_operation_xyz
   'x, y, z'

loop_
   _atom_site_label
   _atom_site_occupancy
   _atom_site_fract_x
   _atom_site_fract_y
   _atom_site_fract_z
   _atom_site_adp_type
   _atom_site_U_iso_or_equiv
   _atom_site_type_symbol
   S1         1.0     0.998109     0.067628     0.873930    Uiso  ? S
   S2         1.0     0.973026     0.599920     0.126492    Uiso  ? S
   S3         1.0     0.973026     0.099920     0.348508    Uiso  ? S
   S4         1.0     0.498108     0.940705     0.101071    Uiso  ? S
   S5         1.0     0.998109     0.567629     0.601071    Uiso  ? S
   S6         1.0     0.473026     0.408413     0.848508    Uiso  ? S
   S7         1.0     0.473026     0.908413     0.626493    Uiso  ? S
   S8         1.0     0.498108     0.440705     0.373929    Uiso  ? S
   Al1        1.0     0.862393     0.930847     0.113543    Uiso  ? Al
   Al2        1.0     0.362393     0.077486     0.861457    Uiso  ? Al
   Al3        1.0     0.862392     0.430847     0.361457    Uiso  ? Al
   Al4        1.0     0.362393     0.577486     0.613543    Uiso  ? Al
   Li1        1.0     0.866473     0.418769     0.865088    Uiso  ? Li
   Li2        1.0     0.866473     0.918769     0.609912    Uiso  ? Li
   Li3        1.0     0.366473     0.589565     0.109912    Uiso  ? Li
   Li4        1.0     0.366473     0.089565     0.365088    Uiso  ? Li
