
#======================================================================
# CRYSTAL DATA
#----------------------------------------------------------------------
data_VESTA_phase_1

_chemical_name_common                  'S    Al   Li                          '
_cell_length_a                         6.246517
_cell_length_b                         6.622259
_cell_length_c                         8.047346
_cell_angle_alpha                      90.157288
_cell_angle_beta                       90.271400
_cell_angle_gamma                      88.958580
_cell_volume                           332.827042
_space_group_name_H-M_alt              'P 1'
_space_group_IT_number                 1

loop_
_space_group_symop_operation_xyz
   'x, y, z'

loop_
   _atom_site_label
   _atom_site_occupancy
   _atom_site_fract_x
   _atom_site_fract_y
   _atom_site_fract_z
   _atom_site_adp_type
   _atom_site_U_iso_or_equiv
   _atom_site_type_symbol
   S1         1.0     0.889819     0.061925     0.872036    Uiso  ? S
   S2         1.0     0.943136     0.599222     0.132439    Uiso  ? S
   S3         1.0     0.944798     0.101138     0.342761    Uiso  ? S
   S4         1.0     0.454874     0.941965     0.100941    Uiso  ? S
   S5         1.0     0.892819     0.566802     0.606036    Uiso  ? S
   S6         1.0     0.400522     0.407153     0.850156    Uiso  ? S
   S7         1.0     0.397010     0.913208     0.626340    Uiso  ? S
   S8         1.0     0.459635     0.439251     0.369419    Uiso  ? S
   Al1        1.0     0.817908     0.922720     0.123253    Uiso  ? Al
   Al2        1.0     0.527699     0.082106     0.850780    Uiso  ? Al
   Al3        1.0     0.826236     0.427744     0.358321    Uiso  ? Al
   Al4        1.0     0.494804     0.582212     0.621827    Uiso  ? Al
   Li1        1.0     0.993938     0.410468     0.865976    Uiso  ? Li
   Li2        1.0     0.992765     0.914431     0.606445    Uiso  ? Li
   Li3        1.0     0.336596     0.599029     0.115056    Uiso  ? Li
   Li4        1.0     0.337605     0.097495     0.358039    Uiso  ? Li
