
#======================================================================
# CRYSTAL DATA
#----------------------------------------------------------------------
data_VESTA_phase_1

_chemical_name_common                  'S    Al   Li                          '
_cell_length_a                         6.245546
_cell_length_b                         6.595961
_cell_length_c                         8.040589
_cell_angle_alpha                      90.068558
_cell_angle_beta                       88.677711
_cell_angle_gamma                      90.252975
_cell_volume                           331.143458
_space_group_name_H-M_alt              'P 1'
_space_group_IT_number                 1

loop_
_space_group_symop_operation_xyz
   'x, y, z'

loop_
   _atom_site_label
   _atom_site_occupancy
   _atom_site_fract_x
   _atom_site_fract_y
   _atom_site_fract_z
   _atom_site_adp_type
   _atom_site_U_iso_or_equiv
   _atom_site_type_symbol
   S1         1.0     0.855045     0.068165     0.875242    Uiso  ? S
   S2         1.0     0.893191     0.600055     0.114793    Uiso  ? S
   S3         1.0     0.878537     0.095307     0.350532    Uiso  ? S
   S4         1.0     0.347618     0.951089     0.102721    Uiso  ? S
   S5         1.0     0.875359     0.573376     0.598763    Uiso  ? S
   S6         1.0     0.381389     0.405178     0.846539    Uiso  ? S
   S7         1.0     0.382989     0.904612     0.636243    Uiso  ? S
   S8         1.0     0.431998     0.438097     0.378857    Uiso  ? S
   Al1        1.0     0.981705     0.935370     0.113243    Uiso  ? Al
   Al2        1.0     0.491726     0.077855     0.863892    Uiso  ? Al
   Al3        1.0     0.799301     0.432885     0.349583    Uiso  ? Al
   Al4        1.0     0.512153     0.582914     0.625130    Uiso  ? Al
   Li1        1.0     0.988046     0.414066     0.856946    Uiso  ? Li
   Li2        1.0     0.991238     0.925906     0.609486    Uiso  ? Li
   Li3        1.0     0.418370     0.592417     0.106006    Uiso  ? Li
   Li4        1.0     0.481497     0.069576     0.371848    Uiso  ? Li
