
#======================================================================
# CRYSTAL DATA
#----------------------------------------------------------------------
data_VESTA_phase_1

_chemical_name_common                  'S    Al   Li                          '
_cell_length_a                         6.246284
_cell_length_b                         6.623731
_cell_length_c                         8.052305
_cell_angle_alpha                      89.792633
_cell_angle_beta                       89.506775
_cell_angle_gamma                      89.083755
_cell_volume                           333.096723
_space_group_name_H-M_alt              'P 1'
_space_group_IT_number                 1

loop_
_space_group_symop_operation_xyz
   'x, y, z'

loop_
   _atom_site_label
   _atom_site_occupancy
   _atom_site_fract_x
   _atom_site_fract_y
   _atom_site_fract_z
   _atom_site_adp_type
   _atom_site_U_iso_or_equiv
   _atom_site_type_symbol
   S1         1.0     0.862847     0.066881     0.874837    Uiso  ? S
   S2         1.0     0.934908     0.593385     0.123058    Uiso  ? S
   S3         1.0     0.925723     0.099168     0.355136    Uiso  ? S
   S4         1.0     0.360593     0.947175     0.097073    Uiso  ? S
   S5         1.0     0.883848     0.566916     0.601282    Uiso  ? S
   S6         1.0     0.392134     0.407119     0.842264    Uiso  ? S
   S7         1.0     0.393769     0.908176     0.632304    Uiso  ? S
   S8         1.0     0.449585     0.446756     0.372370    Uiso  ? S
   Al1        1.0     0.984056     0.933021     0.114256    Uiso  ? Al
   Al2        1.0     0.498844     0.077933     0.861671    Uiso  ? Al
   Al3        1.0     0.812909     0.427889     0.350773    Uiso  ? Al
   Al4        1.0     0.520988     0.585439     0.622933    Uiso  ? Al
   Li1        1.0     0.998662     0.408772     0.858020    Uiso  ? Li
   Li2        1.0     0.999103     0.911562     0.616844    Uiso  ? Li
   Li3        1.0     0.346075     0.586931     0.106842    Uiso  ? Li
   Li4        1.0     0.346117     0.099745     0.370162    Uiso  ? Li
