
#======================================================================
# CRYSTAL DATA
#----------------------------------------------------------------------
data_VESTA_phase_1

_chemical_name_common                  'S    Al   Li                          '
_cell_length_a                         6.245662
_cell_length_b                         6.598313
_cell_length_c                         8.039664
_cell_angle_alpha                      90.098412
_cell_angle_beta                       88.612862
_cell_angle_gamma                      90.431183
_cell_volume                           331.214398
_space_group_name_H-M_alt              'P 1'
_space_group_IT_number                 1

loop_
_space_group_symop_operation_xyz
   'x, y, z'

loop_
   _atom_site_label
   _atom_site_occupancy
   _atom_site_fract_x
   _atom_site_fract_y
   _atom_site_fract_z
   _atom_site_adp_type
   _atom_site_U_iso_or_equiv
   _atom_site_type_symbol
   S1         1.0     0.856763     0.067722     0.874981    Uiso  ? S
   S2         1.0     0.918177     0.597893     0.117564    Uiso  ? S
   S3         1.0     0.880642     0.096456     0.350445    Uiso  ? S
   S4         1.0     0.350827     0.953475     0.103045    Uiso  ? S
   S5         1.0     0.876314     0.574518     0.598391    Uiso  ? S
   S6         1.0     0.383469     0.404665     0.845868    Uiso  ? S
   S7         1.0     0.384142     0.904353     0.636017    Uiso  ? S
   S8         1.0     0.435997     0.438164     0.377624    Uiso  ? S
   Al1        1.0     0.984930     0.937920     0.113190    Uiso  ? Al
   Al2        1.0     0.493523     0.077910     0.863515    Uiso  ? Al
   Al3        1.0     0.801817     0.434274     0.348459    Uiso  ? Al
   Al4        1.0     0.513240     0.583189     0.624839    Uiso  ? Al
   Li1        1.0     0.988259     0.413648     0.854505    Uiso  ? Li
   Li2        1.0     0.992750     0.926807     0.608914    Uiso  ? Li
   Li3        1.0     0.362985     0.587322     0.110456    Uiso  ? Li
   Li4        1.0     0.486327     0.068551     0.372010    Uiso  ? Li
