
#======================================================================
# CRYSTAL DATA
#----------------------------------------------------------------------
data_VESTA_phase_1

_chemical_name_common                  'Al   Mg   Hf   N '
_cell_length_a                         9.510621
_cell_length_b                         9.522621
_cell_length_c                         10.109291
_cell_angle_alpha                      89.988823
_cell_angle_beta                       90.029846
_cell_angle_gamma                      59.932610
_cell_volume                           792.357698
_space_group_name_H-M_alt              'P 1'
_space_group_IT_number                 1

loop_
_space_group_symop_operation_xyz
   'x, y, z'

loop_
   _atom_site_label
   _atom_site_occupancy
   _atom_site_fract_x
   _atom_site_fract_y
   _atom_site_fract_z
   _atom_site_adp_type
   _atom_site_U_iso_or_equiv
   _atom_site_type_symbol
   Al1        1.0     0.109389     0.096147     0.412164    Uiso  ? Al
   Al2        1.0     0.219315     0.208671     0.167836    Uiso  ? Al
   Al3        1.0     0.889168     0.206601     0.662252    Uiso  ? Al
   Al4        1.0     0.444009     0.094123     0.414397    Uiso  ? Al
   Al5        1.0     0.558063     0.207005     0.170476    Uiso  ? Al
   Al6        1.0     0.105275     0.103051     0.913283    Uiso  ? Al
   Al7        1.0     0.217653     0.207731     0.657215    Uiso  ? Al
   Al8        1.0     0.778796     0.095280     0.411024    Uiso  ? Al
   Al9        1.0     0.885396     0.207424     0.164746    Uiso  ? Al
   Al10       1.0     0.557148     0.208899     0.656564    Uiso  ? Al
   Al11       1.0     0.107722     0.429495     0.414009    Uiso  ? Al
   Al12       1.0     0.224399     0.533755     0.166993    Uiso  ? Al
   Al13       1.0     0.778504     0.424973     0.912347    Uiso  ? Al
   Al14       1.0     0.888109     0.538276     0.661755    Uiso  ? Al
   Al15       1.0     0.444472     0.429440     0.412476    Uiso  ? Al
   Al16       1.0     0.557758     0.535904     0.162179    Uiso  ? Al
   Al17       1.0     0.107404     0.427076     0.913819    Uiso  ? Al
   Al18       1.0     0.225091     0.533961     0.657721    Uiso  ? Al
   Al19       1.0     0.778296     0.428892     0.414145    Uiso  ? Al
   Al20       1.0     0.448188     0.427860     0.914445    Uiso  ? Al
   Al21       1.0     0.555434     0.538391     0.662011    Uiso  ? Al
   Al22       1.0     0.111198     0.760748     0.414457    Uiso  ? Al
   Al23       1.0     0.223161     0.874597     0.167354    Uiso  ? Al
   Al24       1.0     0.778607     0.754818     0.913807    Uiso  ? Al
   Al25       1.0     0.883330     0.874126     0.656762    Uiso  ? Al
   Al26       1.0     0.445599     0.758896     0.411627    Uiso  ? Al
   Al27       1.0     0.558383     0.869484     0.167923    Uiso  ? Al
   Al28       1.0     0.225197     0.875932     0.656644    Uiso  ? Al
   Al29       1.0     0.779577     0.756921     0.414052    Uiso  ? Al
   Al30       1.0     0.882149     0.875724     0.169603    Uiso  ? Al
   Al31       1.0     0.450442     0.755235     0.913781    Uiso  ? Al
   Al32       1.0     0.558601     0.865750     0.656321    Uiso  ? Al
   Mg1        1.0     0.778128     0.100611     0.916079    Uiso  ? Mg
   Mg2        1.0     0.887940     0.537957     0.160948    Uiso  ? Mg
   Hf1        1.0     0.446677     0.092457     0.909208    Uiso  ? Hf
   Hf2        1.0     0.109959     0.763121     0.906734    Uiso  ? Hf
   N1         1.0     0.221701     0.206182     0.357269    Uiso  ? N
   N2         1.0     0.111584     0.094771     0.104813    Uiso  ? N
   N3         1.0     0.896376     0.211513     0.847763    Uiso  ? N
   N4         1.0     0.778559     0.095369     0.601531    Uiso  ? N
   N5         1.0     0.553346     0.206956     0.359722    Uiso  ? N
   N6         1.0     0.444127     0.094543     0.116180    Uiso  ? N
   N7         1.0     0.208840     0.213128     0.846992    Uiso  ? N
   N8         1.0     0.110791     0.095047     0.600337    Uiso  ? N
   N9         1.0     0.889222     0.207237     0.355710    Uiso  ? N
   N10        1.0     0.777395     0.094094     0.120369    Uiso  ? N
   N11        1.0     0.549661     0.220590     0.843619    Uiso  ? N
   N12        1.0     0.444684     0.092932     0.608447    Uiso  ? N
   N13        1.0     0.221765     0.538892     0.356933    Uiso  ? N
   N14        1.0     0.127031     0.419575     0.099459    Uiso  ? N
   N15        1.0     0.888903     0.537595     0.854267    Uiso  ? N
   N16        1.0     0.775755     0.428299     0.604899    Uiso  ? N
   N17        1.0     0.555568     0.538658     0.352787    Uiso  ? N
   N18        1.0     0.443706     0.427842     0.105129    Uiso  ? N
   N19        1.0     0.229657     0.523800     0.848444    Uiso  ? N
   N20        1.0     0.111124     0.427970     0.603887    Uiso  ? N
   N21        1.0     0.888633     0.538166     0.365167    Uiso  ? N
   N22        1.0     0.769941     0.419670     0.098391    Uiso  ? N
   N23        1.0     0.553240     0.539617     0.852512    Uiso  ? N
   N24        1.0     0.444444     0.429813     0.600718    Uiso  ? N
   N25        1.0     0.222049     0.872553     0.356368    Uiso  ? N
   N26        1.0     0.110397     0.761479     0.113964    Uiso  ? N
   N27        1.0     0.876975     0.867681     0.843888    Uiso  ? N
   N28        1.0     0.777704     0.759650     0.602453    Uiso  ? N
   N29        1.0     0.555481     0.871647     0.357188    Uiso  ? N
   N30        1.0     0.443975     0.761682     0.104419    Uiso  ? N
   N31        1.0     0.232203     0.883510     0.848547    Uiso  ? N
   N32        1.0     0.112548     0.761359     0.609605    Uiso  ? N
   N33        1.0     0.889301     0.870309     0.359857    Uiso  ? N
   N34        1.0     0.769192     0.776944     0.099791    Uiso  ? N
   N35        1.0     0.564228     0.853027     0.845791    Uiso  ? N
   N36        1.0     0.445111     0.759011     0.600702    Uiso  ? N
