
#======================================================================
# CRYSTAL DATA
#----------------------------------------------------------------------
data_VESTA_phase_1

_chemical_name_common                  'Al   Mg   Hf   N                      '
_cell_length_a                         9.742333
_cell_length_b                         9.757963
_cell_length_c                         9.467520
_cell_angle_alpha                      89.997162
_cell_angle_beta                       89.992203
_cell_angle_gamma                      59.930595
_cell_volume                           778.905652
_space_group_name_H-M_alt              'P 1'
_space_group_IT_number                 1

loop_
_space_group_symop_operation_xyz
   'x, y, z'

loop_
   _atom_site_label
   _atom_site_occupancy
   _atom_site_fract_x
   _atom_site_fract_y
   _atom_site_fract_z
   _atom_site_adp_type
   _atom_site_U_iso_or_equiv
   _atom_site_type_symbol
   Al1        1.0     0.107593     0.097240     0.332321    Uiso  ? Al
   Al2        1.0     0.213887     0.210329     0.088036    Uiso  ? Al
   Al3        1.0     0.886620     0.207281     0.581171    Uiso  ? Al
   Al4        1.0     0.443991     0.093355     0.323487    Uiso  ? Al
   Al5        1.0     0.559428     0.211505     0.089917    Uiso  ? Al
   Al6        1.0     0.107375     0.102022     0.826870    Uiso  ? Al
   Al7        1.0     0.222031     0.206249     0.574115    Uiso  ? Al
   Al8        1.0     0.780727     0.095098     0.336291    Uiso  ? Al
   Al9        1.0     0.887530     0.206698     0.077262    Uiso  ? Al
   Al10       1.0     0.556634     0.205341     0.572373    Uiso  ? Al
   Al11       1.0     0.109635     0.428991     0.330292    Uiso  ? Al
   Al12       1.0     0.228338     0.528810     0.086869    Uiso  ? Al
   Al13       1.0     0.779160     0.427439     0.831743    Uiso  ? Al
   Al14       1.0     0.887806     0.536873     0.584356    Uiso  ? Al
   Al15       1.0     0.444414     0.430777     0.331794    Uiso  ? Al
   Al16       1.0     0.555292     0.536988     0.079000    Uiso  ? Al
   Al17       1.0     0.105515     0.428349     0.828086    Uiso  ? Al
   Al18       1.0     0.222555     0.537765     0.575523    Uiso  ? Al
   Al19       1.0     0.776936     0.426700     0.326644    Uiso  ? Al
   Al20       1.0     0.447037     0.428089     0.826427    Uiso  ? Al
   Al21       1.0     0.557172     0.537603     0.580351    Uiso  ? Al
   Al22       1.0     0.111265     0.761116     0.324467    Uiso  ? Al
   Al23       1.0     0.227142     0.878471     0.089016    Uiso  ? Al
   Al24       1.0     0.779340     0.752352     0.826578    Uiso  ? Al
   Al25       1.0     0.886513     0.873959     0.575043    Uiso  ? Al
   Al26       1.0     0.446204     0.757698     0.331686    Uiso  ? Al
   Al27       1.0     0.561508     0.861743     0.088135    Uiso  ? Al
   Al28       1.0     0.222987     0.873689     0.574460    Uiso  ? Al
   Al29       1.0     0.779283     0.758788     0.332028    Uiso  ? Al
   Al30       1.0     0.877725     0.877167     0.087237    Uiso  ? Al
   Al31       1.0     0.449182     0.756764     0.827592    Uiso  ? Al
   Al32       1.0     0.555915     0.871141     0.574602    Uiso  ? Al
   Mg1        1.0     0.777349     0.099027     0.830911    Uiso  ? Mg
   Mg2        1.0     0.888111     0.538494     0.083816    Uiso  ? Mg
   Hf1        1.0     0.445693     0.093120     0.850028    Uiso  ? Hf
   Hf2        1.0     0.111264     0.762727     0.850554    Uiso  ? Hf
   N1         1.0     0.224010     0.204108     0.374004    Uiso  ? N
   N2         1.0     0.108723     0.096509     0.132519    Uiso  ? N
   N3         1.0     0.896541     0.211021     0.877231    Uiso  ? N
   N4         1.0     0.776250     0.094232     0.610331    Uiso  ? N
   N5         1.0     0.552089     0.206100     0.369739    Uiso  ? N
   N6         1.0     0.444212     0.091621     0.115690    Uiso  ? N
   N7         1.0     0.204844     0.216032     0.883194    Uiso  ? N
   N8         1.0     0.113310     0.094113     0.624199    Uiso  ? N
   N9         1.0     0.889577     0.207784     0.380176    Uiso  ? N
   N10        1.0     0.780191     0.095158     0.131793    Uiso  ? N
   N11        1.0     0.550646     0.222856     0.888613    Uiso  ? N
   N12        1.0     0.444973     0.094125     0.624577    Uiso  ? N
   N13        1.0     0.221003     0.542102     0.375052    Uiso  ? N
   N14        1.0     0.123613     0.421909     0.133389    Uiso  ? N
   N15        1.0     0.889188     0.537645     0.862050    Uiso  ? N
   N16        1.0     0.775434     0.427245     0.628672    Uiso  ? N
   N17        1.0     0.555634     0.539007     0.380755    Uiso  ? N
   N18        1.0     0.444373     0.431393     0.132584    Uiso  ? N
   N19        1.0     0.230400     0.520925     0.880786    Uiso  ? N
   N20        1.0     0.114527     0.425870     0.624235    Uiso  ? N
   N21        1.0     0.888332     0.536945     0.379524    Uiso  ? N
   N22        1.0     0.768705     0.420764     0.127956    Uiso  ? N
   N23        1.0     0.551938     0.540263     0.875327    Uiso  ? N
   N24        1.0     0.443952     0.426800     0.623960    Uiso  ? N
   N25        1.0     0.221492     0.871856     0.372858    Uiso  ? N
   N26        1.0     0.113114     0.761621     0.115042    Uiso  ? N
   N27        1.0     0.874554     0.867498     0.883963    Uiso  ? N
   N28        1.0     0.776003     0.763157     0.622547    Uiso  ? N
   N29        1.0     0.552921     0.873601     0.374764    Uiso  ? N
   N30        1.0     0.446180     0.757527     0.131446    Uiso  ? N
   N31        1.0     0.233624     0.886009     0.883657    Uiso  ? N
   N32        1.0     0.112049     0.761805     0.625536    Uiso  ? N
   N33        1.0     0.893049     0.869264     0.373621    Uiso  ? N
   N34        1.0     0.771629     0.772029     0.136099    Uiso  ? N
   N35        1.0     0.566956     0.849507     0.883486    Uiso  ? N
   N36        1.0     0.443700     0.762063     0.625357    Uiso  ? N
