
#======================================================================
# CRYSTAL DATA
#----------------------------------------------------------------------
data_VESTA_phase_1

_chemical_name_common                  'Al   Mg   Hf   N                      '
_cell_length_a                         9.922528
_cell_length_b                         9.938478
_cell_length_c                         8.910286
_cell_angle_alpha                      89.992912
_cell_angle_beta                       90.010551
_cell_angle_gamma                      59.947769
_cell_volume                           760.563784
_space_group_name_H-M_alt              'P 1'
_space_group_IT_number                 1

loop_
_space_group_symop_operation_xyz
   'x, y, z'

loop_
   _atom_site_label
   _atom_site_occupancy
   _atom_site_fract_x
   _atom_site_fract_y
   _atom_site_fract_z
   _atom_site_adp_type
   _atom_site_U_iso_or_equiv
   _atom_site_type_symbol
   Al1        1.0     0.106699     0.097068     0.367564    Uiso  ? Al
   Al2        1.0     0.222441     0.206295     0.130492    Uiso  ? Al
   Al3        1.0     0.888653     0.207217     0.622719    Uiso  ? Al
   Al4        1.0     0.445053     0.094280     0.371669    Uiso  ? Al
   Al5        1.0     0.557078     0.206725     0.125005    Uiso  ? Al
   Al6        1.0     0.108122     0.101839     0.873167    Uiso  ? Al
   Al7        1.0     0.213735     0.210560     0.606423    Uiso  ? Al
   Al8        1.0     0.779753     0.096563     0.361826    Uiso  ? Al
   Al9        1.0     0.885612     0.207060     0.117378    Uiso  ? Al
   Al10       1.0     0.559278     0.210390     0.610961    Uiso  ? Al
   Al11       1.0     0.106859     0.430231     0.365599    Uiso  ? Al
   Al12       1.0     0.225282     0.535046     0.128712    Uiso  ? Al
   Al13       1.0     0.777768     0.427484     0.872040    Uiso  ? Al
   Al14       1.0     0.887803     0.538588     0.610954    Uiso  ? Al
   Al15       1.0     0.445954     0.429268     0.368771    Uiso  ? Al
   Al16       1.0     0.556012     0.537072     0.121569    Uiso  ? Al
   Al17       1.0     0.107199     0.427795     0.874285    Uiso  ? Al
   Al18       1.0     0.225807     0.531464     0.607054    Uiso  ? Al
   Al19       1.0     0.777957     0.427053     0.367374    Uiso  ? Al
   Al20       1.0     0.445297     0.429859     0.872649    Uiso  ? Al
   Al21       1.0     0.556039     0.538082     0.619457    Uiso  ? Al
   Al22       1.0     0.111495     0.762080     0.370086    Uiso  ? Al
   Al23       1.0     0.224247     0.874806     0.126404    Uiso  ? Al
   Al24       1.0     0.778695     0.753520     0.877144    Uiso  ? Al
   Al25       1.0     0.880308     0.874884     0.607396    Uiso  ? Al
   Al26       1.0     0.445500     0.757540     0.369054    Uiso  ? Al
   Al27       1.0     0.555714     0.871202     0.129962    Uiso  ? Al
   Al28       1.0     0.226238     0.877855     0.608762    Uiso  ? Al
   Al29       1.0     0.780733     0.755984     0.363025    Uiso  ? Al
   Al30       1.0     0.883843     0.876223     0.127376    Uiso  ? Al
   Al31       1.0     0.449281     0.756905     0.871546    Uiso  ? Al
   Al32       1.0     0.561723     0.861857     0.606757    Uiso  ? Al
   Mg1        1.0     0.778928     0.096879     0.864634    Uiso  ? Mg
   Mg2        1.0     0.888213     0.536004     0.115113    Uiso  ? Mg
   Hf1        1.0     0.444250     0.092470     0.853915    Uiso  ? Hf
   Hf2        1.0     0.111473     0.761478     0.853648    Uiso  ? Hf
   N1         1.0     0.223271     0.204699     0.347497    Uiso  ? N
   N2         1.0     0.113524     0.094896     0.094211    Uiso  ? N
   N3         1.0     0.896516     0.211083     0.839916    Uiso  ? N
   N4         1.0     0.778985     0.096037     0.584562    Uiso  ? N
   N5         1.0     0.552564     0.207012     0.345105    Uiso  ? N
   N6         1.0     0.444225     0.093039     0.097870    Uiso  ? N
   N7         1.0     0.206136     0.215349     0.831145    Uiso  ? N
   N8         1.0     0.109036     0.095844     0.583505    Uiso  ? N
   N9         1.0     0.889468     0.207508     0.337615    Uiso  ? N
   N10        1.0     0.777156     0.093848     0.107535    Uiso  ? N
   N11        1.0     0.549823     0.220823     0.834254    Uiso  ? N
   N12        1.0     0.445381     0.092561     0.594455    Uiso  ? N
   N13        1.0     0.221954     0.540838     0.346427    Uiso  ? N
   N14        1.0     0.126927     0.419658     0.093638    Uiso  ? N
   N15        1.0     0.889128     0.537883     0.838977    Uiso  ? N
   N16        1.0     0.775255     0.427349     0.589365    Uiso  ? N
   N17        1.0     0.555053     0.539162     0.338641    Uiso  ? N
   N18        1.0     0.443155     0.428670     0.093290    Uiso  ? N
   N19        1.0     0.228931     0.522970     0.833046    Uiso  ? N
   N20        1.0     0.110623     0.428659     0.584291    Uiso  ? N
   N21        1.0     0.888179     0.536429     0.351257    Uiso  ? N
   N22        1.0     0.768488     0.421651     0.088274    Uiso  ? N
   N23        1.0     0.551891     0.540594     0.838678    Uiso  ? N
   N24        1.0     0.445408     0.429631     0.584626    Uiso  ? N
   N25        1.0     0.222208     0.872704     0.343933    Uiso  ? N
   N26        1.0     0.112291     0.761385     0.097838    Uiso  ? N
   N27        1.0     0.877438     0.865360     0.832083    Uiso  ? N
   N28        1.0     0.778173     0.759220     0.580964    Uiso  ? N
   N29        1.0     0.553179     0.872754     0.346639    Uiso  ? N
   N30        1.0     0.444526     0.761723     0.092512    Uiso  ? N
   N31        1.0     0.232056     0.884685     0.835270    Uiso  ? N
   N32        1.0     0.113629     0.761995     0.594577    Uiso  ? N
   N33        1.0     0.891685     0.870270     0.347322    Uiso  ? N
   N34        1.0     0.769900     0.774731     0.096660    Uiso  ? N
   N35        1.0     0.566339     0.851372     0.831684    Uiso  ? N
   N36        1.0     0.445335     0.758205     0.585143    Uiso  ? N
