
#======================================================================
# CRYSTAL DATA
#----------------------------------------------------------------------
data_VESTA_phase_1

_chemical_name_common                  'Al   Mg   Hf   N                      '
_cell_length_a                         9.879037
_cell_length_b                         9.895041
_cell_length_c                         9.043918
_cell_angle_alpha                      89.992760
_cell_angle_beta                       90.012634
_cell_angle_gamma                      59.947216
_cell_volume                           765.223234
_space_group_name_H-M_alt              'P 1'
_space_group_IT_number                 1

loop_
_space_group_symop_operation_xyz
   'x, y, z'

loop_
   _atom_site_label
   _atom_site_occupancy
   _atom_site_fract_x
   _atom_site_fract_y
   _atom_site_fract_z
   _atom_site_adp_type
   _atom_site_U_iso_or_equiv
   _atom_site_type_symbol
   Al1        1.0     0.106959     0.096926     0.369840    Uiso  ? Al
   Al2        1.0     0.222886     0.206222     0.132194    Uiso  ? Al
   Al3        1.0     0.888820     0.207085     0.624986    Uiso  ? Al
   Al4        1.0     0.444979     0.094222     0.375758    Uiso  ? Al
   Al5        1.0     0.556826     0.206377     0.127776    Uiso  ? Al
   Al6        1.0     0.107889     0.102110     0.875922    Uiso  ? Al
   Al7        1.0     0.213305     0.210672     0.609777    Uiso  ? Al
   Al8        1.0     0.779660     0.096488     0.364162    Uiso  ? Al
   Al9        1.0     0.885473     0.207210     0.120635    Uiso  ? Al
   Al10       1.0     0.559413     0.210747     0.614003    Uiso  ? Al
   Al11       1.0     0.106806     0.430287     0.368405    Uiso  ? Al
   Al12       1.0     0.224907     0.535513     0.130503    Uiso  ? Al
   Al13       1.0     0.777749     0.427130     0.874174    Uiso  ? Al
   Al14       1.0     0.887838     0.538633     0.614378    Uiso  ? Al
   Al15       1.0     0.445807     0.429369     0.371024    Uiso  ? Al
   Al16       1.0     0.556261     0.536886     0.123812    Uiso  ? Al
   Al17       1.0     0.107380     0.427601     0.876905    Uiso  ? Al
   Al18       1.0     0.226143     0.531036     0.610533    Uiso  ? Al
   Al19       1.0     0.777987     0.427307     0.370765    Uiso  ? Al
   Al20       1.0     0.445481     0.429673     0.875614    Uiso  ? Al
   Al21       1.0     0.555834     0.538192     0.622208    Uiso  ? Al
   Al22       1.0     0.111628     0.761958     0.374310    Uiso  ? Al
   Al23       1.0     0.223864     0.874482     0.128396    Uiso  ? Al
   Al24       1.0     0.778577     0.753767     0.879498    Uiso  ? Al
   Al25       1.0     0.879961     0.875040     0.610465    Uiso  ? Al
   Al26       1.0     0.445472     0.757627     0.371185    Uiso  ? Al
   Al27       1.0     0.555627     0.871747     0.131661    Uiso  ? Al
   Al28       1.0     0.226567     0.878112     0.612212    Uiso  ? Al
   Al29       1.0     0.780687     0.755875     0.365868    Uiso  ? Al
   Al30       1.0     0.884346     0.875892     0.129867    Uiso  ? Al
   Al31       1.0     0.449435     0.756822     0.874518    Uiso  ? Al
   Al32       1.0     0.561881     0.861330     0.610134    Uiso  ? Al
   Mg1        1.0     0.778890     0.097077     0.868066    Uiso  ? Mg
   Mg2        1.0     0.888177     0.535987     0.117232    Uiso  ? Mg
   Hf1        1.0     0.444395     0.092476     0.854871    Uiso  ? Hf
   Hf2        1.0     0.111313     0.761656     0.854438    Uiso  ? Hf
   N1         1.0     0.223590     0.204623     0.344916    Uiso  ? N
   N2         1.0     0.113474     0.094891     0.091611    Uiso  ? N
   N3         1.0     0.896691     0.211064     0.836577    Uiso  ? N
   N4         1.0     0.779049     0.096114     0.582195    Uiso  ? N
   N5         1.0     0.552315     0.206839     0.342858    Uiso  ? N
   N6         1.0     0.444232     0.093153     0.093799    Uiso  ? N
   N7         1.0     0.205584     0.215620     0.828251    Uiso  ? N
   N8         1.0     0.108970     0.095849     0.580850    Uiso  ? N
   N9         1.0     0.889430     0.207699     0.335379    Uiso  ? N
   N10        1.0     0.777133     0.093778     0.105387    Uiso  ? N
   N11        1.0     0.549961     0.221310     0.830434    Uiso  ? N
   N12        1.0     0.445335     0.092455     0.594166    Uiso  ? N
   N13        1.0     0.221741     0.541098     0.343804    Uiso  ? N
   N14        1.0     0.127337     0.419457     0.090421    Uiso  ? N
   N15        1.0     0.889136     0.537908     0.837076    Uiso  ? N
   N16        1.0     0.775229     0.427453     0.587063    Uiso  ? N
   N17        1.0     0.555215     0.539067     0.335976    Uiso  ? N
   N18        1.0     0.443123     0.428524     0.090768    Uiso  ? N
   N19        1.0     0.229265     0.522399     0.830180    Uiso  ? N
   N20        1.0     0.110474     0.428747     0.581939    Uiso  ? N
   N21        1.0     0.888178     0.536459     0.348395    Uiso  ? N
   N22        1.0     0.768436     0.421337     0.084983    Uiso  ? N
   N23        1.0     0.551737     0.540644     0.836207    Uiso  ? N
   N24        1.0     0.445455     0.429795     0.581911    Uiso  ? N
   N25        1.0     0.222008     0.872481     0.341311    Uiso  ? N
   N26        1.0     0.112086     0.761415     0.093674    Uiso  ? N
   N27        1.0     0.876766     0.865599     0.828447    Uiso  ? N
   N28        1.0     0.778222     0.759012     0.578712    Uiso  ? N
   N29        1.0     0.553139     0.873104     0.344023    Uiso  ? N
   N30        1.0     0.444442     0.761844     0.089986    Uiso  ? N
   N31        1.0     0.232440     0.885079     0.832224    Uiso  ? N
   N32        1.0     0.113693     0.761966     0.594247    Uiso  ? N
   N33        1.0     0.891966     0.870002     0.345059    Uiso  ? N
   N34        1.0     0.769762     0.775206     0.093329    Uiso  ? N
   N35        1.0     0.566627     0.850665     0.828687    Uiso  ? N
   N36        1.0     0.445414     0.758031     0.582415    Uiso  ? N
