
#======================================================================
# CRYSTAL DATA
#----------------------------------------------------------------------
data_VESTA_phase_1

_chemical_name_common                  'Al   Mg   Hf   N                      '
_cell_length_a                         9.638230
_cell_length_b                         9.653781
_cell_length_c                         9.766671
_cell_angle_alpha                      89.997314
_cell_angle_beta                       89.989441
_cell_angle_gamma                      59.932095
_cell_volume                           786.455860
_space_group_name_H-M_alt              'P 1'
_space_group_IT_number                 1

loop_
_space_group_symop_operation_xyz
   'x, y, z'

loop_
   _atom_site_label
   _atom_site_occupancy
   _atom_site_fract_x
   _atom_site_fract_y
   _atom_site_fract_z
   _atom_site_adp_type
   _atom_site_U_iso_or_equiv
   _atom_site_type_symbol
   Al1        1.0     0.108744     0.096461     0.328503    Uiso  ? Al
   Al2        1.0     0.214309     0.210619     0.083633    Uiso  ? Al
   Al3        1.0     0.886919     0.206458     0.576056    Uiso  ? Al
   Al4        1.0     0.443933     0.093435     0.320324    Uiso  ? Al
   Al5        1.0     0.558952     0.211079     0.085392    Uiso  ? Al
   Al6        1.0     0.106052     0.103028     0.825145    Uiso  ? Al
   Al7        1.0     0.221759     0.205968     0.572147    Uiso  ? Al
   Al8        1.0     0.780126     0.094824     0.330667    Uiso  ? Al
   Al9        1.0     0.887226     0.207510     0.076235    Uiso  ? Al
   Al10       1.0     0.557041     0.205456     0.569971    Uiso  ? Al
   Al11       1.0     0.110512     0.428446     0.327762    Uiso  ? Al
   Al12       1.0     0.227713     0.529040     0.082649    Uiso  ? Al
   Al13       1.0     0.779548     0.427004     0.827552    Uiso  ? Al
   Al14       1.0     0.887827     0.537212     0.579061    Uiso  ? Al
   Al15       1.0     0.444145     0.430373     0.327994    Uiso  ? Al
   Al16       1.0     0.555980     0.536757     0.077172    Uiso  ? Al
   Al17       1.0     0.104830     0.428532     0.824049    Uiso  ? Al
   Al18       1.0     0.222789     0.537860     0.573210    Uiso  ? Al
   Al19       1.0     0.776768     0.426964     0.324738    Uiso  ? Al
   Al20       1.0     0.447740     0.427904     0.824499    Uiso  ? Al
   Al21       1.0     0.556746     0.537658     0.576927    Uiso  ? Al
   Al22       1.0     0.111410     0.761027     0.321047    Uiso  ? Al
   Al23       1.0     0.227043     0.878176     0.084073    Uiso  ? Al
   Al24       1.0     0.779619     0.751932     0.823406    Uiso  ? Al
   Al25       1.0     0.886428     0.874317     0.571814    Uiso  ? Al
   Al26       1.0     0.445701     0.758482     0.328479    Uiso  ? Al
   Al27       1.0     0.561665     0.862124     0.084086    Uiso  ? Al
   Al28       1.0     0.222675     0.873736     0.572791    Uiso  ? Al
   Al29       1.0     0.778716     0.759581     0.328784    Uiso  ? Al
   Al30       1.0     0.878054     0.876578     0.083385    Uiso  ? Al
   Al31       1.0     0.450003     0.755901     0.825204    Uiso  ? Al
   Al32       1.0     0.555885     0.871103     0.572437    Uiso  ? Al
   Mg1        1.0     0.777637     0.099838     0.826498    Uiso  ? Mg
   Mg2        1.0     0.888276     0.538376     0.079591    Uiso  ? Mg
   Hf1        1.0     0.446154     0.092901     0.844639    Uiso  ? Hf
   Hf2        1.0     0.110625     0.763070     0.845549    Uiso  ? Hf
   N1         1.0     0.224117     0.203822     0.378259    Uiso  ? N
   N2         1.0     0.109537     0.096114     0.134824    Uiso  ? N
   N3         1.0     0.896008     0.211891     0.882900    Uiso  ? N
   N4         1.0     0.776603     0.094237     0.614725    Uiso  ? N
   N5         1.0     0.552352     0.205984     0.373896    Uiso  ? N
   N6         1.0     0.444271     0.091881     0.118556    Uiso  ? N
   N7         1.0     0.204761     0.216507     0.886061    Uiso  ? N
   N8         1.0     0.112442     0.094438     0.628586    Uiso  ? N
   N9         1.0     0.889891     0.206845     0.381651    Uiso  ? N
   N10        1.0     0.779802     0.094995     0.133969    Uiso  ? N
   N11        1.0     0.550982     0.222794     0.891865    Uiso  ? N
   N12        1.0     0.444974     0.094320     0.627765    Uiso  ? N
   N13        1.0     0.221224     0.542011     0.378924    Uiso  ? N
   N14        1.0     0.124038     0.421617     0.137353    Uiso  ? N
   N15        1.0     0.889036     0.537459     0.866030    Uiso  ? N
   N16        1.0     0.775998     0.426772     0.630440    Uiso  ? N
   N17        1.0     0.554991     0.539253     0.383346    Uiso  ? N
   N18        1.0     0.444144     0.431104     0.134814    Uiso  ? N
   N19        1.0     0.230276     0.520507     0.883747    Uiso  ? N
   N20        1.0     0.114004     0.426162     0.627159    Uiso  ? N
   N21        1.0     0.888462     0.537402     0.381977    Uiso  ? N
   N22        1.0     0.768756     0.421059     0.133187    Uiso  ? N
   N23        1.0     0.552919     0.539692     0.879265    Uiso  ? N
   N24        1.0     0.444052     0.426920     0.628243    Uiso  ? N
   N25        1.0     0.221395     0.871816     0.377293    Uiso  ? N
   N26        1.0     0.112928     0.761611     0.117592    Uiso  ? N
   N27        1.0     0.873508     0.867964     0.887883    Uiso  ? N
   N28        1.0     0.776323     0.762899     0.626134    Uiso  ? N
   N29        1.0     0.552946     0.873749     0.378751    Uiso  ? N
   N30        1.0     0.445891     0.758066     0.134138    Uiso  ? N
   N31        1.0     0.233866     0.886039     0.886189    Uiso  ? N
   N32        1.0     0.111427     0.761790     0.628905    Uiso  ? N
   N33        1.0     0.892790     0.869607     0.376923    Uiso  ? N
   N34        1.0     0.771439     0.772302     0.139433    Uiso  ? N
   N35        1.0     0.567342     0.849085     0.886772    Uiso  ? N
   N36        1.0     0.443845     0.761780     0.629278    Uiso  ? N
