
#======================================================================
# CRYSTAL DATA
#----------------------------------------------------------------------
data_VESTA_phase_1

_chemical_name_common                  'Al   Mg   Hf   N                      '
_cell_length_a                         9.531178
_cell_length_b                         9.544717
_cell_length_c                         10.061129
_cell_angle_alpha                      89.987640
_cell_angle_beta                       89.974777
_cell_angle_gamma                      59.939571
_cell_volume                           792.176890
_space_group_name_H-M_alt              'P 1'
_space_group_IT_number                 1

loop_
_space_group_symop_operation_xyz
   'x, y, z'

loop_
   _atom_site_label
   _atom_site_occupancy
   _atom_site_fract_x
   _atom_site_fract_y
   _atom_site_fract_z
   _atom_site_adp_type
   _atom_site_U_iso_or_equiv
   _atom_site_type_symbol
   Al1        1.0     0.109513     0.095896     0.324344    Uiso  ? Al
   Al2        1.0     0.216600     0.209903     0.080502    Uiso  ? Al
   Al3        1.0     0.887288     0.205697     0.571645    Uiso  ? Al
   Al4        1.0     0.443924     0.093688     0.319646    Uiso  ? Al
   Al5        1.0     0.557653     0.209762     0.081591    Uiso  ? Al
   Al6        1.0     0.105122     0.103561     0.824080    Uiso  ? Al
   Al7        1.0     0.220194     0.206398     0.569032    Uiso  ? Al
   Al8        1.0     0.779484     0.094838     0.324850    Uiso  ? Al
   Al9        1.0     0.887094     0.208232     0.075020    Uiso  ? Al
   Al10       1.0     0.557851     0.206273     0.566550    Uiso  ? Al
   Al11       1.0     0.110853     0.428058     0.324280    Uiso  ? Al
   Al12       1.0     0.226125     0.531178     0.079679    Uiso  ? Al
   Al13       1.0     0.779839     0.426594     0.823655    Uiso  ? Al
   Al14       1.0     0.887906     0.537671     0.574800    Uiso  ? Al
   Al15       1.0     0.444213     0.429874     0.323746    Uiso  ? Al
   Al16       1.0     0.556761     0.536568     0.075609    Uiso  ? Al
   Al17       1.0     0.104838     0.428490     0.821129    Uiso  ? Al
   Al18       1.0     0.223597     0.536599     0.569717    Uiso  ? Al
   Al19       1.0     0.776811     0.427216     0.322917    Uiso  ? Al
   Al20       1.0     0.448261     0.427720     0.823297    Uiso  ? Al
   Al21       1.0     0.556357     0.537730     0.573806    Uiso  ? Al
   Al22       1.0     0.111387     0.760922     0.320091    Uiso  ? Al
   Al23       1.0     0.225916     0.876872     0.080337    Uiso  ? Al
   Al24       1.0     0.779729     0.752268     0.821151    Uiso  ? Al
   Al25       1.0     0.885104     0.875063     0.567477    Uiso  ? Al
   Al26       1.0     0.445415     0.758980     0.324812    Uiso  ? Al
   Al27       1.0     0.560783     0.864556     0.081261    Uiso  ? Al
   Al28       1.0     0.222948     0.874222     0.569970    Uiso  ? Al
   Al29       1.0     0.778298     0.759963     0.324620    Uiso  ? Al
   Al30       1.0     0.880266     0.875150     0.080355    Uiso  ? Al
   Al31       1.0     0.450628     0.755214     0.823595    Uiso  ? Al
   Al32       1.0     0.556451     0.869913     0.569099    Uiso  ? Al
   Mg1        1.0     0.777828     0.100626     0.822984    Uiso  ? Mg
   Mg2        1.0     0.888374     0.538204     0.074982    Uiso  ? Mg
   Hf1        1.0     0.446543     0.092711     0.834153    Uiso  ? Hf
   Hf2        1.0     0.110025     0.763317     0.835247    Uiso  ? Hf
   N1         1.0     0.223106     0.204181     0.380645    Uiso  ? N
   N2         1.0     0.110408     0.095564     0.135571    Uiso  ? N
   N3         1.0     0.895421     0.212865     0.886768    Uiso  ? N
   N4         1.0     0.776907     0.094216     0.617628    Uiso  ? N
   N5         1.0     0.553196     0.206373     0.376348    Uiso  ? N
   N6         1.0     0.444318     0.092383     0.124420    Uiso  ? N
   N7         1.0     0.206654     0.215715     0.887847    Uiso  ? N
   N8         1.0     0.111742     0.094588     0.631863    Uiso  ? N
   N9         1.0     0.890149     0.205864     0.382250    Uiso  ? N
   N10        1.0     0.779333     0.094878     0.134335    Uiso  ? N
   N11        1.0     0.550297     0.221566     0.893651    Uiso  ? N
   N12        1.0     0.444825     0.094627     0.625047    Uiso  ? N
   N13        1.0     0.221954     0.540710     0.380934    Uiso  ? N
   N14        1.0     0.124115     0.421538     0.139083    Uiso  ? N
   N15        1.0     0.888919     0.537373     0.867739    Uiso  ? N
   N16        1.0     0.776514     0.426378     0.631107    Uiso  ? N
   N17        1.0     0.554394     0.539453     0.384841    Uiso  ? N
   N18        1.0     0.443945     0.430678     0.135397    Uiso  ? N
   N19        1.0     0.229522     0.521926     0.885717    Uiso  ? N
   N20        1.0     0.113623     0.426325     0.629331    Uiso  ? N
   N21        1.0     0.888653     0.537964     0.383538    Uiso  ? N
   N22        1.0     0.769137     0.421459     0.136994    Uiso  ? N
   N23        1.0     0.554271     0.538930     0.881921    Uiso  ? N
   N24        1.0     0.444115     0.427039     0.631482    Uiso  ? N
   N25        1.0     0.221799     0.872190     0.379949    Uiso  ? N
   N26        1.0     0.112562     0.761531     0.123158    Uiso  ? N
   N27        1.0     0.874659     0.867675     0.890411    Uiso  ? N
   N28        1.0     0.776387     0.762904     0.628784    Uiso  ? N
   N29        1.0     0.553575     0.872848     0.380876    Uiso  ? N
   N30        1.0     0.445441     0.758790     0.135189    Uiso  ? N
   N31        1.0     0.233083     0.884777     0.887713    Uiso  ? N
   N32        1.0     0.110730     0.761602     0.626361    Uiso  ? N
   N33        1.0     0.891311     0.870513     0.378409    Uiso  ? N
   N34        1.0     0.771450     0.772379     0.140580    Uiso  ? N
   N35        1.0     0.566536     0.850889     0.888935    Uiso  ? N
   N36        1.0     0.443934     0.761598     0.632243    Uiso  ? N
