
#======================================================================
# CRYSTAL DATA
#----------------------------------------------------------------------
data_VESTA_phase_1

_chemical_name_common                  'Al   Mg   Hf   N                      '
_cell_length_a                         9.516400
_cell_length_b                         9.529122
_cell_length_c                         10.100969
_cell_angle_alpha                      89.983406
_cell_angle_beta                       89.969177
_cell_angle_gamma                      59.944576
_cell_volume                           792.823307
_space_group_name_H-M_alt              'P 1'
_space_group_IT_number                 1

loop_
_space_group_symop_operation_xyz
   'x, y, z'

loop_
   _atom_site_label
   _atom_site_occupancy
   _atom_site_fract_x
   _atom_site_fract_y
   _atom_site_fract_z
   _atom_site_adp_type
   _atom_site_U_iso_or_equiv
   _atom_site_type_symbol
   Al1        1.0     0.109560     0.095841     0.319969    Uiso  ? Al
   Al2        1.0     0.217163     0.209659     0.076495    Uiso  ? Al
   Al3        1.0     0.887361     0.205565     0.567424    Uiso  ? Al
   Al4        1.0     0.443912     0.093752     0.316179    Uiso  ? Al
   Al5        1.0     0.557358     0.209463     0.077445    Uiso  ? Al
   Al6        1.0     0.105079     0.103518     0.820356    Uiso  ? Al
   Al7        1.0     0.219775     0.206554     0.564706    Uiso  ? Al
   Al8        1.0     0.779404     0.094886     0.320241    Uiso  ? Al
   Al9        1.0     0.887095     0.208354     0.071124    Uiso  ? Al
   Al10       1.0     0.558034     0.206488     0.562183    Uiso  ? Al
   Al11       1.0     0.110810     0.428031     0.319931    Uiso  ? Al
   Al12       1.0     0.225788     0.531728     0.075698    Uiso  ? Al
   Al13       1.0     0.779905     0.426552     0.819401    Uiso  ? Al
   Al14       1.0     0.887938     0.537783     0.570652    Uiso  ? Al
   Al15       1.0     0.444277     0.429811     0.319348    Uiso  ? Al
   Al16       1.0     0.556931     0.536531     0.071721    Uiso  ? Al
   Al17       1.0     0.104959     0.428447     0.817180    Uiso  ? Al
   Al18       1.0     0.223815     0.536202     0.565322    Uiso  ? Al
   Al19       1.0     0.776851     0.427253     0.319034    Uiso  ? Al
   Al20       1.0     0.448326     0.427684     0.819564    Uiso  ? Al
   Al21       1.0     0.556285     0.537762     0.569738    Uiso  ? Al
   Al22       1.0     0.111371     0.760887     0.316586    Uiso  ? Al
   Al23       1.0     0.225618     0.876520     0.076259    Uiso  ? Al
   Al24       1.0     0.779730     0.752472     0.817265    Uiso  ? Al
   Al25       1.0     0.884734     0.875249     0.562959    Uiso  ? Al
   Al26       1.0     0.445418     0.758998     0.320492    Uiso  ? Al
   Al27       1.0     0.560508     0.865197     0.077282    Uiso  ? Al
   Al28       1.0     0.223083     0.874341     0.565667    Uiso  ? Al
   Al29       1.0     0.778251     0.759957     0.320175    Uiso  ? Al
   Al30       1.0     0.880863     0.874819     0.076312    Uiso  ? Al
   Al31       1.0     0.450682     0.755173     0.819815    Uiso  ? Al
   Al32       1.0     0.556598     0.869600     0.564742    Uiso  ? Al
   Mg1        1.0     0.777849     0.100707     0.818984    Uiso  ? Mg
   Mg2        1.0     0.888358     0.538174     0.070561    Uiso  ? Mg
   Hf1        1.0     0.446553     0.092735     0.828258    Uiso  ? Hf
   Hf2        1.0     0.109995     0.763288     0.829329    Uiso  ? Hf
   N1         1.0     0.222767     0.204336     0.377067    Uiso  ? N
   N2         1.0     0.110532     0.095447     0.131800    Uiso  ? N
   N3         1.0     0.895353     0.213051     0.883473    Uiso  ? N
   N4         1.0     0.776921     0.094204     0.614275    Uiso  ? N
   N5         1.0     0.553414     0.206514     0.372790    Uiso  ? N
   N6         1.0     0.444303     0.092496     0.121997    Uiso  ? N
   N7         1.0     0.207239     0.215385     0.884312    Uiso  ? N
   N8         1.0     0.111686     0.094550     0.628569    Uiso  ? N
   N9         1.0     0.890198     0.205700     0.378590    Uiso  ? N
   N10        1.0     0.779270     0.094863     0.130470    Uiso  ? N
   N11        1.0     0.550013     0.221206     0.890086    Uiso  ? N
   N12        1.0     0.444762     0.094704     0.620115    Uiso  ? N
   N13        1.0     0.222154     0.540315     0.377300    Uiso  ? N
   N14        1.0     0.124062     0.421560     0.135366    Uiso  ? N
   N15        1.0     0.888912     0.537413     0.864073    Uiso  ? N
   N16        1.0     0.776584     0.426334     0.627407    Uiso  ? N
   N17        1.0     0.554305     0.539490     0.381286    Uiso  ? N
   N18        1.0     0.443930     0.430615     0.131592    Uiso  ? N
   N19        1.0     0.229339     0.522418     0.882235    Uiso  ? N
   N20        1.0     0.113614     0.426314     0.625924    Uiso  ? N
   N21        1.0     0.888698     0.538078     0.380023    Uiso  ? N
   N22        1.0     0.769237     0.421518     0.133781    Uiso  ? N
   N23        1.0     0.554564     0.538791     0.878508    Uiso  ? N
   N24        1.0     0.444116     0.427043     0.628191    Uiso  ? N
   N25        1.0     0.221950     0.872303     0.376416    Uiso  ? N
   N26        1.0     0.112504     0.761488     0.120741    Uiso  ? N
   N27        1.0     0.875292     0.867444     0.886964    Uiso  ? N
   N28        1.0     0.776334     0.762996     0.625416    Uiso  ? N
   N29        1.0     0.553756     0.872555     0.377263    Uiso  ? N
   N30        1.0     0.445368     0.758906     0.131447    Uiso  ? N
   N31        1.0     0.232806     0.884349     0.884178    Uiso  ? N
   N32        1.0     0.110628     0.761536     0.621429    Uiso  ? N
   N33        1.0     0.890914     0.870731     0.374697    Uiso  ? N
   N34        1.0     0.771464     0.772374     0.136779    Uiso  ? N
   N35        1.0     0.566224     0.851567     0.885430    Uiso  ? N
   N36        1.0     0.443922     0.761612     0.628930    Uiso  ? N
