
#======================================================================
# CRYSTAL DATA
#----------------------------------------------------------------------
data_VESTA_phase_1

_chemical_name_common                  'Al   Mg   Hf   N                      '
_cell_length_a                         9.510710
_cell_length_b                         9.522812
_cell_length_c                         10.109035
_cell_angle_alpha                      89.988922
_cell_angle_beta                       90.030991
_cell_angle_gamma                      59.932499
_cell_volume                           792.359952
_space_group_name_H-M_alt              'P 1'
_space_group_IT_number                 1

loop_
_space_group_symop_operation_xyz
   'x, y, z'

loop_
   _atom_site_label
   _atom_site_occupancy
   _atom_site_fract_x
   _atom_site_fract_y
   _atom_site_fract_z
   _atom_site_adp_type
   _atom_site_U_iso_or_equiv
   _atom_site_type_symbol
   Al1        1.0     0.109414     0.096145     0.395416    Uiso  ? Al
   Al2        1.0     0.219318     0.208673     0.151084    Uiso  ? Al
   Al3        1.0     0.889226     0.206593     0.645510    Uiso  ? Al
   Al4        1.0     0.444032     0.094130     0.397662    Uiso  ? Al
   Al5        1.0     0.558051     0.207017     0.153721    Uiso  ? Al
   Al6        1.0     0.105326     0.103035     0.896551    Uiso  ? Al
   Al7        1.0     0.217696     0.207725     0.640474    Uiso  ? Al
   Al8        1.0     0.778818     0.095283     0.394264    Uiso  ? Al
   Al9        1.0     0.885399     0.207419     0.148000    Uiso  ? Al
   Al10       1.0     0.557209     0.208897     0.639815    Uiso  ? Al
   Al11       1.0     0.107742     0.429494     0.397257    Uiso  ? Al
   Al12       1.0     0.224375     0.533771     0.150246    Uiso  ? Al
   Al13       1.0     0.778544     0.424969     0.895600    Uiso  ? Al
   Al14       1.0     0.888153     0.538276     0.644997    Uiso  ? Al
   Al15       1.0     0.444485     0.429450     0.395728    Uiso  ? Al
   Al16       1.0     0.557752     0.535909     0.145438    Uiso  ? Al
   Al17       1.0     0.107436     0.427065     0.897072    Uiso  ? Al
   Al18       1.0     0.225143     0.533943     0.640979    Uiso  ? Al
   Al19       1.0     0.778311     0.428888     0.397403    Uiso  ? Al
   Al20       1.0     0.448224     0.427847     0.897709    Uiso  ? Al
   Al21       1.0     0.555474     0.538386     0.645286    Uiso  ? Al
   Al22       1.0     0.111211     0.760754     0.397723    Uiso  ? Al
   Al23       1.0     0.223147     0.874597     0.150610    Uiso  ? Al
   Al24       1.0     0.778642     0.754809     0.897056    Uiso  ? Al
   Al25       1.0     0.883373     0.874129     0.640008    Uiso  ? Al
   Al26       1.0     0.445620     0.758894     0.394877    Uiso  ? Al
   Al27       1.0     0.558374     0.869503     0.151179    Uiso  ? Al
   Al28       1.0     0.225252     0.875924     0.639908    Uiso  ? Al
   Al29       1.0     0.779594     0.756932     0.397307    Uiso  ? Al
   Al30       1.0     0.882145     0.875725     0.152845    Uiso  ? Al
   Al31       1.0     0.450473     0.755231     0.897054    Uiso  ? Al
   Al32       1.0     0.558652     0.865730     0.639577    Uiso  ? Al
   Mg1        1.0     0.778186     0.100602     0.899321    Uiso  ? Mg
   Mg2        1.0     0.887925     0.537968     0.144215    Uiso  ? Mg
   Hf1        1.0     0.446738     0.092442     0.892432    Uiso  ? Hf
   Hf2        1.0     0.110000     0.763099     0.889958    Uiso  ? Hf
   N1         1.0     0.221721     0.206180     0.340526    Uiso  ? N
   N2         1.0     0.111582     0.094772     0.088081    Uiso  ? N
   N3         1.0     0.896428     0.211516     0.831023    Uiso  ? N
   N4         1.0     0.778618     0.095366     0.584777    Uiso  ? N
   N5         1.0     0.553357     0.206966     0.342977    Uiso  ? N
   N6         1.0     0.444124     0.094551     0.099414    Uiso  ? N
   N7         1.0     0.208889     0.213113     0.830255    Uiso  ? N
   N8         1.0     0.110848     0.095037     0.583593    Uiso  ? N
   N9         1.0     0.889243     0.207239     0.338964    Uiso  ? N
   N10        1.0     0.777391     0.094104     0.103619    Uiso  ? N
   N11        1.0     0.549719     0.220588     0.826870    Uiso  ? N
   N12        1.0     0.444738     0.092923     0.591723    Uiso  ? N
   N13        1.0     0.221768     0.538908     0.340192    Uiso  ? N
   N14        1.0     0.127008     0.419587     0.082723    Uiso  ? N
   N15        1.0     0.888937     0.537592     0.837513    Uiso  ? N
   N16        1.0     0.775794     0.428295     0.588159    Uiso  ? N
   N17        1.0     0.555588     0.538655     0.336041    Uiso  ? N
   N18        1.0     0.443691     0.427858     0.088396    Uiso  ? N
   N19        1.0     0.229697     0.523774     0.831701    Uiso  ? N
   N20        1.0     0.111169     0.427959     0.587137    Uiso  ? N
   N21        1.0     0.888638     0.538171     0.348437    Uiso  ? N
   N22        1.0     0.769941     0.419672     0.081652    Uiso  ? N
   N23        1.0     0.553264     0.539616     0.835788    Uiso  ? N
   N24        1.0     0.444490     0.429812     0.583973    Uiso  ? N
   N25        1.0     0.222057     0.872549     0.339629    Uiso  ? N
   N26        1.0     0.110383     0.761487     0.097198    Uiso  ? N
   N27        1.0     0.877005     0.867678     0.827137    Uiso  ? N
   N28        1.0     0.777751     0.759647     0.585706    Uiso  ? N
   N29        1.0     0.555494     0.871658     0.340451    Uiso  ? N
   N30        1.0     0.443975     0.761685     0.087694    Uiso  ? N
   N31        1.0     0.232243     0.883503     0.831812    Uiso  ? N
   N32        1.0     0.112598     0.761351     0.592878    Uiso  ? N
   N33        1.0     0.889317     0.870312     0.343108    Uiso  ? N
   N34        1.0     0.769185     0.776945     0.083046    Uiso  ? N
   N35        1.0     0.564266     0.853002     0.829046    Uiso  ? N
   N36        1.0     0.445163     0.758999     0.583956    Uiso  ? N
