
#======================================================================
# CRYSTAL DATA
#----------------------------------------------------------------------
data_VESTA_phase_1

_chemical_name_common                  'Al   Mg   Hf   N                      '
_cell_length_a                         9.510909
_cell_length_b                         9.522982
_cell_length_c                         10.108576
_cell_angle_alpha                      89.989037
_cell_angle_beta                       90.030830
_cell_angle_gamma                      59.932434
_cell_volume                           792.354210
_space_group_name_H-M_alt              'P 1'
_space_group_IT_number                 1

loop_
_space_group_symop_operation_xyz
   'x, y, z'

loop_
   _atom_site_label
   _atom_site_occupancy
   _atom_site_fract_x
   _atom_site_fract_y
   _atom_site_fract_z
   _atom_site_adp_type
   _atom_site_U_iso_or_equiv
   _atom_site_type_symbol
   Al1        1.0     0.109420     0.096145     0.391633    Uiso  ? Al
   Al2        1.0     0.219332     0.208669     0.147300    Uiso  ? Al
   Al3        1.0     0.889230     0.206592     0.641733    Uiso  ? Al
   Al4        1.0     0.444039     0.094127     0.393891    Uiso  ? Al
   Al5        1.0     0.558054     0.207012     0.149939    Uiso  ? Al
   Al6        1.0     0.105330     0.103040     0.892776    Uiso  ? Al
   Al7        1.0     0.217694     0.207732     0.636692    Uiso  ? Al
   Al8        1.0     0.778824     0.095281     0.390479    Uiso  ? Al
   Al9        1.0     0.885404     0.207417     0.144222    Uiso  ? Al
   Al10       1.0     0.557218     0.208901     0.636037    Uiso  ? Al
   Al11       1.0     0.107747     0.429495     0.393471    Uiso  ? Al
   Al12       1.0     0.224379     0.533777     0.146460    Uiso  ? Al
   Al13       1.0     0.778546     0.424968     0.891824    Uiso  ? Al
   Al14       1.0     0.888159     0.538276     0.641222    Uiso  ? Al
   Al15       1.0     0.444489     0.429449     0.391948    Uiso  ? Al
   Al16       1.0     0.557757     0.535907     0.141666    Uiso  ? Al
   Al17       1.0     0.107440     0.427067     0.893300    Uiso  ? Al
   Al18       1.0     0.225150     0.533939     0.637197    Uiso  ? Al
   Al19       1.0     0.778317     0.428886     0.393627    Uiso  ? Al
   Al20       1.0     0.448226     0.427849     0.893933    Uiso  ? Al
   Al21       1.0     0.555478     0.538387     0.641510    Uiso  ? Al
   Al22       1.0     0.111218     0.760755     0.393951    Uiso  ? Al
   Al23       1.0     0.223152     0.874595     0.146822    Uiso  ? Al
   Al24       1.0     0.778649     0.754806     0.893286    Uiso  ? Al
   Al25       1.0     0.883370     0.874133     0.636228    Uiso  ? Al
   Al26       1.0     0.445625     0.758895     0.391095    Uiso  ? Al
   Al27       1.0     0.558379     0.869505     0.147395    Uiso  ? Al
   Al28       1.0     0.225262     0.875931     0.636129    Uiso  ? Al
   Al29       1.0     0.779602     0.756928     0.393523    Uiso  ? Al
   Al30       1.0     0.882157     0.875719     0.149065    Uiso  ? Al
   Al31       1.0     0.450479     0.755231     0.893280    Uiso  ? Al
   Al32       1.0     0.558664     0.865719     0.635799    Uiso  ? Al
   Mg1        1.0     0.778189     0.100602     0.895546    Uiso  ? Mg
   Mg2        1.0     0.887930     0.537961     0.140434    Uiso  ? Mg
   Hf1        1.0     0.446741     0.092442     0.888624    Uiso  ? Hf
   Hf2        1.0     0.110004     0.763105     0.886151    Uiso  ? Hf
   N1         1.0     0.221734     0.206177     0.336751    Uiso  ? N
   N2         1.0     0.111588     0.094774     0.084310    Uiso  ? N
   N3         1.0     0.896433     0.211513     0.827253    Uiso  ? N
   N4         1.0     0.778623     0.095367     0.581000    Uiso  ? N
   N5         1.0     0.553359     0.206963     0.339204    Uiso  ? N
   N6         1.0     0.444132     0.094547     0.095617    Uiso  ? N
   N7         1.0     0.208882     0.213122     0.826479    Uiso  ? N
   N8         1.0     0.110852     0.095040     0.579816    Uiso  ? N
   N9         1.0     0.889249     0.207239     0.335191    Uiso  ? N
   N10        1.0     0.777397     0.094101     0.099850    Uiso  ? N
   N11        1.0     0.549728     0.220594     0.823097    Uiso  ? N
   N12        1.0     0.444745     0.092922     0.587964    Uiso  ? N
   N13        1.0     0.221772     0.538914     0.336416    Uiso  ? N
   N14        1.0     0.127014     0.419587     0.078956    Uiso  ? N
   N15        1.0     0.888942     0.537590     0.833745    Uiso  ? N
   N16        1.0     0.775799     0.428296     0.584390    Uiso  ? N
   N17        1.0     0.555594     0.538653     0.332272    Uiso  ? N
   N18        1.0     0.443697     0.427856     0.084626    Uiso  ? N
   N19        1.0     0.229702     0.523769     0.827927    Uiso  ? N
   N20        1.0     0.111173     0.427962     0.583358    Uiso  ? N
   N21        1.0     0.888643     0.538167     0.344662    Uiso  ? N
   N22        1.0     0.769943     0.419669     0.077882    Uiso  ? N
   N23        1.0     0.553266     0.539618     0.832017    Uiso  ? N
   N24        1.0     0.444495     0.429813     0.580199    Uiso  ? N
   N25        1.0     0.222062     0.872547     0.335852    Uiso  ? N
   N26        1.0     0.110390     0.761488     0.093401    Uiso  ? N
   N27        1.0     0.876999     0.867681     0.823364    Uiso  ? N
   N28        1.0     0.777759     0.759644     0.581930    Uiso  ? N
   N29        1.0     0.555499     0.871661     0.336676    Uiso  ? N
   N30        1.0     0.443983     0.761682     0.083925    Uiso  ? N
   N31        1.0     0.232255     0.883512     0.828039    Uiso  ? N
   N32        1.0     0.112605     0.761355     0.589119    Uiso  ? N
   N33        1.0     0.889330     0.870307     0.339336    Uiso  ? N
   N34        1.0     0.769196     0.776938     0.079281    Uiso  ? N
   N35        1.0     0.564280     0.852990     0.825274    Uiso  ? N
   N36        1.0     0.445169     0.758998     0.580181    Uiso  ? N
