
#======================================================================
# CRYSTAL DATA
#----------------------------------------------------------------------
data_VESTA_phase_1

_chemical_name_common                  'Al   Mg   Hf   N                      '
_cell_length_a                         9.510681
_cell_length_b                         9.522744
_cell_length_c                         10.109160
_cell_angle_alpha                      89.988869
_cell_angle_beta                       90.030846
_cell_angle_gamma                      59.932583
_cell_volume                           792.362475
_space_group_name_H-M_alt              'P 1'
_space_group_IT_number                 1

loop_
_space_group_symop_operation_xyz
   'x, y, z'

loop_
   _atom_site_label
   _atom_site_occupancy
   _atom_site_fract_x
   _atom_site_fract_y
   _atom_site_fract_z
   _atom_site_adp_type
   _atom_site_U_iso_or_equiv
   _atom_site_type_symbol
   Al1        1.0     0.109399     0.096145     0.405747    Uiso  ? Al
   Al2        1.0     0.219302     0.208675     0.161413    Uiso  ? Al
   Al3        1.0     0.889211     0.206594     0.655841    Uiso  ? Al
   Al4        1.0     0.444016     0.094131     0.407991    Uiso  ? Al
   Al5        1.0     0.558036     0.207018     0.164054    Uiso  ? Al
   Al6        1.0     0.105310     0.103035     0.906882    Uiso  ? Al
   Al7        1.0     0.217682     0.207725     0.650805    Uiso  ? Al
   Al8        1.0     0.778802     0.095284     0.404596    Uiso  ? Al
   Al9        1.0     0.885383     0.207421     0.158332    Uiso  ? Al
   Al10       1.0     0.557193     0.208897     0.650148    Uiso  ? Al
   Al11       1.0     0.107727     0.429495     0.407589    Uiso  ? Al
   Al12       1.0     0.224361     0.533771     0.160575    Uiso  ? Al
   Al13       1.0     0.778529     0.424970     0.905931    Uiso  ? Al
   Al14       1.0     0.888138     0.538277     0.655330    Uiso  ? Al
   Al15       1.0     0.444470     0.429451     0.406061    Uiso  ? Al
   Al16       1.0     0.557738     0.535910     0.155771    Uiso  ? Al
   Al17       1.0     0.107421     0.427065     0.907403    Uiso  ? Al
   Al18       1.0     0.225127     0.533945     0.651308    Uiso  ? Al
   Al19       1.0     0.778295     0.428889     0.407737    Uiso  ? Al
   Al20       1.0     0.448209     0.427847     0.908040    Uiso  ? Al
   Al21       1.0     0.555459     0.538387     0.655618    Uiso  ? Al
   Al22       1.0     0.111195     0.760755     0.408051    Uiso  ? Al
   Al23       1.0     0.223132     0.874598     0.160938    Uiso  ? Al
   Al24       1.0     0.778627     0.754810     0.907389    Uiso  ? Al
   Al25       1.0     0.883359     0.874129     0.650341    Uiso  ? Al
   Al26       1.0     0.445604     0.758896     0.405207    Uiso  ? Al
   Al27       1.0     0.558359     0.869504     0.161509    Uiso  ? Al
   Al28       1.0     0.225236     0.875924     0.650239    Uiso  ? Al
   Al29       1.0     0.779578     0.756933     0.407641    Uiso  ? Al
   Al30       1.0     0.882128     0.875726     0.163178    Uiso  ? Al
   Al31       1.0     0.450457     0.755232     0.907386    Uiso  ? Al
   Al32       1.0     0.558635     0.865732     0.649911    Uiso  ? Al
   Mg1        1.0     0.778171     0.100603     0.909652    Uiso  ? Mg
   Mg2        1.0     0.887910     0.537970     0.154547    Uiso  ? Mg
   Hf1        1.0     0.446722     0.092443     0.902766    Uiso  ? Hf
   Hf2        1.0     0.109985     0.763099     0.900291    Uiso  ? Hf
   N1         1.0     0.221705     0.206182     0.350853    Uiso  ? N
   N2         1.0     0.111566     0.094773     0.098409    Uiso  ? N
   N3         1.0     0.896414     0.211516     0.841351    Uiso  ? N
   N4         1.0     0.778602     0.095367     0.595107    Uiso  ? N
   N5         1.0     0.553342     0.206968     0.353307    Uiso  ? N
   N6         1.0     0.444108     0.094553     0.109746    Uiso  ? N
   N7         1.0     0.208874     0.213112     0.840584    Uiso  ? N
   N8         1.0     0.110833     0.095037     0.593921    Uiso  ? N
   N9         1.0     0.889228     0.207241     0.349293    Uiso  ? N
   N10        1.0     0.777375     0.094106     0.113948    Uiso  ? N
   N11        1.0     0.549704     0.220588     0.837200    Uiso  ? N
   N12        1.0     0.444722     0.092925     0.602050    Uiso  ? N
   N13        1.0     0.221754     0.538908     0.350519    Uiso  ? N
   N14        1.0     0.126992     0.419588     0.093050    Uiso  ? N
   N15        1.0     0.888922     0.537593     0.847843    Uiso  ? N
   N16        1.0     0.775779     0.428297     0.598489    Uiso  ? N
   N17        1.0     0.555573     0.538656     0.346372    Uiso  ? N
   N18        1.0     0.443676     0.427859     0.098725    Uiso  ? N
   N19        1.0     0.229682     0.523775     0.842029    Uiso  ? N
   N20        1.0     0.111154     0.427959     0.597467    Uiso  ? N
   N21        1.0     0.888623     0.538173     0.358768    Uiso  ? N
   N22        1.0     0.769926     0.419674     0.091981    Uiso  ? N
   N23        1.0     0.553250     0.539617     0.846117    Uiso  ? N
   N24        1.0     0.444475     0.429813     0.594303    Uiso  ? N
   N25        1.0     0.222042     0.872550     0.349955    Uiso  ? N
   N26        1.0     0.110367     0.761488     0.107529    Uiso  ? N
   N27        1.0     0.876992     0.867677     0.837467    Uiso  ? N
   N28        1.0     0.777735     0.759649     0.596038    Uiso  ? N
   N29        1.0     0.555480     0.871659     0.350778    Uiso  ? N
   N30        1.0     0.443959     0.761686     0.098023    Uiso  ? N
   N31        1.0     0.232227     0.883503     0.842141    Uiso  ? N
   N32        1.0     0.112582     0.761352     0.603203    Uiso  ? N
   N33        1.0     0.889301     0.870313     0.353438    Uiso  ? N
   N34        1.0     0.769170     0.776946     0.093374    Uiso  ? N
   N35        1.0     0.564250     0.853005     0.839377    Uiso  ? N
   N36        1.0     0.445147     0.759000     0.594285    Uiso  ? N
