
#======================================================================
# CRYSTAL DATA
#----------------------------------------------------------------------
data_VESTA_phase_1

_chemical_name_common                  'Al   Mg   Hf   N                      '
_cell_length_a                         9.579077
_cell_length_b                         9.593894
_cell_length_c                         9.922081
_cell_angle_alpha                      89.993439
_cell_angle_beta                       90.027550
_cell_angle_gamma                      59.937435
_cell_volume                           789.183031
_space_group_name_H-M_alt              'P 1'
_space_group_IT_number                 1

loop_
_space_group_symop_operation_xyz
   'x, y, z'

loop_
   _atom_site_label
   _atom_site_occupancy
   _atom_site_fract_x
   _atom_site_fract_y
   _atom_site_fract_z
   _atom_site_adp_type
   _atom_site_U_iso_or_equiv
   _atom_site_type_symbol
   Al1        1.0     0.109285     0.096180     0.380856    Uiso  ? Al
   Al2        1.0     0.221263     0.207710     0.137402    Uiso  ? Al
   Al3        1.0     0.889176     0.206564     0.632150    Uiso  ? Al
   Al4        1.0     0.444267     0.094003     0.386809    Uiso  ? Al
   Al5        1.0     0.557414     0.206207     0.138865    Uiso  ? Al
   Al6        1.0     0.105361     0.103497     0.884283    Uiso  ? Al
   Al7        1.0     0.215265     0.209192     0.626415    Uiso  ? Al
   Al8        1.0     0.778946     0.095290     0.378799    Uiso  ? Al
   Al9        1.0     0.885214     0.207477     0.134415    Uiso  ? Al
   Al10       1.0     0.558384     0.210030     0.626339    Uiso  ? Al
   Al11       1.0     0.107445     0.429849     0.382155    Uiso  ? Al
   Al12       1.0     0.223898     0.535238     0.136444    Uiso  ? Al
   Al13       1.0     0.778070     0.425014     0.882221    Uiso  ? Al
   Al14       1.0     0.888144     0.538366     0.631272    Uiso  ? Al
   Al15       1.0     0.444503     0.429442     0.381300    Uiso  ? Al
   Al16       1.0     0.557595     0.535907     0.132571    Uiso  ? Al
   Al17       1.0     0.107329     0.427239     0.884980    Uiso  ? Al
   Al18       1.0     0.226105     0.531969     0.627026    Uiso  ? Al
   Al19       1.0     0.778337     0.428866     0.383773    Uiso  ? Al
   Al20       1.0     0.447757     0.428227     0.885285    Uiso  ? Al
   Al21       1.0     0.555237     0.538516     0.631933    Uiso  ? Al
   Al22       1.0     0.111515     0.761031     0.386595    Uiso  ? Al
   Al23       1.0     0.222772     0.874195     0.136248    Uiso  ? Al
   Al24       1.0     0.778621     0.754429     0.885341    Uiso  ? Al
   Al25       1.0     0.881282     0.874954     0.625813    Uiso  ? Al
   Al26       1.0     0.445474     0.758879     0.380613    Uiso  ? Al
   Al27       1.0     0.557578     0.870912     0.137352    Uiso  ? Al
   Al28       1.0     0.226444     0.877342     0.626506    Uiso  ? Al
   Al29       1.0     0.780058     0.756403     0.381775    Uiso  ? Al
   Al30       1.0     0.883664     0.875188     0.138580    Uiso  ? Al
   Al31       1.0     0.450526     0.755351     0.884607    Uiso  ? Al
   Al32       1.0     0.560221     0.863076     0.625792    Uiso  ? Al
   Mg1        1.0     0.778416     0.099866     0.885355    Uiso  ? Mg
   Mg2        1.0     0.887874     0.537178     0.129400    Uiso  ? Mg
   Hf1        1.0     0.446247     0.092349     0.871644    Uiso  ? Hf
   Hf2        1.0     0.110285     0.763148     0.869582    Uiso  ? Hf
   N1         1.0     0.223169     0.205441     0.330239    Uiso  ? N
   N2         1.0     0.111769     0.095070     0.078385    Uiso  ? N
   N3         1.0     0.896548     0.211177     0.820804    Uiso  ? N
   N4         1.0     0.778725     0.095530     0.572852    Uiso  ? N
   N5         1.0     0.552563     0.206453     0.331915    Uiso  ? N
   N6         1.0     0.444319     0.094093     0.083076    Uiso  ? N
   N7         1.0     0.206255     0.214923     0.819077    Uiso  ? N
   N8         1.0     0.110437     0.095356     0.571829    Uiso  ? N
   N9         1.0     0.889221     0.207623     0.327911    Uiso  ? N
   N10        1.0     0.777484     0.093885     0.093484    Uiso  ? N
   N11        1.0     0.550663     0.221833     0.816378    Uiso  ? N
   N12        1.0     0.444914     0.092585     0.585170    Uiso  ? N
   N13        1.0     0.221227     0.540428     0.329778    Uiso  ? N
   N14        1.0     0.127393     0.419478     0.073733    Uiso  ? N
   N15        1.0     0.888993     0.537576     0.827349    Uiso  ? N
   N16        1.0     0.775627     0.428351     0.577560    Uiso  ? N
   N17        1.0     0.555711     0.538641     0.325475    Uiso  ? N
   N18        1.0     0.443560     0.427977     0.078578    Uiso  ? N
   N19        1.0     0.230242     0.521982     0.820764    Uiso  ? N
   N20        1.0     0.110733     0.428348     0.574958    Uiso  ? N
   N21        1.0     0.888519     0.537656     0.336640    Uiso  ? N
   N22        1.0     0.769318     0.419549     0.071184    Uiso  ? N
   N23        1.0     0.552336     0.540104     0.825159    Uiso  ? N
   N24        1.0     0.444721     0.429871     0.572313    Uiso  ? N
   N25        1.0     0.221591     0.872152     0.328779    Uiso  ? N
   N26        1.0     0.110785     0.761613     0.081449    Uiso  ? N
   N27        1.0     0.874975     0.868030     0.816275    Uiso  ? N
   N28        1.0     0.778092     0.759027     0.573223    Uiso  ? N
   N29        1.0     0.554708     0.872869     0.330004    Uiso  ? N
   N30        1.0     0.444218     0.761577     0.077919    Uiso  ? N
   N31        1.0     0.233342     0.885232     0.821225    Uiso  ? N
   N32        1.0     0.113022     0.761618     0.586141    Uiso  ? N
   N33        1.0     0.890955     0.869581     0.332458    Uiso  ? N
   N34        1.0     0.769527     0.776533     0.074421    Uiso  ? N
   N35        1.0     0.565918     0.850305     0.818195    Uiso  ? N
   N36        1.0     0.445322     0.758674     0.572382    Uiso  ? N
