
#======================================================================
# CRYSTAL DATA
#----------------------------------------------------------------------
data_VESTA_phase_1

_chemical_name_common                  'Al   Mg   Hf   N                      '
_cell_length_a                         9.515179
_cell_length_b                         9.527827
_cell_length_c                         10.104115
_cell_angle_alpha                      89.982094
_cell_angle_beta                       89.967377
_cell_angle_gamma                      59.946312
_cell_volume                           792.874478
_space_group_name_H-M_alt              'P 1'
_space_group_IT_number                 1

loop_
_space_group_symop_operation_xyz
   'x, y, z'

loop_
   _atom_site_label
   _atom_site_occupancy
   _atom_site_fract_x
   _atom_site_fract_y
   _atom_site_fract_z
   _atom_site_adp_type
   _atom_site_U_iso_or_equiv
   _atom_site_type_symbol
   Al1        1.0     0.109591     0.095836     0.298721    Uiso  ? Al
   Al2        1.0     0.217237     0.209638     0.055275    Uiso  ? Al
   Al3        1.0     0.887396     0.205553     0.546193    Uiso  ? Al
   Al4        1.0     0.443941     0.093755     0.294997    Uiso  ? Al
   Al5        1.0     0.557368     0.209437     0.056219    Uiso  ? Al
   Al6        1.0     0.105110     0.103509     0.799157    Uiso  ? Al
   Al7        1.0     0.219773     0.206564     0.543454    Uiso  ? Al
   Al8        1.0     0.779429     0.094889     0.298978    Uiso  ? Al
   Al9        1.0     0.887127     0.208361     0.049911    Uiso  ? Al
   Al10       1.0     0.558078     0.206502     0.540934    Uiso  ? Al
   Al11       1.0     0.110834     0.428027     0.298681    Uiso  ? Al
   Al12       1.0     0.225795     0.531768     0.054480    Uiso  ? Al
   Al13       1.0     0.779942     0.426548     0.798166    Uiso  ? Al
   Al14       1.0     0.887971     0.537791     0.549425    Uiso  ? Al
   Al15       1.0     0.444315     0.429804     0.298101    Uiso  ? Al
   Al16       1.0     0.556978     0.536526     0.050510    Uiso  ? Al
   Al17       1.0     0.105003     0.428441     0.795963    Uiso  ? Al
   Al18       1.0     0.223864     0.536168     0.544064    Uiso  ? Al
   Al19       1.0     0.776886     0.427254     0.297827    Uiso  ? Al
   Al20       1.0     0.448364     0.427678     0.798367    Uiso  ? Al
   Al21       1.0     0.556311     0.537763     0.548519    Uiso  ? Al
   Al22       1.0     0.111400     0.760881     0.295401    Uiso  ? Al
   Al23       1.0     0.225626     0.876489     0.055036    Uiso  ? Al
   Al24       1.0     0.779762     0.752491     0.796052    Uiso  ? Al
   Al25       1.0     0.884736     0.875262     0.541696    Uiso  ? Al
   Al26       1.0     0.445451     0.758995     0.299247    Uiso  ? Al
   Al27       1.0     0.560518     0.865248     0.056066    Uiso  ? Al
   Al28       1.0     0.223126     0.874347     0.544414    Uiso  ? Al
   Al29       1.0     0.778279     0.759953     0.298920    Uiso  ? Al
   Al30       1.0     0.880946     0.874790     0.055090    Uiso  ? Al
   Al31       1.0     0.450718     0.755171     0.798614    Uiso  ? Al
   Al32       1.0     0.556639     0.869576     0.543487    Uiso  ? Al
   Mg1        1.0     0.777883     0.100707     0.797769    Uiso  ? Mg
   Mg2        1.0     0.888389     0.538171     0.049307    Uiso  ? Mg
   Hf1        1.0     0.446583     0.092737     0.806885    Uiso  ? Hf
   Hf2        1.0     0.110031     0.763279     0.807949    Uiso  ? Hf
   N1         1.0     0.222770     0.204348     0.355875    Uiso  ? N
   N2         1.0     0.110569     0.095434     0.110599    Uiso  ? N
   N3         1.0     0.895381     0.213064     0.862306    Uiso  ? N
   N4         1.0     0.776949     0.094199     0.593108    Uiso  ? N
   N5         1.0     0.553463     0.206524     0.351604    Uiso  ? N
   N6         1.0     0.444331     0.092503     0.100902    Uiso  ? N
   N7         1.0     0.207318     0.215357     0.863128    Uiso  ? N
   N8         1.0     0.111713     0.094540     0.607402    Uiso  ? N
   N9         1.0     0.890232     0.205687     0.357402    Uiso  ? N
   N10        1.0     0.779297     0.094859     0.109263    Uiso  ? N
   N11        1.0     0.550021     0.221175     0.868904    Uiso  ? N
   N12        1.0     0.444784     0.094708     0.598816    Uiso  ? N
   N13        1.0     0.222201     0.540280     0.356103    Uiso  ? N
   N14        1.0     0.124086     0.421559     0.114166    Uiso  ? N
   N15        1.0     0.888945     0.537418     0.842877    Uiso  ? N
   N16        1.0     0.776618     0.426328     0.606216    Uiso  ? N
   N17        1.0     0.554330     0.539492     0.360106    Uiso  ? N
   N18        1.0     0.443960     0.430607     0.110391    Uiso  ? N
   N19        1.0     0.229358     0.522456     0.861055    Uiso  ? N
   N20        1.0     0.113645     0.426309     0.604748    Uiso  ? N
   N21        1.0     0.888732     0.538086     0.358844    Uiso  ? N
   N22        1.0     0.769276     0.421519     0.112625    Uiso  ? N
   N23        1.0     0.554619     0.538781     0.857335    Uiso  ? N
   N24        1.0     0.444144     0.427040     0.607026    Uiso  ? N
   N25        1.0     0.221994     0.872309     0.355226    Uiso  ? N
   N26        1.0     0.112532     0.761480     0.099647    Uiso  ? N
   N27        1.0     0.875386     0.867419     0.865787    Uiso  ? N
   N28        1.0     0.776356     0.763003     0.604243    Uiso  ? N
   N29        1.0     0.553801     0.872530     0.356069    Uiso  ? N
   N30        1.0     0.445394     0.758910     0.110247    Uiso  ? N
   N31        1.0     0.232816     0.884311     0.862997    Uiso  ? N
   N32        1.0     0.110651     0.761526     0.600125    Uiso  ? N
   N33        1.0     0.890913     0.870747     0.353498    Uiso  ? N
   N34        1.0     0.771496     0.772371     0.115574    Uiso  ? N
   N35        1.0     0.566230     0.851625     0.864249    Uiso  ? N
   N36        1.0     0.443948     0.761613     0.607763    Uiso  ? N
