
#======================================================================
# CRYSTAL DATA
#----------------------------------------------------------------------
data_VESTA_phase_1

_chemical_name_common                  'Al   Mg   Hf   N                      '
_cell_length_a                         9.515195
_cell_length_b                         9.527852
_cell_length_c                         10.104027
_cell_angle_alpha                      89.982254
_cell_angle_beta                       89.967476
_cell_angle_gamma                      59.946251
_cell_volume                           792.870519
_space_group_name_H-M_alt              'P 1'
_space_group_IT_number                 1

loop_
_space_group_symop_operation_xyz
   'x, y, z'

loop_
   _atom_site_label
   _atom_site_occupancy
   _atom_site_fract_x
   _atom_site_fract_y
   _atom_site_fract_z
   _atom_site_adp_type
   _atom_site_U_iso_or_equiv
   _atom_site_type_symbol
   Al1        1.0     0.109571     0.095837     0.312299    Uiso  ? Al
   Al2        1.0     0.217216     0.209640     0.068854    Uiso  ? Al
   Al3        1.0     0.887375     0.205555     0.559770    Uiso  ? Al
   Al4        1.0     0.443921     0.093757     0.308577    Uiso  ? Al
   Al5        1.0     0.557348     0.209439     0.069794    Uiso  ? Al
   Al6        1.0     0.105089     0.103511     0.812733    Uiso  ? Al
   Al7        1.0     0.219754     0.206566     0.557035    Uiso  ? Al
   Al8        1.0     0.779409     0.094890     0.312555    Uiso  ? Al
   Al9        1.0     0.887106     0.208362     0.063487    Uiso  ? Al
   Al10       1.0     0.558059     0.206503     0.554511    Uiso  ? Al
   Al11       1.0     0.110815     0.428029     0.312261    Uiso  ? Al
   Al12       1.0     0.225775     0.531768     0.068059    Uiso  ? Al
   Al13       1.0     0.779921     0.426549     0.811742    Uiso  ? Al
   Al14       1.0     0.887951     0.537792     0.563002    Uiso  ? Al
   Al15       1.0     0.444294     0.429806     0.311677    Uiso  ? Al
   Al16       1.0     0.556957     0.536528     0.064086    Uiso  ? Al
   Al17       1.0     0.104981     0.428443     0.809544    Uiso  ? Al
   Al18       1.0     0.223843     0.536170     0.557646    Uiso  ? Al
   Al19       1.0     0.776866     0.427255     0.311401    Uiso  ? Al
   Al20       1.0     0.448344     0.427678     0.811942    Uiso  ? Al
   Al21       1.0     0.556291     0.537764     0.562093    Uiso  ? Al
   Al22       1.0     0.111381     0.760882     0.308982    Uiso  ? Al
   Al23       1.0     0.225606     0.876491     0.068614    Uiso  ? Al
   Al24       1.0     0.779743     0.752491     0.809632    Uiso  ? Al
   Al25       1.0     0.884717     0.875263     0.555276    Uiso  ? Al
   Al26       1.0     0.445431     0.758997     0.312825    Uiso  ? Al
   Al27       1.0     0.560498     0.865248     0.069642    Uiso  ? Al
   Al28       1.0     0.223105     0.874348     0.557995    Uiso  ? Al
   Al29       1.0     0.778258     0.759956     0.312499    Uiso  ? Al
   Al30       1.0     0.880924     0.874792     0.068669    Uiso  ? Al
   Al31       1.0     0.450697     0.755171     0.812189    Uiso  ? Al
   Al32       1.0     0.556619     0.869578     0.557069    Uiso  ? Al
   Mg1        1.0     0.777863     0.100708     0.811346    Uiso  ? Mg
   Mg2        1.0     0.888368     0.538173     0.062887    Uiso  ? Mg
   Hf1        1.0     0.446563     0.092740     0.820469    Uiso  ? Hf
   Hf2        1.0     0.110009     0.763280     0.821535    Uiso  ? Hf
   N1         1.0     0.222750     0.204349     0.369454    Uiso  ? N
   N2         1.0     0.110548     0.095436     0.124176    Uiso  ? N
   N3         1.0     0.895361     0.213065     0.875882    Uiso  ? N
   N4         1.0     0.776930     0.094201     0.606684    Uiso  ? N
   N5         1.0     0.553442     0.206525     0.365179    Uiso  ? N
   N6         1.0     0.444310     0.092504     0.114476    Uiso  ? N
   N7         1.0     0.207296     0.215358     0.876706    Uiso  ? N
   N8         1.0     0.111692     0.094543     0.620979    Uiso  ? N
   N9         1.0     0.890211     0.205689     0.370979    Uiso  ? N
   N10        1.0     0.779277     0.094861     0.122840    Uiso  ? N
   N11        1.0     0.550002     0.221177     0.882479    Uiso  ? N
   N12        1.0     0.444764     0.094709     0.612397    Uiso  ? N
   N13        1.0     0.222181     0.540283     0.369683    Uiso  ? N
   N14        1.0     0.124066     0.421560     0.127744    Uiso  ? N
   N15        1.0     0.888924     0.537419     0.856456    Uiso  ? N
   N16        1.0     0.776598     0.426330     0.619791    Uiso  ? N
   N17        1.0     0.554310     0.539493     0.373680    Uiso  ? N
   N18        1.0     0.443940     0.430608     0.123967    Uiso  ? N
   N19        1.0     0.229339     0.522455     0.874634    Uiso  ? N
   N20        1.0     0.113624     0.426311     0.618328    Uiso  ? N
   N21        1.0     0.888712     0.538087     0.372420    Uiso  ? N
   N22        1.0     0.769255     0.421520     0.126199    Uiso  ? N
   N23        1.0     0.554598     0.538783     0.870910    Uiso  ? N
   N24        1.0     0.444124     0.427041     0.620601    Uiso  ? N
   N25        1.0     0.221974     0.872311     0.368805    Uiso  ? N
   N26        1.0     0.112512     0.761481     0.113223    Uiso  ? N
   N27        1.0     0.875364     0.867421     0.879366    Uiso  ? N
   N28        1.0     0.776337     0.763004     0.617822    Uiso  ? N
   N29        1.0     0.553780     0.872533     0.369649    Uiso  ? N
   N30        1.0     0.445373     0.758912     0.123824    Uiso  ? N
   N31        1.0     0.232797     0.884314     0.876573    Uiso  ? N
   N32        1.0     0.110631     0.761528     0.613708    Uiso  ? N
   N33        1.0     0.890894     0.870748     0.367076    Uiso  ? N
   N34        1.0     0.771474     0.772373     0.129152    Uiso  ? N
   N35        1.0     0.566210     0.851624     0.877824    Uiso  ? N
   N36        1.0     0.443929     0.761613     0.621339    Uiso  ? N
