
#======================================================================
# CRYSTAL DATA
#----------------------------------------------------------------------
data_VESTA_phase_1

_chemical_name_common                  'Al   Mg   Hf   N                      '
_cell_length_a                         9.964214
_cell_length_b                         9.980127
_cell_length_c                         8.782412
_cell_angle_alpha                      89.993225
_cell_angle_beta                       90.008621
_cell_angle_gamma                      59.947849
_cell_volume                           755.953497
_space_group_name_H-M_alt              'P 1'
_space_group_IT_number                 1

loop_
_space_group_symop_operation_xyz
   'x, y, z'

loop_
   _atom_site_label
   _atom_site_occupancy
   _atom_site_fract_x
   _atom_site_fract_y
   _atom_site_fract_z
   _atom_site_adp_type
   _atom_site_U_iso_or_equiv
   _atom_site_type_symbol
   Al1        1.0     0.106570     0.097183     0.365034    Uiso  ? Al
   Al2        1.0     0.221845     0.206463     0.128256    Uiso  ? Al
   Al3        1.0     0.888421     0.207358     0.619793    Uiso  ? Al
   Al4        1.0     0.445099     0.094330     0.367243    Uiso  ? Al
   Al5        1.0     0.557412     0.207134     0.121718    Uiso  ? Al
   Al6        1.0     0.108219     0.101600     0.869774    Uiso  ? Al
   Al7        1.0     0.214259     0.210402     0.603195    Uiso  ? Al
   Al8        1.0     0.779825     0.096544     0.359616    Uiso  ? Al
   Al9        1.0     0.885786     0.206874     0.113872    Uiso  ? Al
   Al10       1.0     0.559141     0.209939     0.607618    Uiso  ? Al
   Al11       1.0     0.106940     0.430160     0.362614    Uiso  ? Al
   Al12       1.0     0.225656     0.534502     0.126417    Uiso  ? Al
   Al13       1.0     0.777808     0.427766     0.869458    Uiso  ? Al
   Al14       1.0     0.887761     0.538499     0.607912    Uiso  ? Al
   Al15       1.0     0.446011     0.429148     0.366147    Uiso  ? Al
   Al16       1.0     0.555758     0.537248     0.118953    Uiso  ? Al
   Al17       1.0     0.106970     0.428018     0.871172    Uiso  ? Al
   Al18       1.0     0.225456     0.531914     0.603649    Uiso  ? Al
   Al19       1.0     0.777960     0.426873     0.363527    Uiso  ? Al
   Al20       1.0     0.445210     0.430011     0.869084    Uiso  ? Al
   Al21       1.0     0.556271     0.537967     0.616149    Uiso  ? Al
   Al22       1.0     0.111331     0.762173     0.365639    Uiso  ? Al
   Al23       1.0     0.224626     0.875186     0.123952    Uiso  ? Al
   Al24       1.0     0.778848     0.753263     0.874198    Uiso  ? Al
   Al25       1.0     0.880670     0.874774     0.604402    Uiso  ? Al
   Al26       1.0     0.445516     0.757551     0.366542    Uiso  ? Al
   Al27       1.0     0.555956     0.870510     0.127772    Uiso  ? Al
   Al28       1.0     0.225903     0.877553     0.605150    Uiso  ? Al
   Al29       1.0     0.780782     0.756114     0.360238    Uiso  ? Al
   Al30       1.0     0.883211     0.876559     0.124347    Uiso  ? Al
   Al31       1.0     0.449149     0.756915     0.868057    Uiso  ? Al
   Al32       1.0     0.561487     0.862481     0.603441    Uiso  ? Al
   Mg1        1.0     0.778969     0.096780     0.861335    Uiso  ? Mg
   Mg2        1.0     0.888242     0.536105     0.112947    Uiso  ? Mg
   Hf1        1.0     0.444157     0.092468     0.853318    Uiso  ? Hf
   Hf2        1.0     0.111638     0.761339     0.853200    Uiso  ? Hf
   N1         1.0     0.222911     0.204821     0.349901    Uiso  ? N
   N2         1.0     0.113408     0.094958     0.097015    Uiso  ? N
   N3         1.0     0.896286     0.211102     0.843341    Uiso  ? N
   N4         1.0     0.778842     0.095878     0.586998    Uiso  ? N
   N5         1.0     0.552825     0.207174     0.347402    Uiso  ? N
   N6         1.0     0.444228     0.092923     0.102105    Uiso  ? N
   N7         1.0     0.206760     0.215023     0.834696    Uiso  ? N
   N8         1.0     0.109280     0.095771     0.586685    Uiso  ? N
   N9         1.0     0.889505     0.207291     0.340543    Uiso  ? N
   N10        1.0     0.777249     0.093961     0.109592    Uiso  ? N
   N11        1.0     0.549755     0.220297     0.838778    Uiso  ? N
   N12        1.0     0.445405     0.092692     0.594700    Uiso  ? N
   N13        1.0     0.222131     0.540560     0.348941    Uiso  ? N
   N14        1.0     0.126414     0.419921     0.096909    Uiso  ? N
   N15        1.0     0.889113     0.537835     0.840882    Uiso  ? N
   N16        1.0     0.775307     0.427323     0.592092    Uiso  ? N
   N17        1.0     0.554895     0.539247     0.341820    Uiso  ? N
   N18        1.0     0.443234     0.428850     0.096116    Uiso  ? N
   N19        1.0     0.228614     0.523581     0.836523    Uiso  ? N
   N20        1.0     0.110823     0.428526     0.587175    Uiso  ? N
   N21        1.0     0.888207     0.536457     0.354063    Uiso  ? N
   N22        1.0     0.768598     0.421897     0.091924    Uiso  ? N
   N23        1.0     0.552080     0.540527     0.841437    Uiso  ? N
   N24        1.0     0.445297     0.429399     0.587826    Uiso  ? N
   N25        1.0     0.222381     0.872932     0.346588    Uiso  ? N
   N26        1.0     0.112491     0.761367     0.102077    Uiso  ? N
   N27        1.0     0.878098     0.865257     0.836341    Uiso  ? N
   N28        1.0     0.778093     0.759467     0.583846    Uiso  ? N
   N29        1.0     0.553311     0.872365     0.349140    Uiso  ? N
   N30        1.0     0.444643     0.761512     0.095359    Uiso  ? N
   N31        1.0     0.231677     0.884247     0.838958    Uiso  ? N
   N32        1.0     0.113529     0.762009     0.594897    Uiso  ? N
   N33        1.0     0.891372     0.870492     0.349461    Uiso  ? N
   N34        1.0     0.770081     0.774200     0.099841    Uiso  ? N
   N35        1.0     0.565962     0.852149     0.835286    Uiso  ? N
   N36        1.0     0.445209     0.758504     0.588300    Uiso  ? N
