
#======================================================================
# CRYSTAL DATA
#----------------------------------------------------------------------
data_VESTA_phase_1

_chemical_name_common                  'Al   Mg   Hf   N                      '
_cell_length_a                         10.003520
_cell_length_b                         10.019110
_cell_length_c                         8.668641
_cell_angle_alpha                      89.990852
_cell_angle_beta                       89.991798
_cell_angle_gamma                      59.930614
_cell_volume                           751.899079
_space_group_name_H-M_alt              'P 1'
_space_group_IT_number                 1

loop_
_space_group_symop_operation_xyz
   'x, y, z'

loop_
   _atom_site_label
   _atom_site_occupancy
   _atom_site_fract_x
   _atom_site_fract_y
   _atom_site_fract_z
   _atom_site_adp_type
   _atom_site_U_iso_or_equiv
   _atom_site_type_symbol
   Al1        1.0     0.105716     0.098387     0.347068    Uiso  ? Al
   Al2        1.0     0.217254     0.207874     0.108308    Uiso  ? Al
   Al3        1.0     0.886239     0.208640     0.599553    Uiso  ? Al
   Al4        1.0     0.444661     0.093966     0.346581    Uiso  ? Al
   Al5        1.0     0.558940     0.210107     0.105526    Uiso  ? Al
   Al6        1.0     0.108987     0.100236     0.840171    Uiso  ? Al
   Al7        1.0     0.218741     0.208805     0.585525    Uiso  ? Al
   Al8        1.0     0.780871     0.096128     0.351596    Uiso  ? Al
   Al9        1.0     0.887922     0.205334     0.088376    Uiso  ? Al
   Al10       1.0     0.557807     0.206936     0.586424    Uiso  ? Al
   Al11       1.0     0.107482     0.429862     0.343194    Uiso  ? Al
   Al12       1.0     0.227420     0.532046     0.107938    Uiso  ? Al
   Al13       1.0     0.778396     0.428158     0.848630    Uiso  ? Al
   Al14       1.0     0.887668     0.536994     0.600258    Uiso  ? Al
   Al15       1.0     0.445794     0.429975     0.346403    Uiso  ? Al
   Al16       1.0     0.554357     0.537516     0.092622    Uiso  ? Al
   Al17       1.0     0.106600     0.428462     0.850538    Uiso  ? Al
   Al18       1.0     0.223610     0.534276     0.587293    Uiso  ? Al
   Al19       1.0     0.777588     0.426284     0.339495    Uiso  ? Al
   Al20       1.0     0.445482     0.429382     0.840584    Uiso  ? Al
   Al21       1.0     0.557877     0.537509     0.594007    Uiso  ? Al
   Al22       1.0     0.110713     0.761803     0.348275    Uiso  ? Al
   Al23       1.0     0.225634     0.877375     0.107772    Uiso  ? Al
   Al24       1.0     0.779264     0.752875     0.849470    Uiso  ? Al
   Al25       1.0     0.882764     0.874599     0.591394    Uiso  ? Al
   Al26       1.0     0.446708     0.756681     0.345613    Uiso  ? Al
   Al27       1.0     0.558690     0.865740     0.108596    Uiso  ? Al
   Al28       1.0     0.224946     0.875278     0.584788    Uiso  ? Al
   Al29       1.0     0.780639     0.756826     0.345526    Uiso  ? Al
   Al30       1.0     0.880837     0.877205     0.107233    Uiso  ? Al
   Al31       1.0     0.447930     0.757584     0.842208    Uiso  ? Al
   Al32       1.0     0.558559     0.867178     0.586219    Uiso  ? Al
   Mg1        1.0     0.777781     0.097488     0.848303    Uiso  ? Mg
   Mg2        1.0     0.887814     0.537702     0.100325    Uiso  ? Mg
   Hf1        1.0     0.444597     0.093020     0.855072    Uiso  ? Hf
   Hf2        1.0     0.112420     0.761735     0.854934    Uiso  ? Hf
   N1         1.0     0.222043     0.205562     0.358784    Uiso  ? N
   N2         1.0     0.108865     0.096522     0.118749    Uiso  ? N
   N3         1.0     0.896617     0.209893     0.858167    Uiso  ? N
   N4         1.0     0.776401     0.094539     0.596766    Uiso  ? N
   N5         1.0     0.553118     0.207089     0.356863    Uiso  ? N
   N6         1.0     0.444373     0.092107     0.113490    Uiso  ? N
   N7         1.0     0.208007     0.213528     0.865062    Uiso  ? N
   N8         1.0     0.113679     0.094030     0.607949    Uiso  ? N
   N9         1.0     0.888848     0.208458     0.368362    Uiso  ? N
   N10        1.0     0.779715     0.095307     0.119462    Uiso  ? N
   N11        1.0     0.549625     0.220447     0.868533    Uiso  ? N
   N12        1.0     0.444936     0.093496     0.601940    Uiso  ? N
   N13        1.0     0.221683     0.540181     0.359536    Uiso  ? N
   N14        1.0     0.123100     0.422134     0.114203    Uiso  ? N
   N15        1.0     0.889463     0.537665     0.848640    Uiso  ? N
   N16        1.0     0.774827     0.428384     0.616261    Uiso  ? N
   N17        1.0     0.556298     0.538614     0.366561    Uiso  ? N
   N18        1.0     0.444523     0.430506     0.118503    Uiso  ? N
   N19        1.0     0.229128     0.524571     0.863045    Uiso  ? N
   N20        1.0     0.113647     0.426393     0.609097    Uiso  ? N
   N21        1.0     0.888085     0.536277     0.366941    Uiso  ? N
   N22        1.0     0.769206     0.420799     0.109676    Uiso  ? N
   N23        1.0     0.551055     0.540945     0.860431    Uiso  ? N
   N24        1.0     0.444138     0.427465     0.608167    Uiso  ? N
   N25        1.0     0.222536     0.873002     0.357972    Uiso  ? N
   N26        1.0     0.112854     0.761736     0.112866    Uiso  ? N
   N27        1.0     0.879145     0.866383     0.861039    Uiso  ? N
   N28        1.0     0.776174     0.761795     0.606021    Uiso  ? N
   N29        1.0     0.554127     0.871464     0.359196    Uiso  ? N
   N30        1.0     0.445844     0.758212     0.117029    Uiso  ? N
   N31        1.0     0.231506     0.883999     0.867191    Uiso  ? N
   N32        1.0     0.113380     0.761667     0.602329    Uiso  ? N
   N33        1.0     0.890931     0.870261     0.359368    Uiso  ? N
   N34        1.0     0.772083     0.771653     0.116544    Uiso  ? N
   N35        1.0     0.564253     0.853680     0.864474    Uiso  ? N
   N36        1.0     0.443966     0.761494     0.609493    Uiso  ? N
