
#======================================================================
# CRYSTAL DATA
#----------------------------------------------------------------------
data_VESTA_phase_1

_chemical_name_common                  'Al   Mg   Hf   N                      '
_cell_length_a                         10.072106
_cell_length_b                         10.087252
_cell_length_c                         8.474996
_cell_angle_alpha                      89.993500
_cell_angle_beta                       89.998497
_cell_angle_gamma                      59.940292
_cell_volume                           745.249444
_space_group_name_H-M_alt              'P 1'
_space_group_IT_number                 1

loop_
_space_group_symop_operation_xyz
   'x, y, z'

loop_
   _atom_site_label
   _atom_site_occupancy
   _atom_site_fract_x
   _atom_site_fract_y
   _atom_site_fract_z
   _atom_site_adp_type
   _atom_site_U_iso_or_equiv
   _atom_site_type_symbol
   Al1        1.0     0.106840     0.097533     0.354149    Uiso  ? Al
   Al2        1.0     0.218816     0.207618     0.115966    Uiso  ? Al
   Al3        1.0     0.887137     0.207827     0.605754    Uiso  ? Al
   Al4        1.0     0.444855     0.094279     0.354693    Uiso  ? Al
   Al5        1.0     0.558785     0.208943     0.110276    Uiso  ? Al
   Al6        1.0     0.107903     0.100876     0.852318    Uiso  ? Al
   Al7        1.0     0.216559     0.209573     0.594158    Uiso  ? Al
   Al8        1.0     0.780108     0.095970     0.354440    Uiso  ? Al
   Al9        1.0     0.886823     0.206194     0.099966    Uiso  ? Al
   Al10       1.0     0.558720     0.208292     0.596105    Uiso  ? Al
   Al11       1.0     0.107382     0.429850     0.351943    Uiso  ? Al
   Al12       1.0     0.226761     0.532491     0.115087    Uiso  ? Al
   Al13       1.0     0.778317     0.427923     0.856427    Uiso  ? Al
   Al14       1.0     0.887631     0.537815     0.602785    Uiso  ? Al
   Al15       1.0     0.445596     0.429181     0.354123    Uiso  ? Al
   Al16       1.0     0.555258     0.537358     0.104719    Uiso  ? Al
   Al17       1.0     0.106274     0.428647     0.858807    Uiso  ? Al
   Al18       1.0     0.224668     0.532904     0.594786    Uiso  ? Al
   Al19       1.0     0.777902     0.426780     0.349629    Uiso  ? Al
   Al20       1.0     0.445586     0.429904     0.852561    Uiso  ? Al
   Al21       1.0     0.557004     0.537748     0.601688    Uiso  ? Al
   Al22       1.0     0.110815     0.762045     0.354589    Uiso  ? Al
   Al23       1.0     0.225497     0.876743     0.112962    Uiso  ? Al
   Al24       1.0     0.779445     0.752864     0.860285    Uiso  ? Al
   Al25       1.0     0.881280     0.875053     0.597605    Uiso  ? Al
   Al26       1.0     0.445821     0.757766     0.354175    Uiso  ? Al
   Al27       1.0     0.557840     0.867440     0.116295    Uiso  ? Al
   Al28       1.0     0.225398     0.876342     0.593625    Uiso  ? Al
   Al29       1.0     0.780745     0.756603     0.352257    Uiso  ? Al
   Al30       1.0     0.880974     0.877321     0.113070    Uiso  ? Al
   Al31       1.0     0.448598     0.756831     0.852921    Uiso  ? Al
   Al32       1.0     0.560008     0.864879     0.594483    Uiso  ? Al
   Mg1        1.0     0.778805     0.097271     0.853292    Uiso  ? Mg
   Mg2        1.0     0.887978     0.536974     0.105787    Uiso  ? Mg
   Hf1        1.0     0.444294     0.092806     0.854041    Uiso  ? Hf
   Hf2        1.0     0.112139     0.761304     0.854062    Uiso  ? Hf
   N1         1.0     0.221662     0.205529     0.355295    Uiso  ? N
   N2         1.0     0.111088     0.095813     0.108405    Uiso  ? N
   N3         1.0     0.895792     0.210833     0.853089    Uiso  ? N
   N4         1.0     0.777423     0.094973     0.593606    Uiso  ? N
   N5         1.0     0.553235     0.207596     0.353603    Uiso  ? N
   N6         1.0     0.444306     0.092477     0.112184    Uiso  ? N
   N7         1.0     0.208654     0.213633     0.851865    Uiso  ? N
   N8         1.0     0.111786     0.094774     0.600872    Uiso  ? N
   N9         1.0     0.889560     0.207145     0.356706    Uiso  ? N
   N10        1.0     0.778474     0.094739     0.114940    Uiso  ? N
   N11        1.0     0.549820     0.219250     0.856141    Uiso  ? N
   N12        1.0     0.445145     0.093212     0.596077    Uiso  ? N
   N13        1.0     0.222250     0.539686     0.355188    Uiso  ? N
   N14        1.0     0.124007     0.421368     0.106489    Uiso  ? N
   N15        1.0     0.889181     0.537659     0.845507    Uiso  ? N
   N16        1.0     0.775055     0.427963     0.605246    Uiso  ? N
   N17        1.0     0.554950     0.539203     0.355982    Uiso  ? N
   N18        1.0     0.443953     0.429613     0.107971    Uiso  ? N
   N19        1.0     0.228286     0.525212     0.851801    Uiso  ? N
   N20        1.0     0.112367     0.427356     0.600286    Uiso  ? N
   N21        1.0     0.888356     0.536698     0.362089    Uiso  ? N
   N22        1.0     0.769310     0.421615     0.104090    Uiso  ? N
   N23        1.0     0.552246     0.540504     0.853250    Uiso  ? N
   N24        1.0     0.444648     0.428311     0.601214    Uiso  ? N
   N25        1.0     0.222707     0.873501     0.353859    Uiso  ? N
   N26        1.0     0.112891     0.761497     0.111730    Uiso  ? N
   N27        1.0     0.879738     0.865931     0.851247    Uiso  ? N
   N28        1.0     0.777030     0.760833     0.597707    Uiso  ? N
   N29        1.0     0.554317     0.871072     0.355174    Uiso  ? N
   N30        1.0     0.445336     0.759916     0.107338    Uiso  ? N
   N31        1.0     0.230875     0.883021     0.855531    Uiso  ? N
   N32        1.0     0.113423     0.761806     0.596536    Uiso  ? N
   N33        1.0     0.890493     0.870448     0.355029    Uiso  ? N
   N34        1.0     0.771263     0.772293     0.107926    Uiso  ? N
   N35        1.0     0.564197     0.854574     0.851612    Uiso  ? N
   N36        1.0     0.444501     0.760217     0.601532    Uiso  ? N
