
#======================================================================
# CRYSTAL DATA
#----------------------------------------------------------------------
data_VESTA_phase_1

_chemical_name_common                  'Al   Mg   Hf   N                      '
_cell_length_a                         10.042483
_cell_length_b                         10.057996
_cell_length_c                         8.551495
_cell_angle_alpha                      89.993912
_cell_angle_beta                       90.004333
_cell_angle_gamma                      59.947372
_cell_volume                           747.643676
_space_group_name_H-M_alt              'P 1'
_space_group_IT_number                 1

loop_
_space_group_symop_operation_xyz
   'x, y, z'

loop_
   _atom_site_label
   _atom_site_occupancy
   _atom_site_fract_x
   _atom_site_fract_y
   _atom_site_fract_z
   _atom_site_adp_type
   _atom_site_U_iso_or_equiv
   _atom_site_type_symbol
   Al1        1.0     0.106792     0.097291     0.358796    Uiso  ? Al
   Al2        1.0     0.220214     0.207096     0.121593    Uiso  ? Al
   Al3        1.0     0.887705     0.207633     0.611249    Uiso  ? Al
   Al4        1.0     0.445060     0.094373     0.358874    Uiso  ? Al
   Al5        1.0     0.558242     0.208180     0.113872    Uiso  ? Al
   Al6        1.0     0.107956     0.101234     0.860137    Uiso  ? Al
   Al7        1.0     0.215506     0.209974     0.597603    Uiso  ? Al
   Al8        1.0     0.779903     0.096188     0.355835    Uiso  ? Al
   Al9        1.0     0.886304     0.206462     0.105908    Uiso  ? Al
   Al10       1.0     0.558958     0.208885     0.600363    Uiso  ? Al
   Al11       1.0     0.107207     0.429981     0.356182    Uiso  ? Al
   Al12       1.0     0.226352     0.533242     0.119875    Uiso  ? Al
   Al13       1.0     0.778040     0.427984     0.862138    Uiso  ? Al
   Al14       1.0     0.887648     0.538149     0.603786    Uiso  ? Al
   Al15       1.0     0.445794     0.428965     0.359159    Uiso  ? Al
   Al16       1.0     0.555333     0.537472     0.111522    Uiso  ? Al
   Al17       1.0     0.106444     0.428470     0.863392    Uiso  ? Al
   Al18       1.0     0.224890     0.532641     0.597750    Uiso  ? Al
   Al19       1.0     0.777992     0.426795     0.354714    Uiso  ? Al
   Al20       1.0     0.445383     0.430086     0.859443    Uiso  ? Al
   Al21       1.0     0.556778     0.537761     0.607393    Uiso  ? Al
   Al22       1.0     0.110968     0.762221     0.357774    Uiso  ? Al
   Al23       1.0     0.225282     0.876104     0.117314    Uiso  ? Al
   Al24       1.0     0.779230     0.752861     0.866027    Uiso  ? Al
   Al25       1.0     0.881180     0.874855     0.599401    Uiso  ? Al
   Al26       1.0     0.445522     0.757847     0.359706    Uiso  ? Al
   Al27       1.0     0.556943     0.868744     0.121428    Uiso  ? Al
   Al28       1.0     0.225409     0.876882     0.598046    Uiso  ? Al
   Al29       1.0     0.780836     0.756427     0.355029    Uiso  ? Al
   Al30       1.0     0.881684     0.877127     0.116862    Uiso  ? Al
   Al31       1.0     0.448910     0.756759     0.859112    Uiso  ? Al
   Al32       1.0     0.560767     0.863868     0.597650    Uiso  ? Al
   Mg1        1.0     0.779019     0.096961     0.855722    Uiso  ? Mg
   Mg2        1.0     0.888228     0.536569     0.108487    Uiso  ? Mg
   Hf1        1.0     0.444144     0.092562     0.853290    Uiso  ? Hf
   Hf2        1.0     0.111955     0.761200     0.853387    Uiso  ? Hf
   N1         1.0     0.222118     0.205213     0.353883    Uiso  ? N
   N2         1.0     0.112439     0.095358     0.103609    Uiso  ? N
   N3         1.0     0.895780     0.211098     0.850112    Uiso  ? N
   N4         1.0     0.778170     0.095321     0.591614    Uiso  ? N
   N5         1.0     0.553210     0.207467     0.351797    Uiso  ? N
   N6         1.0     0.444247     0.092651     0.109583    Uiso  ? N
   N7         1.0     0.208098     0.214193     0.844220    Uiso  ? N
   N8         1.0     0.110457     0.095313     0.595184    Uiso  ? N
   N9         1.0     0.889603     0.206943     0.349582    Uiso  ? N
   N10        1.0     0.777774     0.094371     0.113233    Uiso  ? N
   N11        1.0     0.549799     0.219344     0.849868    Uiso  ? N
   N12        1.0     0.445363     0.093022     0.595348    Uiso  ? N
   N13        1.0     0.222308     0.539999     0.353324    Uiso  ? N
   N14        1.0     0.125083     0.420658     0.103251    Uiso  ? N
   N15        1.0     0.889099     0.537689     0.844251    Uiso  ? N
   N16        1.0     0.775322     0.427584     0.599527    Uiso  ? N
   N17        1.0     0.554697     0.539338     0.350260    Uiso  ? N
   N18        1.0     0.443569     0.429309     0.103161    Uiso  ? N
   N19        1.0     0.228196     0.524764     0.845518    Uiso  ? N
   N20        1.0     0.111520     0.428025     0.594932    Uiso  ? N
   N21        1.0     0.888346     0.536649     0.359298    Uiso  ? N
   N22        1.0     0.768998     0.422008     0.100120    Uiso  ? N
   N23        1.0     0.552427     0.540407     0.848447    Uiso  ? N
   N24        1.0     0.444937     0.428715     0.596114    Uiso  ? N
   N25        1.0     0.222599     0.873372     0.351596    Uiso  ? N
   N26        1.0     0.112852     0.761383     0.109274    Uiso  ? N
   N27        1.0     0.879284     0.865517     0.846239    Uiso  ? N
   N28        1.0     0.777696     0.760171     0.592019    Uiso  ? N
   N29        1.0     0.553876     0.871535     0.353470    Uiso  ? N
   N30        1.0     0.445003     0.760756     0.102472    Uiso  ? N
   N31        1.0     0.231037     0.883319     0.848640    Uiso  ? N
   N32        1.0     0.113323     0.761969     0.595713    Uiso  ? N
   N33        1.0     0.890763     0.870613     0.353169    Uiso  ? N
   N34        1.0     0.770611     0.773019     0.105324    Uiso  ? N
   N35        1.0     0.564899     0.853812     0.844623    Uiso  ? N
   N36        1.0     0.444790     0.759471     0.596272    Uiso  ? N
