
#======================================================================
# CRYSTAL DATA
#----------------------------------------------------------------------
data_VESTA_phase_1

_chemical_name_common                  'Al   Mg   Hf   N                      '
_cell_length_a                         9.791229
_cell_length_b                         9.806809
_cell_length_c                         9.321997
_cell_angle_alpha                      89.996223
_cell_angle_beta                       89.992432
_cell_angle_gamma                      59.930119
_cell_volume                           774.637074
_space_group_name_H-M_alt              'P 1'
_space_group_IT_number                 1

loop_
_space_group_symop_operation_xyz
   'x, y, z'

loop_
   _atom_site_label
   _atom_site_occupancy
   _atom_site_fract_x
   _atom_site_fract_y
   _atom_site_fract_z
   _atom_site_adp_type
   _atom_site_U_iso_or_equiv
   _atom_site_type_symbol
   Al1        1.0     0.107007     0.097628     0.334422    Uiso  ? Al
   Al2        1.0     0.214120     0.209978     0.090800    Uiso  ? Al
   Al3        1.0     0.886476     0.207692     0.584105    Uiso  ? Al
   Al4        1.0     0.444062     0.093373     0.326055    Uiso  ? Al
   Al5        1.0     0.559467     0.211494     0.092473    Uiso  ? Al
   Al6        1.0     0.107998     0.101519     0.828124    Uiso  ? Al
   Al7        1.0     0.221838     0.206565     0.575194    Uiso  ? Al
   Al8        1.0     0.780957     0.095285     0.339187    Uiso  ? Al
   Al9        1.0     0.887716     0.206286     0.078064    Uiso  ? Al
   Al10       1.0     0.556579     0.205443     0.573763    Uiso  ? Al
   Al11       1.0     0.109151     0.429252     0.331625    Uiso  ? Al
   Al12       1.0     0.228408     0.529120     0.089577    Uiso  ? Al
   Al13       1.0     0.778948     0.427644     0.834190    Uiso  ? Al
   Al14       1.0     0.887796     0.536733     0.587310    Uiso  ? Al
   Al15       1.0     0.444635     0.430871     0.333849    Uiso  ? Al
   Al16       1.0     0.554956     0.537122     0.080272    Uiso  ? Al
   Al17       1.0     0.105902     0.428258     0.830681    Uiso  ? Al
   Al18       1.0     0.222563     0.537419     0.576755    Uiso  ? Al
   Al19       1.0     0.777048     0.426566     0.327881    Uiso  ? Al
   Al20       1.0     0.446677     0.428221     0.827794    Uiso  ? Al
   Al21       1.0     0.557405     0.537564     0.582305    Uiso  ? Al
   Al22       1.0     0.111157     0.761185     0.327181    Uiso  ? Al
   Al23       1.0     0.226981     0.878420     0.091964    Uiso  ? Al
   Al24       1.0     0.779199     0.752602     0.828726    Uiso  ? Al
   Al25       1.0     0.886238     0.873892     0.576815    Uiso  ? Al
   Al26       1.0     0.446459     0.757304     0.333463    Uiso  ? Al
   Al27       1.0     0.561204     0.862022     0.090744    Uiso  ? Al
   Al28       1.0     0.223260     0.873792     0.575410    Uiso  ? Al
   Al29       1.0     0.779579     0.758366     0.333689    Uiso  ? Al
   Al30       1.0     0.877983     0.877266     0.089645    Uiso  ? Al
   Al31       1.0     0.448799     0.757141     0.829181    Uiso  ? Al
   Al32       1.0     0.556117     0.870845     0.575751    Uiso  ? Al
   Mg1        1.0     0.777247     0.098664     0.833536    Uiso  ? Mg
   Mg2        1.0     0.888033     0.538516     0.086159    Uiso  ? Mg
   Hf1        1.0     0.445480     0.093185     0.851749    Uiso  ? Hf
   Hf2        1.0     0.111554     0.762563     0.852095    Uiso  ? Hf
   N1         1.0     0.223757     0.204364     0.371590    Uiso  ? N
   N2         1.0     0.108401     0.096656     0.131067    Uiso  ? N
   N3         1.0     0.896742     0.210634     0.874078    Uiso  ? N
   N4         1.0     0.776119     0.094236     0.607916    Uiso  ? N
   N5         1.0     0.552116     0.206235     0.367483    Uiso  ? N
   N6         1.0     0.444211     0.091572     0.114988    Uiso  ? N
   N7         1.0     0.205219     0.215603     0.881464    Uiso  ? N
   N8         1.0     0.113690     0.093969     0.621806    Uiso  ? N
   N9         1.0     0.889393     0.208186     0.379221    Uiso  ? N
   N10        1.0     0.780312     0.095247     0.130292    Uiso  ? N
   N11        1.0     0.550379     0.222664     0.886537    Uiso  ? N
   N12        1.0     0.444955     0.094031     0.621804    Uiso  ? N
   N13        1.0     0.221005     0.541903     0.372792    Uiso  ? N
   N14        1.0     0.123381     0.422060     0.130947    Uiso  ? N
   N15        1.0     0.889261     0.537712     0.859696    Uiso  ? N
   N16        1.0     0.775184     0.427497     0.627543    Uiso  ? N
   N17        1.0     0.555938     0.538877     0.379221    Uiso  ? N
   N18        1.0     0.444486     0.431440     0.131139    Uiso  ? N
   N19        1.0     0.230340     0.521429     0.879030    Uiso  ? N
   N20        1.0     0.114707     0.425762     0.622611    Uiso  ? N
   N21        1.0     0.888276     0.536750     0.378039    Uiso  ? N
   N22        1.0     0.768750     0.420666     0.125062    Uiso  ? N
   N23        1.0     0.551538     0.540496     0.873147    Uiso  ? N
   N24        1.0     0.443912     0.426782     0.621642    Uiso  ? N
   N25        1.0     0.221637     0.871968     0.370395    Uiso  ? N
   N26        1.0     0.113139     0.761630     0.114437    Uiso  ? N
   N27        1.0     0.875330     0.867230     0.881592    Uiso  ? N
   N28        1.0     0.775860     0.763216     0.620583    Uiso  ? N
   N29        1.0     0.553039     0.873326     0.372461    Uiso  ? N
   N30        1.0     0.446258     0.757356     0.129797    Uiso  ? N
   N31        1.0     0.233343     0.885804     0.882065    Uiso  ? N
   N32        1.0     0.112329     0.761785     0.622684    Uiso  ? N
   N33        1.0     0.892894     0.869261     0.371674    Uiso  ? N
   N34        1.0     0.771759     0.771873     0.133960    Uiso  ? N
   N35        1.0     0.566570     0.850047     0.881575    Uiso  ? N
   N36        1.0     0.443655     0.762162     0.623209    Uiso  ? N
