
#======================================================================
# CRYSTAL DATA
#----------------------------------------------------------------------
data_VESTA_phase_1

_chemical_name_common                  'Al   Mg   Hf   N                      '
_cell_length_a                         9.833728
_cell_length_b                         9.849786
_cell_length_c                         9.182240
_cell_angle_alpha                      89.992813
_cell_angle_beta                       90.014786
_cell_angle_gamma                      59.946640
_cell_volume                           769.822260
_space_group_name_H-M_alt              'P 1'
_space_group_IT_number                 1

loop_
_space_group_symop_operation_xyz
   'x, y, z'

loop_
   _atom_site_label
   _atom_site_occupancy
   _atom_site_fract_x
   _atom_site_fract_y
   _atom_site_fract_z
   _atom_site_adp_type
   _atom_site_U_iso_or_equiv
   _atom_site_type_symbol
   Al1        1.0     0.107318     0.096770     0.371922    Uiso  ? Al
   Al2        1.0     0.223165     0.206237     0.133483    Uiso  ? Al
   Al3        1.0     0.888935     0.206965     0.626760    Uiso  ? Al
   Al4        1.0     0.444880     0.094159     0.379291    Uiso  ? Al
   Al5        1.0     0.556668     0.206093     0.130114    Uiso  ? Al
   Al6        1.0     0.107543     0.102400     0.878181    Uiso  ? Al
   Al7        1.0     0.212998     0.210728     0.613118    Uiso  ? Al
   Al8        1.0     0.779551     0.096340     0.366575    Uiso  ? Al
   Al9        1.0     0.885359     0.207326     0.123638    Uiso  ? Al
   Al10       1.0     0.559518     0.210999     0.616738    Uiso  ? Al
   Al11       1.0     0.106786     0.430320     0.371025    Uiso  ? Al
   Al12       1.0     0.224554     0.535878     0.131903    Uiso  ? Al
   Al13       1.0     0.777743     0.426731     0.875980    Uiso  ? Al
   Al14       1.0     0.887871     0.538644     0.617926    Uiso  ? Al
   Al15       1.0     0.445595     0.429446     0.373016    Uiso  ? Al
   Al16       1.0     0.556504     0.536699     0.125782    Uiso  ? Al
   Al17       1.0     0.107502     0.427446     0.879090    Uiso  ? Al
   Al18       1.0     0.226434     0.530676     0.613934    Uiso  ? Al
   Al19       1.0     0.778047     0.427611     0.373726    Uiso  ? Al
   Al20       1.0     0.445750     0.429466     0.878100    Uiso  ? Al
   Al21       1.0     0.555656     0.538294     0.624518    Uiso  ? Al
   Al22       1.0     0.111723     0.761815     0.378031    Uiso  ? Al
   Al23       1.0     0.223504     0.874224     0.130036    Uiso  ? Al
   Al24       1.0     0.778496     0.753982     0.881358    Uiso  ? Al
   Al25       1.0     0.879677     0.875209     0.613483    Uiso  ? Al
   Al26       1.0     0.445439     0.757791     0.373045    Uiso  ? Al
   Al27       1.0     0.555680     0.872126     0.132982    Uiso  ? Al
   Al28       1.0     0.226856     0.878306     0.615408    Uiso  ? Al
   Al29       1.0     0.780641     0.755795     0.368700    Uiso  ? Al
   Al30       1.0     0.884698     0.875595     0.131890    Uiso  ? Al
   Al31       1.0     0.449609     0.756667     0.877058    Uiso  ? Al
   Al32       1.0     0.561953     0.860938     0.613425    Uiso  ? Al
   Mg1        1.0     0.778851     0.097364     0.871494    Uiso  ? Mg
   Mg2        1.0     0.888134     0.536042     0.119291    Uiso  ? Mg
   Hf1        1.0     0.444591     0.092476     0.856187    Uiso  ? Hf
   Hf2        1.0     0.111158     0.761869     0.855563    Uiso  ? Hf
   N1         1.0     0.223848     0.204596     0.342257    Uiso  ? N
   N2         1.0     0.113302     0.094923     0.089170    Uiso  ? N
   N3         1.0     0.896804     0.211046     0.833389    Uiso  ? N
   N4         1.0     0.779058     0.096122     0.579988    Uiso  ? N
   N5         1.0     0.552112     0.206665     0.340707    Uiso  ? N
   N6         1.0     0.444247     0.093272     0.090138    Uiso  ? N
   N7         1.0     0.205130     0.215830     0.825914    Uiso  ? N
   N8         1.0     0.109040     0.095811     0.578618    Uiso  ? N
   N9         1.0     0.889391     0.207844     0.333628    Uiso  ? N
   N10        1.0     0.777157     0.093741     0.103213    Uiso  ? N
   N11        1.0     0.550157     0.221730     0.827203    Uiso  ? N
   N12        1.0     0.445274     0.092376     0.593747    Uiso  ? N
   N13        1.0     0.221520     0.541311     0.341172    Uiso  ? N
   N14        1.0     0.127640     0.419319     0.087316    Uiso  ? N
   N15        1.0     0.889137     0.537906     0.835260    Uiso  ? N
   N16        1.0     0.775236     0.427615     0.585071    Uiso  ? N
   N17        1.0     0.555369     0.538972     0.333706    Uiso  ? N
   N18        1.0     0.443131     0.428405     0.088468    Uiso  ? N
   N19        1.0     0.229593     0.521894     0.827841    Uiso  ? N
   N20        1.0     0.110363     0.428796     0.580031    Uiso  ? N
   N21        1.0     0.888201     0.536545     0.345613    Uiso  ? N
   N22        1.0     0.768438     0.420985     0.082032    Uiso  ? N
   N23        1.0     0.551635     0.540667     0.833960    Uiso  ? N
   N24        1.0     0.445438     0.429904     0.579595    Uiso  ? N
   N25        1.0     0.221808     0.872279     0.338799    Uiso  ? N
   N26        1.0     0.111878     0.761456     0.089866    Uiso  ? N
   N27        1.0     0.876109     0.865951     0.825406    Uiso  ? N
   N28        1.0     0.778255     0.758837     0.576977    Uiso  ? N
   N29        1.0     0.553189     0.873390     0.341393    Uiso  ? N
   N30        1.0     0.444382     0.761892     0.087698    Uiso  ? N
   N31        1.0     0.232810     0.885420     0.829695    Uiso  ? N
   N32        1.0     0.113710     0.761926     0.593835    Uiso  ? N
   N33        1.0     0.892178     0.869732     0.342754    Uiso  ? N
   N34        1.0     0.769660     0.775616     0.089959    Uiso  ? N
   N35        1.0     0.566831     0.850050     0.826204    Uiso  ? N
   N36        1.0     0.445457     0.757965     0.580052    Uiso  ? N
