
#======================================================================
# CRYSTAL DATA
#----------------------------------------------------------------------
data_VESTA_phase_1

_chemical_name_common                  'Al   Mg   Hf   N                      '
_cell_length_a                         9.512218
_cell_length_b                         9.524348
_cell_length_c                         10.105117
_cell_angle_alpha                      89.989464
_cell_angle_beta                       90.030403
_cell_angle_gamma                      59.932690
_cell_volume                           792.307869
_space_group_name_H-M_alt              'P 1'
_space_group_IT_number                 1

loop_
_space_group_symop_operation_xyz
   'x, y, z'

loop_
   _atom_site_label
   _atom_site_occupancy
   _atom_site_fract_x
   _atom_site_fract_y
   _atom_site_fract_z
   _atom_site_adp_type
   _atom_site_U_iso_or_equiv
   _atom_site_type_symbol
   Al1        1.0     0.109428     0.096145     0.387649    Uiso  ? Al
   Al2        1.0     0.219378     0.208649     0.143328    Uiso  ? Al
   Al3        1.0     0.889235     0.206589     0.637768    Uiso  ? Al
   Al4        1.0     0.444050     0.094123     0.389988    Uiso  ? Al
   Al5        1.0     0.558047     0.206993     0.145944    Uiso  ? Al
   Al6        1.0     0.105330     0.103057     0.888841    Uiso  ? Al
   Al7        1.0     0.217649     0.207765     0.632728    Uiso  ? Al
   Al8        1.0     0.778832     0.095277     0.386477    Uiso  ? Al
   Al9        1.0     0.885405     0.207417     0.140267    Uiso  ? Al
   Al10       1.0     0.557247     0.208926     0.632077    Uiso  ? Al
   Al11       1.0     0.107750     0.429501     0.389479    Uiso  ? Al
   Al12       1.0     0.224370     0.533810     0.142488    Uiso  ? Al
   Al13       1.0     0.778540     0.424964     0.887859    Uiso  ? Al
   Al14       1.0     0.888165     0.538277     0.637257    Uiso  ? Al
   Al15       1.0     0.444492     0.429448     0.387964    Uiso  ? Al
   Al16       1.0     0.557762     0.535902     0.137717    Uiso  ? Al
   Al17       1.0     0.107437     0.427076     0.889369    Uiso  ? Al
   Al18       1.0     0.225175     0.533899     0.633238    Uiso  ? Al
   Al19       1.0     0.778322     0.428886     0.389668    Uiso  ? Al
   Al20       1.0     0.448222     0.427858     0.889999    Uiso  ? Al
   Al21       1.0     0.555474     0.538391     0.637548    Uiso  ? Al
   Al22       1.0     0.111230     0.760761     0.390047    Uiso  ? Al
   Al23       1.0     0.223149     0.874587     0.142839    Uiso  ? Al
   Al24       1.0     0.778655     0.754792     0.889359    Uiso  ? Al
   Al25       1.0     0.883328     0.874154     0.632261    Uiso  ? Al
   Al26       1.0     0.445629     0.758895     0.387114    Uiso  ? Al
   Al27       1.0     0.558373     0.869530     0.143421    Uiso  ? Al
   Al28       1.0     0.225296     0.875966     0.632176    Uiso  ? Al
   Al29       1.0     0.779620     0.756916     0.389522    Uiso  ? Al
   Al30       1.0     0.882196     0.875702     0.145080    Uiso  ? Al
   Al31       1.0     0.450489     0.755229     0.889343    Uiso  ? Al
   Al32       1.0     0.558703     0.865662     0.631837    Uiso  ? Al
   Mg1        1.0     0.778195     0.100594     0.891585    Uiso  ? Mg
   Mg2        1.0     0.887933     0.537939     0.136451    Uiso  ? Mg
   Hf1        1.0     0.446738     0.092437     0.884508    Uiso  ? Hf
   Hf2        1.0     0.110013     0.763116     0.882041    Uiso  ? Hf
   N1         1.0     0.221775     0.206160     0.332841    Uiso  ? N
   N2         1.0     0.111593     0.094782     0.080418    Uiso  ? N
   N3         1.0     0.896441     0.211502     0.823343    Uiso  ? N
   N4         1.0     0.778629     0.095369     0.577059    Uiso  ? N
   N5         1.0     0.553347     0.206950     0.335279    Uiso  ? N
   N6         1.0     0.444144     0.094534     0.091572    Uiso  ? N
   N7         1.0     0.208826     0.213168     0.822560    Uiso  ? N
   N8         1.0     0.110853     0.095048     0.575880    Uiso  ? N
   N9         1.0     0.889255     0.207246     0.331277    Uiso  ? N
   N10        1.0     0.777407     0.094093     0.095952    Uiso  ? N
   N11        1.0     0.549756     0.220626     0.819187    Uiso  ? N
   N12        1.0     0.444754     0.092913     0.584143    Uiso  ? N
   N13        1.0     0.221764     0.538950     0.332506    Uiso  ? N
   N14        1.0     0.127023     0.419586     0.075077    Uiso  ? N
   N15        1.0     0.888948     0.537586     0.829841    Uiso  ? N
   N16        1.0     0.775799     0.428297     0.580482    Uiso  ? N
   N17        1.0     0.555605     0.538650     0.328362    Uiso  ? N
   N18        1.0     0.443700     0.427857     0.080733    Uiso  ? N
   N19        1.0     0.229719     0.523731     0.824017    Uiso  ? N
   N20        1.0     0.111172     0.427970     0.579419    Uiso  ? N
   N21        1.0     0.888649     0.538153     0.340730    Uiso  ? N
   N22        1.0     0.769936     0.419659     0.073969    Uiso  ? N
   N23        1.0     0.553249     0.539628     0.828104    Uiso  ? N
   N24        1.0     0.444502     0.429815     0.576264    Uiso  ? N
   N25        1.0     0.222057     0.872537     0.331933    Uiso  ? N
   N26        1.0     0.110405     0.761491     0.089367    Uiso  ? N
   N27        1.0     0.876947     0.867699     0.819453    Uiso  ? N
   N28        1.0     0.777772     0.759631     0.577983    Uiso  ? N
   N29        1.0     0.555492     0.871686     0.332764    Uiso  ? N
   N30        1.0     0.443996     0.761674     0.080032    Uiso  ? N
   N31        1.0     0.232291     0.883559     0.824131    Uiso  ? N
   N32        1.0     0.112618     0.761364     0.585301    Uiso  ? N
   N33        1.0     0.889375     0.870286     0.335419    Uiso  ? N
   N34        1.0     0.769213     0.776920     0.075407    Uiso  ? N
   N35        1.0     0.564326     0.852922     0.821358    Uiso  ? N
   N36        1.0     0.445179     0.758992     0.576247    Uiso  ? N
