
#======================================================================
# CRYSTAL DATA
#----------------------------------------------------------------------
data_VESTA_phase_1

_chemical_name_common                  'Al   Mg   Hf   N                      '
_cell_length_a                         9.510687
_cell_length_b                         9.522756
_cell_length_c                         10.109138
_cell_angle_alpha                      89.988922
_cell_angle_beta                       90.030930
_cell_angle_gamma                      59.932556
_cell_volume                           792.361896
_space_group_name_H-M_alt              'P 1'
_space_group_IT_number                 1

loop_
_space_group_symop_operation_xyz
   'x, y, z'

loop_
   _atom_site_label
   _atom_site_occupancy
   _atom_site_fract_x
   _atom_site_fract_y
   _atom_site_fract_z
   _atom_site_adp_type
   _atom_site_U_iso_or_equiv
   _atom_site_type_symbol
   Al1        1.0     0.109408     0.096145     0.399014    Uiso  ? Al
   Al2        1.0     0.219313     0.208674     0.154680    Uiso  ? Al
   Al3        1.0     0.889220     0.206594     0.649110    Uiso  ? Al
   Al4        1.0     0.444026     0.094130     0.401257    Uiso  ? Al
   Al5        1.0     0.558046     0.207018     0.157321    Uiso  ? Al
   Al6        1.0     0.105321     0.103035     0.900148    Uiso  ? Al
   Al7        1.0     0.217692     0.207725     0.644069    Uiso  ? Al
   Al8        1.0     0.778813     0.095283     0.397864    Uiso  ? Al
   Al9        1.0     0.885394     0.207419     0.151597    Uiso  ? Al
   Al10       1.0     0.557203     0.208897     0.643414    Uiso  ? Al
   Al11       1.0     0.107736     0.429494     0.400854    Uiso  ? Al
   Al12       1.0     0.224371     0.533771     0.153840    Uiso  ? Al
   Al13       1.0     0.778539     0.424969     0.899200    Uiso  ? Al
   Al14       1.0     0.888148     0.538276     0.648598    Uiso  ? Al
   Al15       1.0     0.444480     0.429450     0.399328    Uiso  ? Al
   Al16       1.0     0.557747     0.535909     0.149039    Uiso  ? Al
   Al17       1.0     0.107431     0.427065     0.900670    Uiso  ? Al
   Al18       1.0     0.225136     0.533945     0.644573    Uiso  ? Al
   Al19       1.0     0.778306     0.428888     0.401002    Uiso  ? Al
   Al20       1.0     0.448219     0.427847     0.901306    Uiso  ? Al
   Al21       1.0     0.555469     0.538386     0.648886    Uiso  ? Al
   Al22       1.0     0.111206     0.760754     0.401317    Uiso  ? Al
   Al23       1.0     0.223143     0.874597     0.154204    Uiso  ? Al
   Al24       1.0     0.778637     0.754810     0.900656    Uiso  ? Al
   Al25       1.0     0.883369     0.874129     0.643606    Uiso  ? Al
   Al26       1.0     0.445614     0.758895     0.398475    Uiso  ? Al
   Al27       1.0     0.558369     0.869503     0.154775    Uiso  ? Al
   Al28       1.0     0.225246     0.875924     0.643504    Uiso  ? Al
   Al29       1.0     0.779588     0.756932     0.400907    Uiso  ? Al
   Al30       1.0     0.882139     0.875725     0.156445    Uiso  ? Al
   Al31       1.0     0.450467     0.755232     0.900652    Uiso  ? Al
   Al32       1.0     0.558645     0.865731     0.643176    Uiso  ? Al
   Mg1        1.0     0.778180     0.100602     0.902919    Uiso  ? Mg
   Mg2        1.0     0.887920     0.537969     0.147813    Uiso  ? Mg
   Hf1        1.0     0.446731     0.092443     0.896031    Uiso  ? Hf
   Hf2        1.0     0.109994     0.763099     0.893556    Uiso  ? Hf
   N1         1.0     0.221715     0.206181     0.344121    Uiso  ? N
   N2         1.0     0.111577     0.094772     0.091676    Uiso  ? N
   N3         1.0     0.896423     0.211516     0.834620    Uiso  ? N
   N4         1.0     0.778612     0.095367     0.588374    Uiso  ? N
   N5         1.0     0.553352     0.206967     0.346575    Uiso  ? N
   N6         1.0     0.444119     0.094552     0.103012    Uiso  ? N
   N7         1.0     0.208883     0.213113     0.833849    Uiso  ? N
   N8         1.0     0.110842     0.095037     0.587189    Uiso  ? N
   N9         1.0     0.889238     0.207239     0.342559    Uiso  ? N
   N10        1.0     0.777385     0.094105     0.107215    Uiso  ? N
   N11        1.0     0.549714     0.220587     0.830466    Uiso  ? N
   N12        1.0     0.444732     0.092924     0.595317    Uiso  ? N
   N13        1.0     0.221764     0.538907     0.343786    Uiso  ? N
   N14        1.0     0.127003     0.419587     0.086317    Uiso  ? N
   N15        1.0     0.888931     0.537592     0.841111    Uiso  ? N
   N16        1.0     0.775789     0.428296     0.591756    Uiso  ? N
   N17        1.0     0.555582     0.538655     0.339640    Uiso  ? N
   N18        1.0     0.443687     0.427858     0.091992    Uiso  ? N
   N19        1.0     0.229692     0.523774     0.835295    Uiso  ? N
   N20        1.0     0.111163     0.427960     0.590733    Uiso  ? N
   N21        1.0     0.888632     0.538172     0.352034    Uiso  ? N
   N22        1.0     0.769935     0.419673     0.085250    Uiso  ? N
   N23        1.0     0.553260     0.539616     0.839385    Uiso  ? N
   N24        1.0     0.444485     0.429813     0.587571    Uiso  ? N
   N25        1.0     0.222052     0.872549     0.343222    Uiso  ? N
   N26        1.0     0.110377     0.761487     0.100794    Uiso  ? N
   N27        1.0     0.877001     0.867677     0.830733    Uiso  ? N
   N28        1.0     0.777745     0.759648     0.589305    Uiso  ? N
   N29        1.0     0.555490     0.871658     0.344046    Uiso  ? N
   N30        1.0     0.443970     0.761685     0.091290    Uiso  ? N
   N31        1.0     0.232237     0.883503     0.835407    Uiso  ? N
   N32        1.0     0.112592     0.761352     0.596470    Uiso  ? N
   N33        1.0     0.889311     0.870313     0.346706    Uiso  ? N
   N34        1.0     0.769181     0.776945     0.086642    Uiso  ? N
   N35        1.0     0.564261     0.853004     0.832644    Uiso  ? N
   N36        1.0     0.445157     0.758999     0.587553    Uiso  ? N
