
#======================================================================
# CRYSTAL DATA
#----------------------------------------------------------------------
data_VESTA_phase_1

_chemical_name_common                  'Al   Mg   Hf   N '
_cell_length_a                         9.513884
_cell_length_b                         9.526384
_cell_length_c                         10.103402
_cell_angle_alpha                      89.982368
_cell_angle_beta                       89.967667
_cell_angle_gamma                      59.947189
_cell_volume                           792.597643
_space_group_name_H-M_alt              'P 1'
_space_group_IT_number                 1

loop_
_space_group_symop_operation_xyz
   'x, y, z'

loop_
   _atom_site_label
   _atom_site_occupancy
   _atom_site_fract_x
   _atom_site_fract_y
   _atom_site_fract_z
   _atom_site_adp_type
   _atom_site_U_iso_or_equiv
   _atom_site_type_symbol
   Al1        1.0     0.109596     0.095839     0.295526    Uiso  ? Al
   Al2        1.0     0.217218     0.209634     0.052077    Uiso  ? Al
   Al3        1.0     0.887402     0.205566     0.542996    Uiso  ? Al
   Al4        1.0     0.443941     0.093779     0.291806    Uiso  ? Al
   Al5        1.0     0.557385     0.209415     0.053017    Uiso  ? Al
   Al6        1.0     0.105100     0.103495     0.795957    Uiso  ? Al
   Al7        1.0     0.219768     0.206571     0.540254    Uiso  ? Al
   Al8        1.0     0.779451     0.094884     0.295781    Uiso  ? Al
   Al9        1.0     0.887125     0.208360     0.046719    Uiso  ? Al
   Al10       1.0     0.558101     0.206501     0.537741    Uiso  ? Al
   Al11       1.0     0.110818     0.428042     0.295481    Uiso  ? Al
   Al12       1.0     0.225804     0.531733     0.051284    Uiso  ? Al
   Al13       1.0     0.779926     0.426551     0.794971    Uiso  ? Al
   Al14       1.0     0.887965     0.537807     0.546237    Uiso  ? Al
   Al15       1.0     0.444335     0.429798     0.294903    Uiso  ? Al
   Al16       1.0     0.556973     0.536534     0.047327    Uiso  ? Al
   Al17       1.0     0.104995     0.428429     0.792759    Uiso  ? Al
   Al18       1.0     0.223885     0.536155     0.540866    Uiso  ? Al
   Al19       1.0     0.776893     0.427276     0.294632    Uiso  ? Al
   Al20       1.0     0.448395     0.427657     0.795171    Uiso  ? Al
   Al21       1.0     0.556315     0.537778     0.545316    Uiso  ? Al
   Al22       1.0     0.111424     0.760867     0.292195    Uiso  ? Al
   Al23       1.0     0.225624     0.876478     0.051841    Uiso  ? Al
   Al24       1.0     0.779752     0.752511     0.792843    Uiso  ? Al
   Al25       1.0     0.884769     0.875251     0.538502    Uiso  ? Al
   Al26       1.0     0.445452     0.759016     0.296054    Uiso  ? Al
   Al27       1.0     0.560504     0.865264     0.052870    Uiso  ? Al
   Al28       1.0     0.223132     0.874342     0.541225    Uiso  ? Al
   Al29       1.0     0.778286     0.759965     0.295717    Uiso  ? Al
   Al30       1.0     0.880961     0.874774     0.051880    Uiso  ? Al
   Al31       1.0     0.450718     0.755176     0.795420    Uiso  ? Al
   Al32       1.0     0.556637     0.869596     0.540290    Uiso  ? Al
   Mg1        1.0     0.777912     0.100682     0.794557    Uiso  ? Mg
   Mg2        1.0     0.888367     0.538180     0.046073    Uiso  ? Mg
   Hf1        1.0     0.446566     0.092746     0.803679    Uiso  ? Hf
   Hf2        1.0     0.110067     0.763237     0.804764    Uiso  ? Hf
   N1         1.0     0.222769     0.204362     0.352677    Uiso  ? N
   N2         1.0     0.110559     0.095424     0.107411    Uiso  ? N
   N3         1.0     0.895370     0.213065     0.859122    Uiso  ? N
   N4         1.0     0.776972     0.094193     0.589917    Uiso  ? N
   N5         1.0     0.553489     0.206522     0.348417    Uiso  ? N
   N6         1.0     0.444315     0.092520     0.097714    Uiso  ? N
   N7         1.0     0.207299     0.215351     0.859940    Uiso  ? N
   N8         1.0     0.111715     0.094537     0.604208    Uiso  ? N
   N9         1.0     0.890237     0.205704     0.354208    Uiso  ? N
   N10        1.0     0.779311     0.094842     0.106072    Uiso  ? N
   N11        1.0     0.550064     0.221149     0.865708    Uiso  ? N
   N12        1.0     0.444780     0.094728     0.595606    Uiso  ? N
   N13        1.0     0.222220     0.540267     0.352903    Uiso  ? N
   N14        1.0     0.124040     0.421571     0.110967    Uiso  ? N
   N15        1.0     0.888934     0.537429     0.839668    Uiso  ? N
   N16        1.0     0.776613     0.426339     0.603026    Uiso  ? N
   N17        1.0     0.554333     0.539510     0.356908    Uiso  ? N
   N18        1.0     0.443971     0.430587     0.107198    Uiso  ? N
   N19        1.0     0.229397     0.522389     0.857868    Uiso  ? N
   N20        1.0     0.113645     0.426312     0.601551    Uiso  ? N
   N21        1.0     0.888730     0.538110     0.355660    Uiso  ? N
   N22        1.0     0.769279     0.421529     0.109435    Uiso  ? N
   N23        1.0     0.554619     0.538785     0.854159    Uiso  ? N
   N24        1.0     0.444165     0.427037     0.603833    Uiso  ? N
   N25        1.0     0.222001     0.872313     0.352037    Uiso  ? N
   N26        1.0     0.112545     0.761451     0.096437    Uiso  ? N
   N27        1.0     0.875402     0.867414     0.862586    Uiso  ? N
   N28        1.0     0.776353     0.763025     0.601045    Uiso  ? N
   N29        1.0     0.553806     0.872552     0.352873    Uiso  ? N
   N30        1.0     0.445388     0.758917     0.107062    Uiso  ? N
   N31        1.0     0.232823     0.884304     0.859812    Uiso  ? N
   N32        1.0     0.110680     0.761505     0.596938    Uiso  ? N
   N33        1.0     0.890940     0.870741     0.350302    Uiso  ? N
   N34        1.0     0.771497     0.772363     0.112371    Uiso  ? N
   N35        1.0     0.566225     0.851642     0.861058    Uiso  ? N
   N36        1.0     0.443952     0.761624     0.604573    Uiso  ? N
