
#======================================================================
# CRYSTAL DATA
#----------------------------------------------------------------------
data_VESTA_phase_1

_chemical_name_common                  'Al   Mg   Hf   N                      '
_cell_length_a                         9.510679
_cell_length_b                         9.522743
_cell_length_c                         10.109165
_cell_angle_alpha                      89.988876
_cell_angle_beta                       90.030838
_cell_angle_gamma                      59.932590
_cell_volume                           792.362672
_space_group_name_H-M_alt              'P 1'
_space_group_IT_number                 1

loop_
_space_group_symop_operation_xyz
   'x, y, z'

loop_
   _atom_site_label
   _atom_site_occupancy
   _atom_site_fract_x
   _atom_site_fract_y
   _atom_site_fract_z
   _atom_site_adp_type
   _atom_site_U_iso_or_equiv
   _atom_site_type_symbol
   Al1        1.0     0.109392     0.096146     0.408972    Uiso  ? Al
   Al2        1.0     0.219297     0.208675     0.164638    Uiso  ? Al
   Al3        1.0     0.889205     0.206595     0.659067    Uiso  ? Al
   Al4        1.0     0.444011     0.094132     0.411210    Uiso  ? Al
   Al5        1.0     0.558032     0.207019     0.167277    Uiso  ? Al
   Al6        1.0     0.105307     0.103035     0.910102    Uiso  ? Al
   Al7        1.0     0.217678     0.207725     0.654023    Uiso  ? Al
   Al8        1.0     0.778798     0.095285     0.407822    Uiso  ? Al
   Al9        1.0     0.885379     0.207420     0.161551    Uiso  ? Al
   Al10       1.0     0.557188     0.208897     0.653367    Uiso  ? Al
   Al11       1.0     0.107721     0.429495     0.410809    Uiso  ? Al
   Al12       1.0     0.224357     0.533771     0.163798    Uiso  ? Al
   Al13       1.0     0.778524     0.424971     0.909158    Uiso  ? Al
   Al14       1.0     0.888133     0.538277     0.658552    Uiso  ? Al
   Al15       1.0     0.444465     0.429451     0.409284    Uiso  ? Al
   Al16       1.0     0.557732     0.535911     0.158993    Uiso  ? Al
   Al17       1.0     0.107417     0.427065     0.910624    Uiso  ? Al
   Al18       1.0     0.225121     0.533947     0.654528    Uiso  ? Al
   Al19       1.0     0.778291     0.428889     0.410955    Uiso  ? Al
   Al20       1.0     0.448204     0.427847     0.911259    Uiso  ? Al
   Al21       1.0     0.555456     0.538387     0.658841    Uiso  ? Al
   Al22       1.0     0.111191     0.760755     0.411271    Uiso  ? Al
   Al23       1.0     0.223128     0.874599     0.164162    Uiso  ? Al
   Al24       1.0     0.778622     0.754812     0.910609    Uiso  ? Al
   Al25       1.0     0.883356     0.874128     0.653559    Uiso  ? Al
   Al26       1.0     0.445600     0.758896     0.408433    Uiso  ? Al
   Al27       1.0     0.558355     0.869503     0.164733    Uiso  ? Al
   Al28       1.0     0.225230     0.875924     0.653459    Uiso  ? Al
   Al29       1.0     0.779574     0.756933     0.410861    Uiso  ? Al
   Al30       1.0     0.882123     0.875728     0.166402    Uiso  ? Al
   Al31       1.0     0.450452     0.755233     0.910605    Uiso  ? Al
   Al32       1.0     0.558630     0.865734     0.653129    Uiso  ? Al
   Mg1        1.0     0.778165     0.100602     0.912874    Uiso  ? Mg
   Mg2        1.0     0.887906     0.537971     0.157768    Uiso  ? Mg
   Hf1        1.0     0.446717     0.092444     0.905990    Uiso  ? Hf
   Hf2        1.0     0.109979     0.763100     0.903516    Uiso  ? Hf
   N1         1.0     0.221700     0.206182     0.354077    Uiso  ? N
   N2         1.0     0.111563     0.094773     0.101630    Uiso  ? N
   N3         1.0     0.896408     0.211518     0.844577    Uiso  ? N
   N4         1.0     0.778598     0.095368     0.598331    Uiso  ? N
   N5         1.0     0.553338     0.206969     0.356530    Uiso  ? N
   N6         1.0     0.444104     0.094553     0.112971    Uiso  ? N
   N7         1.0     0.208871     0.213112     0.843803    Uiso  ? N
   N8         1.0     0.110827     0.095038     0.597146    Uiso  ? N
   N9         1.0     0.889224     0.207240     0.352514    Uiso  ? N
   N10        1.0     0.777370     0.094106     0.117169    Uiso  ? N
   N11        1.0     0.549698     0.220587     0.840420    Uiso  ? N
   N12        1.0     0.444717     0.092925     0.605268    Uiso  ? N
   N13        1.0     0.221750     0.538907     0.353742    Uiso  ? N
   N14        1.0     0.126989     0.419588     0.096272    Uiso  ? N
   N15        1.0     0.888917     0.537593     0.851065    Uiso  ? N
   N16        1.0     0.775775     0.428296     0.601710    Uiso  ? N
   N17        1.0     0.555567     0.538657     0.349594    Uiso  ? N
   N18        1.0     0.443672     0.427859     0.101945    Uiso  ? N
   N19        1.0     0.229676     0.523776     0.845250    Uiso  ? N
   N20        1.0     0.111148     0.427960     0.600687    Uiso  ? N
   N21        1.0     0.888618     0.538173     0.361988    Uiso  ? N
   N22        1.0     0.769921     0.419675     0.095206    Uiso  ? N
   N23        1.0     0.553246     0.539617     0.849340    Uiso  ? N
   N24        1.0     0.444470     0.429814     0.597526    Uiso  ? N
   N25        1.0     0.222038     0.872551     0.353180    Uiso  ? N
   N26        1.0     0.110362     0.761488     0.110754    Uiso  ? N
   N27        1.0     0.876989     0.867677     0.840686    Uiso  ? N
   N28        1.0     0.777731     0.759648     0.599258    Uiso  ? N
   N29        1.0     0.555475     0.871658     0.354002    Uiso  ? N
   N30        1.0     0.443954     0.761687     0.101244    Uiso  ? N
   N31        1.0     0.232221     0.883502     0.845362    Uiso  ? N
   N32        1.0     0.112578     0.761352     0.606422    Uiso  ? N
   N33        1.0     0.889295     0.870315     0.356661    Uiso  ? N
   N34        1.0     0.769165     0.776948     0.096596    Uiso  ? N
   N35        1.0     0.564245     0.853007     0.842596    Uiso  ? N
   N36        1.0     0.445143     0.759000     0.597510    Uiso  ? N
