
#======================================================================
# CRYSTAL DATA
#----------------------------------------------------------------------
data_VESTA_phase_1

_chemical_name_common                  'Al   Mg   Hf   N                      '
_cell_length_a                         9.515179
_cell_length_b                         9.527828
_cell_length_c                         10.104091
_cell_angle_alpha                      89.982170
_cell_angle_beta                       89.967430
_cell_angle_gamma                      59.946327
_cell_volume                           792.872809
_space_group_name_H-M_alt              'P 1'
_space_group_IT_number                 1

loop_
_space_group_symop_operation_xyz
   'x, y, z'

loop_
   _atom_site_label
   _atom_site_occupancy
   _atom_site_fract_x
   _atom_site_fract_y
   _atom_site_fract_z
   _atom_site_adp_type
   _atom_site_U_iso_or_equiv
   _atom_site_type_symbol
   Al1        1.0     0.109581     0.095836     0.305270    Uiso  ? Al
   Al2        1.0     0.217227     0.209638     0.061824    Uiso  ? Al
   Al3        1.0     0.887386     0.205554     0.552741    Uiso  ? Al
   Al4        1.0     0.443931     0.093756     0.301548    Uiso  ? Al
   Al5        1.0     0.557358     0.209438     0.062766    Uiso  ? Al
   Al6        1.0     0.105100     0.103510     0.805705    Uiso  ? Al
   Al7        1.0     0.219763     0.206565     0.550005    Uiso  ? Al
   Al8        1.0     0.779420     0.094889     0.305526    Uiso  ? Al
   Al9        1.0     0.887117     0.208362     0.056459    Uiso  ? Al
   Al10       1.0     0.558069     0.206503     0.547482    Uiso  ? Al
   Al11       1.0     0.110825     0.428028     0.305231    Uiso  ? Al
   Al12       1.0     0.225785     0.531768     0.061030    Uiso  ? Al
   Al13       1.0     0.779932     0.426549     0.804713    Uiso  ? Al
   Al14       1.0     0.887961     0.537792     0.555974    Uiso  ? Al
   Al15       1.0     0.444305     0.429805     0.304648    Uiso  ? Al
   Al16       1.0     0.556968     0.536527     0.057058    Uiso  ? Al
   Al17       1.0     0.104992     0.428442     0.802513    Uiso  ? Al
   Al18       1.0     0.223854     0.536168     0.550615    Uiso  ? Al
   Al19       1.0     0.776876     0.427255     0.304374    Uiso  ? Al
   Al20       1.0     0.448355     0.427678     0.804914    Uiso  ? Al
   Al21       1.0     0.556302     0.537764     0.555065    Uiso  ? Al
   Al22       1.0     0.111391     0.760881     0.301952    Uiso  ? Al
   Al23       1.0     0.225616     0.876489     0.061585    Uiso  ? Al
   Al24       1.0     0.779753     0.752491     0.802602    Uiso  ? Al
   Al25       1.0     0.884727     0.875263     0.548246    Uiso  ? Al
   Al26       1.0     0.445441     0.758996     0.305796    Uiso  ? Al
   Al27       1.0     0.560508     0.865249     0.062614    Uiso  ? Al
   Al28       1.0     0.223116     0.874348     0.550965    Uiso  ? Al
   Al29       1.0     0.778269     0.759955     0.305470    Uiso  ? Al
   Al30       1.0     0.880936     0.874790     0.061639    Uiso  ? Al
   Al31       1.0     0.450708     0.755171     0.805161    Uiso  ? Al
   Al32       1.0     0.556629     0.869577     0.550039    Uiso  ? Al
   Mg1        1.0     0.777874     0.100707     0.804318    Uiso  ? Mg
   Mg2        1.0     0.888378     0.538172     0.055856    Uiso  ? Mg
   Hf1        1.0     0.446573     0.092738     0.813435    Uiso  ? Hf
   Hf2        1.0     0.110022     0.763279     0.814501    Uiso  ? Hf
   N1         1.0     0.222760     0.204349     0.362425    Uiso  ? N
   N2         1.0     0.110559     0.095435     0.117148    Uiso  ? N
   N3         1.0     0.895371     0.213065     0.868855    Uiso  ? N
   N4         1.0     0.776940     0.094200     0.599656    Uiso  ? N
   N5         1.0     0.553453     0.206524     0.358152    Uiso  ? N
   N6         1.0     0.444320     0.092504     0.107450    Uiso  ? N
   N7         1.0     0.207307     0.215357     0.869677    Uiso  ? N
   N8         1.0     0.111702     0.094542     0.613951    Uiso  ? N
   N9         1.0     0.890222     0.205688     0.363950    Uiso  ? N
   N10        1.0     0.779287     0.094859     0.115811    Uiso  ? N
   N11        1.0     0.550012     0.221176     0.875451    Uiso  ? N
   N12        1.0     0.444774     0.094709     0.605366    Uiso  ? N
   N13        1.0     0.222192     0.540281     0.362653    Uiso  ? N
   N14        1.0     0.124076     0.421560     0.120715    Uiso  ? N
   N15        1.0     0.888934     0.537419     0.849426    Uiso  ? N
   N16        1.0     0.776609     0.426329     0.612763    Uiso  ? N
   N17        1.0     0.554320     0.539493     0.366653    Uiso  ? N
   N18        1.0     0.443951     0.430607     0.116938    Uiso  ? N
   N19        1.0     0.229349     0.522455     0.867605    Uiso  ? N
   N20        1.0     0.113634     0.426310     0.611298    Uiso  ? N
   N21        1.0     0.888723     0.538087     0.365392    Uiso  ? N
   N22        1.0     0.769266     0.421520     0.119173    Uiso  ? N
   N23        1.0     0.554609     0.538781     0.863883    Uiso  ? N
   N24        1.0     0.444135     0.427040     0.613573    Uiso  ? N
   N25        1.0     0.221985     0.872310     0.361776    Uiso  ? N
   N26        1.0     0.112522     0.761480     0.106196    Uiso  ? N
   N27        1.0     0.875376     0.867419     0.872336    Uiso  ? N
   N28        1.0     0.776347     0.763004     0.610793    Uiso  ? N
   N29        1.0     0.553791     0.872532     0.362619    Uiso  ? N
   N30        1.0     0.445384     0.758911     0.116796    Uiso  ? N
   N31        1.0     0.232807     0.884312     0.869545    Uiso  ? N
   N32        1.0     0.110642     0.761527     0.606676    Uiso  ? N
   N33        1.0     0.890904     0.870748     0.360047    Uiso  ? N
   N34        1.0     0.771485     0.772372     0.122123    Uiso  ? N
   N35        1.0     0.566220     0.851626     0.870796    Uiso  ? N
   N36        1.0     0.443939     0.761613     0.614311    Uiso  ? N
