
#======================================================================
# CRYSTAL DATA
#----------------------------------------------------------------------
data_VESTA_phase_1

_chemical_name_common                  'Al   Mg   Hf   N                      '
_cell_length_a                         9.515179
_cell_length_b                         9.527829
_cell_length_c                         10.104083
_cell_angle_alpha                      89.982193
_cell_angle_beta                       89.967377
_cell_angle_gamma                      59.946335
_cell_volume                           792.872350
_space_group_name_H-M_alt              'P 1'
_space_group_IT_number                 1

loop_
_space_group_symop_operation_xyz
   'x, y, z'

loop_
   _atom_site_label
   _atom_site_occupancy
   _atom_site_fract_x
   _atom_site_fract_y
   _atom_site_fract_z
   _atom_site_adp_type
   _atom_site_U_iso_or_equiv
   _atom_site_type_symbol
   Al1        1.0     0.109575     0.095837     0.308703    Uiso  ? Al
   Al2        1.0     0.217222     0.209639     0.065261    Uiso  ? Al
   Al3        1.0     0.887381     0.205555     0.556179    Uiso  ? Al
   Al4        1.0     0.443926     0.093757     0.304980    Uiso  ? Al
   Al5        1.0     0.557353     0.209438     0.066201    Uiso  ? Al
   Al6        1.0     0.105096     0.103510     0.809139    Uiso  ? Al
   Al7        1.0     0.219759     0.206566     0.553436    Uiso  ? Al
   Al8        1.0     0.779415     0.094891     0.308960    Uiso  ? Al
   Al9        1.0     0.887112     0.208362     0.059890    Uiso  ? Al
   Al10       1.0     0.558064     0.206503     0.550916    Uiso  ? Al
   Al11       1.0     0.110819     0.428029     0.308662    Uiso  ? Al
   Al12       1.0     0.225781     0.531769     0.064465    Uiso  ? Al
   Al13       1.0     0.779926     0.426550     0.808149    Uiso  ? Al
   Al14       1.0     0.887956     0.537792     0.559407    Uiso  ? Al
   Al15       1.0     0.444300     0.429805     0.308083    Uiso  ? Al
   Al16       1.0     0.556963     0.536527     0.060491    Uiso  ? Al
   Al17       1.0     0.104988     0.428441     0.805948    Uiso  ? Al
   Al18       1.0     0.223849     0.536169     0.554047    Uiso  ? Al
   Al19       1.0     0.776871     0.427254     0.307808    Uiso  ? Al
   Al20       1.0     0.448349     0.427678     0.808350    Uiso  ? Al
   Al21       1.0     0.556297     0.537764     0.558500    Uiso  ? Al
   Al22       1.0     0.111386     0.760881     0.305384    Uiso  ? Al
   Al23       1.0     0.225611     0.876490     0.065021    Uiso  ? Al
   Al24       1.0     0.779747     0.752492     0.806037    Uiso  ? Al
   Al25       1.0     0.884722     0.875262     0.551677    Uiso  ? Al
   Al26       1.0     0.445436     0.758996     0.309228    Uiso  ? Al
   Al27       1.0     0.560502     0.865249     0.066049    Uiso  ? Al
   Al28       1.0     0.223111     0.874348     0.554397    Uiso  ? Al
   Al29       1.0     0.778264     0.759954     0.308900    Uiso  ? Al
   Al30       1.0     0.880931     0.874791     0.065076    Uiso  ? Al
   Al31       1.0     0.450702     0.755172     0.808596    Uiso  ? Al
   Al32       1.0     0.556624     0.869577     0.553470    Uiso  ? Al
   Mg1        1.0     0.777869     0.100706     0.807751    Uiso  ? Mg
   Mg2        1.0     0.888373     0.538172     0.059289    Uiso  ? Mg
   Hf1        1.0     0.446567     0.092738     0.816869    Uiso  ? Hf
   Hf2        1.0     0.110016     0.763280     0.817935    Uiso  ? Hf
   N1         1.0     0.222755     0.204349     0.365856    Uiso  ? N
   N2         1.0     0.110552     0.095436     0.120582    Uiso  ? N
   N3         1.0     0.895366     0.213064     0.872286    Uiso  ? N
   N4         1.0     0.776935     0.094199     0.603089    Uiso  ? N
   N5         1.0     0.553448     0.206525     0.361586    Uiso  ? N
   N6         1.0     0.444316     0.092504     0.110883    Uiso  ? N
   N7         1.0     0.207302     0.215357     0.873112    Uiso  ? N
   N8         1.0     0.111699     0.094542     0.617385    Uiso  ? N
   N9         1.0     0.890217     0.205689     0.367387    Uiso  ? N
   N10        1.0     0.779282     0.094861     0.119246    Uiso  ? N
   N11        1.0     0.550007     0.221176     0.878886    Uiso  ? N
   N12        1.0     0.444769     0.094709     0.608799    Uiso  ? N
   N13        1.0     0.222186     0.540282     0.366086    Uiso  ? N
   N14        1.0     0.124070     0.421561     0.124148    Uiso  ? N
   N15        1.0     0.888929     0.537420     0.852860    Uiso  ? N
   N16        1.0     0.776603     0.426330     0.616199    Uiso  ? N
   N17        1.0     0.554316     0.539493     0.370088    Uiso  ? N
   N18        1.0     0.443946     0.430608     0.120373    Uiso  ? N
   N19        1.0     0.229344     0.522456     0.871039    Uiso  ? N
   N20        1.0     0.113630     0.426310     0.614732    Uiso  ? N
   N21        1.0     0.888717     0.538087     0.368825    Uiso  ? N
   N22        1.0     0.769261     0.421519     0.122606    Uiso  ? N
   N23        1.0     0.554604     0.538782     0.867316    Uiso  ? N
   N24        1.0     0.444129     0.427041     0.617008    Uiso  ? N
   N25        1.0     0.221980     0.872311     0.365208    Uiso  ? N
   N26        1.0     0.112517     0.761480     0.109630    Uiso  ? N
   N27        1.0     0.875371     0.867420     0.875772    Uiso  ? N
   N28        1.0     0.776342     0.763005     0.614226    Uiso  ? N
   N29        1.0     0.553786     0.872532     0.366050    Uiso  ? N
   N30        1.0     0.445379     0.758911     0.120229    Uiso  ? N
   N31        1.0     0.232801     0.884313     0.872980    Uiso  ? N
   N32        1.0     0.110636     0.761527     0.610109    Uiso  ? N
   N33        1.0     0.890899     0.870748     0.363478    Uiso  ? N
   N34        1.0     0.771480     0.772372     0.125555    Uiso  ? N
   N35        1.0     0.566215     0.851626     0.874232    Uiso  ? N
   N36        1.0     0.443934     0.761614     0.617745    Uiso  ? N
