
#======================================================================
# CRYSTAL DATA
#----------------------------------------------------------------------
data_VESTA_phase_1

_chemical_name_common                  'Al   Mg   Hf   N                      '
_cell_length_a                         9.837970
_cell_length_b                         9.853489
_cell_length_c                         9.180312
_cell_angle_alpha                      89.995102
_cell_angle_beta                       89.992363
_cell_angle_gamma                      59.929844
_cell_volume                           770.151453
_space_group_name_H-M_alt              'P 1'
_space_group_IT_number                 1

loop_
_space_group_symop_operation_xyz
   'x, y, z'

loop_
   _atom_site_label
   _atom_site_occupancy
   _atom_site_fract_x
   _atom_site_fract_y
   _atom_site_fract_z
   _atom_site_adp_type
   _atom_site_U_iso_or_equiv
   _atom_site_type_symbol
   Al1        1.0     0.106473     0.097973     0.336666    Uiso  ? Al
   Al2        1.0     0.214552     0.209554     0.093886    Uiso  ? Al
   Al3        1.0     0.886340     0.208068     0.587218    Uiso  ? Al
   Al4        1.0     0.444161     0.093430     0.329263    Uiso  ? Al
   Al5        1.0     0.559419     0.211375     0.095134    Uiso  ? Al
   Al6        1.0     0.108529     0.101064     0.829658    Uiso  ? Al
   Al7        1.0     0.221469     0.206962     0.576453    Uiso  ? Al
   Al8        1.0     0.781117     0.095487     0.342035    Uiso  ? Al
   Al9        1.0     0.887896     0.205904     0.079146    Uiso  ? Al
   Al10       1.0     0.556635     0.205621     0.575413    Uiso  ? Al
   Al11       1.0     0.108688     0.429479     0.333105    Uiso  ? Al
   Al12       1.0     0.228360     0.529607     0.092664    Uiso  ? Al
   Al13       1.0     0.778754     0.427829     0.836844    Uiso  ? Al
   Al14       1.0     0.887782     0.536626     0.590293    Uiso  ? Al
   Al15       1.0     0.444895     0.430874     0.336030    Uiso  ? Al
   Al16       1.0     0.554650     0.537257     0.081827    Uiso  ? Al
   Al17       1.0     0.106241     0.428200     0.833693    Uiso  ? Al
   Al18       1.0     0.222642     0.536930     0.578142    Uiso  ? Al
   Al19       1.0     0.777161     0.426439     0.329372    Uiso  ? Al
   Al20       1.0     0.446336     0.428389     0.829450    Uiso  ? Al
   Al21       1.0     0.557632     0.537522     0.584397    Uiso  ? Al
   Al22       1.0     0.111041     0.761276     0.330558    Uiso  ? Al
   Al23       1.0     0.226740     0.878284     0.095132    Uiso  ? Al
   Al24       1.0     0.779090     0.752808     0.831327    Uiso  ? Al
   Al25       1.0     0.885786     0.873908     0.578827    Uiso  ? Al
   Al26       1.0     0.446680     0.756955     0.335398    Uiso  ? Al
   Al27       1.0     0.560800     0.862517     0.093715    Uiso  ? Al
   Al28       1.0     0.223581     0.873970     0.576549    Uiso  ? Al
   Al29       1.0     0.779860     0.757968     0.335442    Uiso  ? Al
   Al30       1.0     0.878428     0.877282     0.092392    Uiso  ? Al
   Al31       1.0     0.448462     0.757447     0.831033    Uiso  ? Al
   Al32       1.0     0.556428     0.870375     0.577056    Uiso  ? Al
   Mg1        1.0     0.777200     0.098341     0.836381    Uiso  ? Mg
   Mg2        1.0     0.887962     0.538500     0.088683    Uiso  ? Mg
   Hf1        1.0     0.445278     0.093215     0.853032    Uiso  ? Hf
   Hf2        1.0     0.111818     0.762402     0.853222    Uiso  ? Hf
   N1         1.0     0.223429     0.204653     0.369035    Uiso  ? N
   N2         1.0     0.108172     0.096759     0.129378    Uiso  ? N
   N3         1.0     0.896883     0.210298     0.870786    Uiso  ? N
   N4         1.0     0.776036     0.094249     0.605458    Uiso  ? N
   N5         1.0     0.552234     0.206391     0.365191    Uiso  ? N
   N6         1.0     0.444230     0.091581     0.114558    Uiso  ? N
   N7         1.0     0.205711     0.215121     0.879405    Uiso  ? N
   N8         1.0     0.113988     0.093861     0.619272    Uiso  ? N
   N9         1.0     0.889203     0.208507     0.378019    Uiso  ? N
   N10        1.0     0.780365     0.095331     0.128510    Uiso  ? N
   N11        1.0     0.550117     0.222372     0.884054    Uiso  ? N
   N12        1.0     0.444935     0.093932     0.618425    Uiso  ? N
   N13        1.0     0.221065     0.541601     0.370337    Uiso  ? N
   N14        1.0     0.123171     0.422187     0.128205    Uiso  ? N
   N15        1.0     0.889327     0.537751     0.857252    Uiso  ? N
   N16        1.0     0.774982     0.427747     0.626171    Uiso  ? N
   N17        1.0     0.556202     0.538755     0.377469    Uiso  ? N
   N18        1.0     0.444589     0.431409     0.129436    Uiso  ? N
   N19        1.0     0.230223     0.522029     0.876966    Uiso  ? N
   N20        1.0     0.114783     0.425712     0.620789    Uiso  ? N
   N21        1.0     0.888224     0.536583     0.376313    Uiso  ? N
   N22        1.0     0.768823     0.420603     0.122022    Uiso  ? N
   N23        1.0     0.551212     0.540691     0.870836    Uiso  ? N
   N24        1.0     0.443886     0.426808     0.619197    Uiso  ? N
   N25        1.0     0.221820     0.872126     0.367832    Uiso  ? N
   N26        1.0     0.113128     0.761648     0.114063    Uiso  ? N
   N27        1.0     0.876158     0.866986     0.878819    Uiso  ? N
   N28        1.0     0.775762     0.763180     0.618452    Uiso  ? N
   N29        1.0     0.553218     0.872972     0.369981    Uiso  ? N
   N30        1.0     0.446286     0.757269     0.127923    Uiso  ? N
   N31        1.0     0.233008     0.885529     0.880132    Uiso  ? N
   N32        1.0     0.112589     0.761755     0.619213    Uiso  ? N
   N33        1.0     0.892599     0.869360     0.369541    Uiso  ? N
   N34        1.0     0.771891     0.771726     0.131476    Uiso  ? N
   N35        1.0     0.566116     0.850699     0.879364    Uiso  ? N
   N36        1.0     0.443640     0.762207     0.620902    Uiso  ? N
