
#======================================================================
# CRYSTAL DATA
#----------------------------------------------------------------------
data_VESTA_phase_1

_chemical_name_common                  'Al   Mg   Hf   N                      '
_cell_length_a                         9.526744
_cell_length_b                         9.539796
_cell_length_c                         10.065625
_cell_angle_alpha                      89.991203
_cell_angle_beta                       90.029938
_cell_angle_gamma                      59.933334
_cell_volume                           791.703769
_space_group_name_H-M_alt              'P 1'
_space_group_IT_number                 1

loop_
_space_group_symop_operation_xyz
   'x, y, z'

loop_
   _atom_site_label
   _atom_site_occupancy
   _atom_site_fract_x
   _atom_site_fract_y
   _atom_site_fract_z
   _atom_site_adp_type
   _atom_site_U_iso_or_equiv
   _atom_site_type_symbol
   Al1        1.0     0.109433     0.096152     0.383222    Uiso  ? Al
   Al2        1.0     0.219905     0.208399     0.139059    Uiso  ? Al
   Al3        1.0     0.889221     0.206563     0.633634    Uiso  ? Al
   Al4        1.0     0.444118     0.094076     0.386577    Uiso  ? Al
   Al5        1.0     0.557877     0.206758     0.141421    Uiso  ? Al
   Al6        1.0     0.105280     0.103248     0.885034    Uiso  ? Al
   Al7        1.0     0.217015     0.208166     0.628509    Uiso  ? Al
   Al8        1.0     0.778859     0.095248     0.381844    Uiso  ? Al
   Al9        1.0     0.885350     0.207433     0.136162    Uiso  ? Al
   Al10       1.0     0.557557     0.209220     0.627971    Uiso  ? Al
   Al11       1.0     0.107697     0.429590     0.384924    Uiso  ? Al
   Al12       1.0     0.224212     0.534234     0.138193    Uiso  ? Al
   Al13       1.0     0.778393     0.424944     0.883730    Uiso  ? Al
   Al14       1.0     0.888175     0.538293     0.633121    Uiso  ? Al
   Al15       1.0     0.444472     0.429437     0.383567    Uiso  ? Al
   Al16       1.0     0.557738     0.535875     0.133767    Uiso  ? Al
   Al17       1.0     0.107373     0.427150     0.885627    Uiso  ? Al
   Al18       1.0     0.225429     0.533382     0.629055    Uiso  ? Al
   Al19       1.0     0.778330     0.428889     0.385555    Uiso  ? Al
   Al20       1.0     0.448118     0.427949     0.886171    Uiso  ? Al
   Al21       1.0     0.555381     0.538437     0.633447    Uiso  ? Al
   Al22       1.0     0.111318     0.760839     0.386585    Uiso  ? Al
   Al23       1.0     0.223034     0.874483     0.138413    Uiso  ? Al
   Al24       1.0     0.778672     0.754648     0.885689    Uiso  ? Al
   Al25       1.0     0.882762     0.874388     0.628005    Uiso  ? Al
   Al26       1.0     0.445590     0.758919     0.382749    Uiso  ? Al
   Al27       1.0     0.558197     0.869889     0.139118    Uiso  ? Al
   Al28       1.0     0.225628     0.876371     0.628115    Uiso  ? Al
   Al29       1.0     0.779751     0.756780     0.384881    Uiso  ? Al
   Al30       1.0     0.882630     0.875514     0.140689    Uiso  ? Al
   Al31       1.0     0.450536     0.755225     0.885517    Uiso  ? Al
   Al32       1.0     0.559129     0.864949     0.627682    Uiso  ? Al
   Mg1        1.0     0.778241     0.100445     0.887460    Uiso  ? Mg
   Mg2        1.0     0.887901     0.537697     0.132039    Uiso  ? Mg
   Hf1        1.0     0.446640     0.092393     0.878455    Uiso  ? Hf
   Hf2        1.0     0.110069     0.763197     0.876079    Uiso  ? Hf
   N1         1.0     0.222196     0.205959     0.329298    Uiso  ? N
   N2         1.0     0.111609     0.094887     0.077089    Uiso  ? N
   N3         1.0     0.896451     0.211391     0.819850    Uiso  ? N
   N4         1.0     0.778649     0.095399     0.573144    Uiso  ? N
   N5         1.0     0.553127     0.206793     0.331569    Uiso  ? N
   N6         1.0     0.444216     0.094403     0.086382    Uiso  ? N
   N7         1.0     0.208080     0.213704     0.818878    Uiso  ? N
   N8         1.0     0.110764     0.095152     0.572023    Uiso  ? N
   N9         1.0     0.889242     0.207351     0.327647    Uiso  ? N
   N10        1.0     0.777451     0.094017     0.092547    Uiso  ? N
   N11        1.0     0.550050     0.220991     0.815638    Uiso  ? N
   N12        1.0     0.444808     0.092817     0.581682    Uiso  ? N
   N13        1.0     0.221596     0.539391     0.328941    Uiso  ? N
   N14        1.0     0.127093     0.419577     0.071926    Uiso  ? N
   N15        1.0     0.888956     0.537558     0.826425    Uiso  ? N
   N16        1.0     0.775753     0.428322     0.576975    Uiso  ? N
   N17        1.0     0.555647     0.538635     0.324839    Uiso  ? N
   N18        1.0     0.443670     0.427880     0.077390    Uiso  ? N
   N19        1.0     0.229869     0.523234     0.820414    Uiso  ? N
   N20        1.0     0.111065     0.428077     0.575467    Uiso  ? N
   N21        1.0     0.888617     0.538012     0.336879    Uiso  ? N
   N22        1.0     0.769767     0.419583     0.070421    Uiso  ? N
   N23        1.0     0.552976     0.539759     0.824551    Uiso  ? N
   N24        1.0     0.444544     0.429824     0.572431    Uiso  ? N
   N25        1.0     0.221919     0.872430     0.328266    Uiso  ? N
   N26        1.0     0.110509     0.761539     0.084318    Uiso  ? N
   N27        1.0     0.876294     0.867872     0.815844    Uiso  ? N
   N28        1.0     0.777879     0.759456     0.573968    Uiso  ? N
   N29        1.0     0.555301     0.872025     0.329187    Uiso  ? N
   N30        1.0     0.444079     0.761617     0.076705    Uiso  ? N
   N31        1.0     0.232634     0.884093     0.820593    Uiso  ? N
   N32        1.0     0.112727     0.761454     0.582832    Uiso  ? N
   N33        1.0     0.889839     0.870064     0.331803    Uiso  ? N
   N34        1.0     0.769350     0.776750     0.072326    Uiso  ? N
   N35        1.0     0.564808     0.852119     0.817749    Uiso  ? N
   N36        1.0     0.445225     0.758921     0.572428    Uiso  ? N
