
#======================================================================
# CRYSTAL DATA
#----------------------------------------------------------------------
data_VESTA_phase_1

_chemical_name_common                  'Al   Mg   Hf   N                      '
_cell_length_a                         10.004200
_cell_length_b                         10.020018
_cell_length_c                         8.661918
_cell_angle_alpha                      89.993576
_cell_angle_beta                       90.006599
_cell_angle_gamma                      59.947773
_cell_volume                           751.565307
_space_group_name_H-M_alt              'P 1'
_space_group_IT_number                 1

loop_
_space_group_symop_operation_xyz
   'x, y, z'

loop_
   _atom_site_label
   _atom_site_occupancy
   _atom_site_fract_x
   _atom_site_fract_y
   _atom_site_fract_z
   _atom_site_adp_type
   _atom_site_U_iso_or_equiv
   _atom_site_type_symbol
   Al1        1.0     0.106602     0.097257     0.362154    Uiso  ? Al
   Al2        1.0     0.221112     0.206727     0.125344    Uiso  ? Al
   Al3        1.0     0.888110     0.207499     0.616005    Uiso  ? Al
   Al4        1.0     0.445107     0.094366     0.362843    Uiso  ? Al
   Al5        1.0     0.557806     0.207609     0.117914    Uiso  ? Al
   Al6        1.0     0.108160     0.101402     0.865523    Uiso  ? Al
   Al7        1.0     0.214852     0.210208     0.600231    Uiso  ? Al
   Al8        1.0     0.779869     0.096420     0.357589    Uiso  ? Al
   Al9        1.0     0.886011     0.206664     0.110088    Uiso  ? Al
   Al10       1.0     0.559032     0.209422     0.604025    Uiso  ? Al
   Al11       1.0     0.107053     0.430077     0.359466    Uiso  ? Al
   Al12       1.0     0.226010     0.533904     0.123505    Uiso  ? Al
   Al13       1.0     0.777887     0.427944     0.866235    Uiso  ? Al
   Al14       1.0     0.887708     0.538356     0.605472    Uiso  ? Al
   Al15       1.0     0.445957     0.429031     0.362999    Uiso  ? Al
   Al16       1.0     0.555518     0.537394     0.115742    Uiso  ? Al
   Al17       1.0     0.106706     0.428253     0.867526    Uiso  ? Al
   Al18       1.0     0.225134     0.532325     0.600498    Uiso  ? Al
   Al19       1.0     0.777982     0.426786     0.359252    Uiso  ? Al
   Al20       1.0     0.445234     0.430103     0.864742    Uiso  ? Al
   Al21       1.0     0.556526     0.537854     0.612153    Uiso  ? Al
   Al22       1.0     0.111147     0.762228     0.361396    Uiso  ? Al
   Al23       1.0     0.224976     0.875614     0.120936    Uiso  ? Al
   Al24       1.0     0.779030     0.753028     0.870542    Uiso  ? Al
   Al25       1.0     0.880982     0.874750     0.601664    Uiso  ? Al
   Al26       1.0     0.445516     0.757667     0.363492    Uiso  ? Al
   Al27       1.0     0.556362     0.869692     0.124971    Uiso  ? Al
   Al28       1.0     0.225609     0.877225     0.601524    Uiso  ? Al
   Al29       1.0     0.780823     0.756263     0.357562    Uiso  ? Al
   Al30       1.0     0.882484     0.876867     0.120789    Uiso  ? Al
   Al31       1.0     0.449032     0.756858     0.863946    Uiso  ? Al
   Al32       1.0     0.561175     0.863159     0.600360    Uiso  ? Al
   Mg1        1.0     0.779006     0.096798     0.858316    Uiso  ? Mg
   Mg2        1.0     0.888257     0.536292     0.110743    Uiso  ? Mg
   Hf1        1.0     0.444119     0.092488     0.853094    Uiso  ? Hf
   Hf2        1.0     0.111801     0.761244     0.853105    Uiso  ? Hf
   N1         1.0     0.222528     0.204990     0.352043    Uiso  ? N
   N2         1.0     0.113073     0.095102     0.100104    Uiso  ? N
   N3         1.0     0.896024     0.211113     0.846776    Uiso  ? N
   N4         1.0     0.778586     0.095635     0.589389    Uiso  ? N
   N5         1.0     0.553057     0.207320     0.349678    Uiso  ? N
   N6         1.0     0.444236     0.092796     0.106138    Uiso  ? N
   N7         1.0     0.207428     0.214642     0.839010    Uiso  ? N
   N8         1.0     0.109741     0.095603     0.590529    Uiso  ? N
   N9         1.0     0.889547     0.207083     0.344439    Uiso  ? N
   N10        1.0     0.777441     0.094128     0.111506    Uiso  ? N
   N11        1.0     0.549754     0.219776     0.844052    Uiso  ? N
   N12        1.0     0.445403     0.092847     0.594979    Uiso  ? N
   N13        1.0     0.222251     0.540285     0.351257    Uiso  ? N
   N14        1.0     0.125803     0.420251     0.100151    Uiso  ? N
   N15        1.0     0.889098     0.537768     0.842681    Uiso  ? N
   N16        1.0     0.775353     0.427397     0.595411    Uiso  ? N
   N17        1.0     0.554766     0.539311     0.345657    Uiso  ? N
   N18        1.0     0.443366     0.429065     0.099366    Uiso  ? N
   N19        1.0     0.228349     0.524195     0.840669    Uiso  ? N
   N20        1.0     0.111102     0.428328     0.590692    Uiso  ? N
   N21        1.0     0.888266     0.536534     0.356735    Uiso  ? N
   N22        1.0     0.768767     0.422034     0.095915    Uiso  ? N
   N23        1.0     0.552277     0.540457     0.844618    Uiso  ? N
   N24        1.0     0.445132     0.429091     0.591625    Uiso  ? N
   N25        1.0     0.222510     0.873155     0.349176    Uiso  ? N
   N26        1.0     0.112681     0.761366     0.106005    Uiso  ? N
   N27        1.0     0.878722     0.865304     0.841143    Uiso  ? N
   N28        1.0     0.777953     0.759771     0.587484    Uiso  ? N
   N29        1.0     0.553539     0.871960     0.351434    Uiso  ? N
   N30        1.0     0.444799     0.761197     0.098641    Uiso  ? N
   N31        1.0     0.231329     0.883781     0.843395    Uiso  ? N
   N32        1.0     0.113414     0.762004     0.595265    Uiso  ? N
   N33        1.0     0.891060     0.870621     0.351415    Uiso  ? N
   N34        1.0     0.770310     0.773628     0.102758    Uiso  ? N
   N35        1.0     0.565488     0.852973     0.839573    Uiso  ? N
   N36        1.0     0.445026     0.758933     0.591976    Uiso  ? N
