
#======================================================================
# CRYSTAL DATA
#----------------------------------------------------------------------
data_VESTA_phase_1

_chemical_name_common                  'Al   Mg   Hf   N                      '
_cell_length_a                         9.686007
_cell_length_b                         9.701901
_cell_length_c                         9.620274
_cell_angle_alpha                      89.993706
_cell_angle_beta                       90.022331
_cell_angle_gamma                      59.943306
_cell_volume                           782.476429
_space_group_name_H-M_alt              'P 1'
_space_group_IT_number                 1

loop_
_space_group_symop_operation_xyz
   'x, y, z'

loop_
   _atom_site_label
   _atom_site_occupancy
   _atom_site_fract_x
   _atom_site_fract_y
   _atom_site_fract_z
   _atom_site_adp_type
   _atom_site_U_iso_or_equiv
   _atom_site_type_symbol
   Al1        1.0     0.108608     0.096341     0.377466    Uiso  ? Al
   Al2        1.0     0.222815     0.206800     0.135962    Uiso  ? Al
   Al3        1.0     0.889107     0.206688     0.630390    Uiso  ? Al
   Al4        1.0     0.444517     0.094005     0.385960    Uiso  ? Al
   Al5        1.0     0.556818     0.205758     0.135558    Uiso  ? Al
   Al6        1.0     0.106138     0.103251     0.882829    Uiso  ? Al
   Al7        1.0     0.213304     0.210334     0.622098    Uiso  ? Al
   Al8        1.0     0.779179     0.095668     0.373986    Uiso  ? Al
   Al9        1.0     0.885155     0.207485     0.131023    Uiso  ? Al
   Al10       1.0     0.559319     0.210959     0.623341    Uiso  ? Al
   Al11       1.0     0.107007     0.430193     0.377976    Uiso  ? Al
   Al12       1.0     0.223849     0.536129     0.134768    Uiso  ? Al
   Al13       1.0     0.777809     0.425535     0.880174    Uiso  ? Al
   Al14       1.0     0.888015     0.538520     0.627280    Uiso  ? Al
   Al15       1.0     0.444844     0.429502     0.378154    Uiso  ? Al
   Al16       1.0     0.557191     0.536168     0.130500    Uiso  ? Al
   Al17       1.0     0.107497     0.427245     0.883603    Uiso  ? Al
   Al18       1.0     0.226733     0.530548     0.622817    Uiso  ? Al
   Al19       1.0     0.778273     0.428533     0.380564    Uiso  ? Al
   Al20       1.0     0.446909     0.428758     0.883433    Uiso  ? Al
   Al21       1.0     0.555288     0.538508     0.629634    Uiso  ? Al
   Al22       1.0     0.111739     0.761346     0.385298    Uiso  ? Al
   Al23       1.0     0.222757     0.873926     0.133826    Uiso  ? Al
   Al24       1.0     0.778477     0.754334     0.884717    Uiso  ? Al
   Al25       1.0     0.879765     0.875425     0.621623    Uiso  ? Al
   Al26       1.0     0.445387     0.758502     0.377754    Uiso  ? Al
   Al27       1.0     0.556532     0.872109     0.135691    Uiso  ? Al
   Al28       1.0     0.227156     0.878272     0.623159    Uiso  ? Al
   Al29       1.0     0.780416     0.755908     0.376800    Uiso  ? Al
   Al30       1.0     0.884713     0.875086     0.136165    Uiso  ? Al
   Al31       1.0     0.450205     0.755893     0.882631    Uiso  ? Al
   Al32       1.0     0.561473     0.861090     0.621910    Uiso  ? Al
   Mg1        1.0     0.778675     0.098688     0.880775    Uiso  ? Mg
   Mg2        1.0     0.887967     0.536559     0.125296    Uiso  ? Mg
   Hf1        1.0     0.445462     0.092412     0.863066    Uiso  ? Hf
   Hf2        1.0     0.110681     0.762650     0.861670    Uiso  ? Hf
   N1         1.0     0.224004     0.204854     0.334536    Uiso  ? N
   N2         1.0     0.112384     0.095090     0.082482    Uiso  ? N
   N3         1.0     0.896781     0.211039     0.825056    Uiso  ? N
   N4         1.0     0.778898     0.095839     0.574814    Uiso  ? N
   N5         1.0     0.552012     0.206299     0.334928    Uiso  ? N
   N6         1.0     0.444325     0.093689     0.082934    Uiso  ? N
   N7         1.0     0.204749     0.215905     0.821177    Uiso  ? N
   N8         1.0     0.109763     0.095584     0.573757    Uiso  ? N
   N9         1.0     0.889269     0.207912     0.329885    Uiso  ? N
   N10        1.0     0.777365     0.093770     0.096998    Uiso  ? N
   N11        1.0     0.550811     0.222374     0.819912    Uiso  ? N
   N12        1.0     0.445057     0.092355     0.590539    Uiso  ? N
   N13        1.0     0.221063     0.541352     0.333794    Uiso  ? N
   N14        1.0     0.127850     0.419262     0.078817    Uiso  ? N
   N15        1.0     0.889077     0.537748     0.830418    Uiso  ? N
   N16        1.0     0.775430     0.428174     0.580213    Uiso  ? N
   N17        1.0     0.555680     0.538735     0.328346    Uiso  ? N
   N18        1.0     0.443337     0.428143     0.082336    Uiso  ? N
   N19        1.0     0.230329     0.521121     0.823001    Uiso  ? N
   N20        1.0     0.110339     0.428688     0.576214    Uiso  ? N
   N21        1.0     0.888367     0.537100     0.338932    Uiso  ? N
   N22        1.0     0.768759     0.419949     0.074834    Uiso  ? N
   N23        1.0     0.551732     0.540505     0.828217    Uiso  ? N
   N24        1.0     0.445094     0.429972     0.574426    Uiso  ? N
   N25        1.0     0.221422     0.871959     0.332179    Uiso  ? N
   N26        1.0     0.111244     0.761590     0.082008    Uiso  ? N
   N27        1.0     0.874602     0.867373     0.819027    Uiso  ? N
   N28        1.0     0.778261     0.758645     0.573940    Uiso  ? N
   N29        1.0     0.553843     0.873613     0.334013    Uiso  ? N
   N30        1.0     0.444296     0.761736     0.081652    Uiso  ? N
   N31        1.0     0.233598     0.885927     0.824086    Uiso  ? N
   N32        1.0     0.113447     0.761775     0.590995    Uiso  ? N
   N33        1.0     0.892063     0.869276     0.336108    Uiso  ? N
   N34        1.0     0.769550     0.776375     0.080265    Uiso  ? N
   N35        1.0     0.566853     0.849131     0.820821    Uiso  ? N
   N36        1.0     0.445436     0.758238     0.574659    Uiso  ? N
