
#======================================================================
# CRYSTAL DATA
#----------------------------------------------------------------------
data_VESTA_phase_1

_chemical_name_common                  'Al   Mg   Hf   N                      '
_cell_length_a                         9.510703
_cell_length_b                         9.522765
_cell_length_c                         10.109118
_cell_angle_alpha                      89.988876
_cell_angle_beta                       90.030937
_cell_angle_gamma                      59.932549
_cell_volume                           792.362408
_space_group_name_H-M_alt              'P 1'
_space_group_IT_number                 1

loop_
_space_group_symop_operation_xyz
   'x, y, z'

loop_
   _atom_site_label
   _atom_site_occupancy
   _atom_site_fract_x
   _atom_site_fract_y
   _atom_site_fract_z
   _atom_site_adp_type
   _atom_site_U_iso_or_equiv
   _atom_site_type_symbol
   Al1        1.0     0.109402     0.096146     0.402448    Uiso  ? Al
   Al2        1.0     0.219306     0.208675     0.158115    Uiso  ? Al
   Al3        1.0     0.889215     0.206594     0.652542    Uiso  ? Al
   Al4        1.0     0.444021     0.094131     0.404689    Uiso  ? Al
   Al5        1.0     0.558041     0.207019     0.160752    Uiso  ? Al
   Al6        1.0     0.105316     0.103034     0.903580    Uiso  ? Al
   Al7        1.0     0.217688     0.207725     0.647502    Uiso  ? Al
   Al8        1.0     0.778807     0.095284     0.401297    Uiso  ? Al
   Al9        1.0     0.885389     0.207420     0.155029    Uiso  ? Al
   Al10       1.0     0.557198     0.208896     0.646844    Uiso  ? Al
   Al11       1.0     0.107731     0.429495     0.404286    Uiso  ? Al
   Al12       1.0     0.224366     0.533770     0.157276    Uiso  ? Al
   Al13       1.0     0.778534     0.424970     0.902632    Uiso  ? Al
   Al14       1.0     0.888143     0.538277     0.652027    Uiso  ? Al
   Al15       1.0     0.444475     0.429451     0.402760    Uiso  ? Al
   Al16       1.0     0.557741     0.535911     0.152468    Uiso  ? Al
   Al17       1.0     0.107426     0.427065     0.904101    Uiso  ? Al
   Al18       1.0     0.225131     0.533945     0.648007    Uiso  ? Al
   Al19       1.0     0.778300     0.428888     0.404432    Uiso  ? Al
   Al20       1.0     0.448214     0.427846     0.904736    Uiso  ? Al
   Al21       1.0     0.555465     0.538386     0.652316    Uiso  ? Al
   Al22       1.0     0.111200     0.760754     0.404750    Uiso  ? Al
   Al23       1.0     0.223137     0.874598     0.157640    Uiso  ? Al
   Al24       1.0     0.778632     0.754811     0.904084    Uiso  ? Al
   Al25       1.0     0.883365     0.874128     0.647036    Uiso  ? Al
   Al26       1.0     0.445609     0.758895     0.401909    Uiso  ? Al
   Al27       1.0     0.558364     0.869503     0.158210    Uiso  ? Al
   Al28       1.0     0.225240     0.875923     0.646937    Uiso  ? Al
   Al29       1.0     0.779583     0.756933     0.404337    Uiso  ? Al
   Al30       1.0     0.882133     0.875727     0.159877    Uiso  ? Al
   Al31       1.0     0.450462     0.755232     0.904082    Uiso  ? Al
   Al32       1.0     0.558640     0.865733     0.646606    Uiso  ? Al
   Mg1        1.0     0.778175     0.100602     0.906350    Uiso  ? Mg
   Mg2        1.0     0.887915     0.537971     0.151244    Uiso  ? Mg
   Hf1        1.0     0.446727     0.092442     0.899467    Uiso  ? Hf
   Hf2        1.0     0.109989     0.763099     0.896992    Uiso  ? Hf
   N1         1.0     0.221709     0.206182     0.347556    Uiso  ? N
   N2         1.0     0.111572     0.094772     0.095109    Uiso  ? N
   N3         1.0     0.896418     0.211517     0.838053    Uiso  ? N
   N4         1.0     0.778608     0.095367     0.591807    Uiso  ? N
   N5         1.0     0.553347     0.206968     0.350007    Uiso  ? N
   N6         1.0     0.444113     0.094553     0.106449    Uiso  ? N
   N7         1.0     0.208881     0.213111     0.837283    Uiso  ? N
   N8         1.0     0.110837     0.095037     0.590623    Uiso  ? N
   N9         1.0     0.889233     0.207240     0.345992    Uiso  ? N
   N10        1.0     0.777380     0.094106     0.110646    Uiso  ? N
   N11        1.0     0.549708     0.220586     0.833898    Uiso  ? N
   N12        1.0     0.444727     0.092925     0.598747    Uiso  ? N
   N13        1.0     0.221759     0.538907     0.347220    Uiso  ? N
   N14        1.0     0.126998     0.419588     0.089750    Uiso  ? N
   N15        1.0     0.888927     0.537592     0.844542    Uiso  ? N
   N16        1.0     0.775784     0.428296     0.595187    Uiso  ? N
   N17        1.0     0.555577     0.538656     0.343070    Uiso  ? N
   N18        1.0     0.443681     0.427859     0.095424    Uiso  ? N
   N19        1.0     0.229687     0.523775     0.838729    Uiso  ? N
   N20        1.0     0.111159     0.427959     0.594166    Uiso  ? N
   N21        1.0     0.888628     0.538172     0.355466    Uiso  ? N
   N22        1.0     0.769931     0.419675     0.088682    Uiso  ? N
   N23        1.0     0.553256     0.539616     0.842817    Uiso  ? N
   N24        1.0     0.444480     0.429813     0.591003    Uiso  ? N
   N25        1.0     0.222047     0.872550     0.346658    Uiso  ? N
   N26        1.0     0.110372     0.761488     0.104231    Uiso  ? N
   N27        1.0     0.876998     0.867676     0.834165    Uiso  ? N
   N28        1.0     0.777740     0.759648     0.592735    Uiso  ? N
   N29        1.0     0.555484     0.871658     0.347480    Uiso  ? N
   N30        1.0     0.443963     0.761686     0.094722    Uiso  ? N
   N31        1.0     0.232231     0.883501     0.838840    Uiso  ? N
   N32        1.0     0.112588     0.761351     0.599902    Uiso  ? N
   N33        1.0     0.889305     0.870314     0.350138    Uiso  ? N
   N34        1.0     0.769174     0.776947     0.090073    Uiso  ? N
   N35        1.0     0.564254     0.853006     0.836074    Uiso  ? N
   N36        1.0     0.445152     0.758999     0.590986    Uiso  ? N
