
#======================================================================
# CRYSTAL DATA
#----------------------------------------------------------------------
data_VESTA_phase_1

_chemical_name_common                  'Al   Mg   Hf   N                      '
_cell_length_a                         9.786539
_cell_length_b                         9.802590
_cell_length_c                         9.324665
_cell_angle_alpha                      89.993034
_cell_angle_beta                       90.017159
_cell_angle_gamma                      59.945965
_cell_volume                           774.278309
_space_group_name_H-M_alt              'P 1'
_space_group_IT_number                 1

loop_
_space_group_symop_operation_xyz
   'x, y, z'

loop_
   _atom_site_label
   _atom_site_occupancy
   _atom_site_fract_x
   _atom_site_fract_y
   _atom_site_fract_z
   _atom_site_adp_type
   _atom_site_U_iso_or_equiv
   _atom_site_type_symbol
   Al1        1.0     0.107736     0.096614     0.373867    Uiso  ? Al
   Al2        1.0     0.223262     0.206337     0.134476    Uiso  ? Al
   Al3        1.0     0.889014     0.206859     0.628186    Uiso  ? Al
   Al4        1.0     0.444765     0.094098     0.382189    Uiso  ? Al
   Al5        1.0     0.556615     0.205884     0.132126    Uiso  ? Al
   Al6        1.0     0.107112     0.102699     0.880055    Uiso  ? Al
   Al7        1.0     0.212857     0.210710     0.616346    Uiso  ? Al
   Al8        1.0     0.779431     0.096139     0.369041    Uiso  ? Al
   Al9        1.0     0.885266     0.207407     0.126380    Uiso  ? Al
   Al10       1.0     0.559561     0.211131     0.619201    Uiso  ? Al
   Al11       1.0     0.106805     0.430321     0.373480    Uiso  ? Al
   Al12       1.0     0.224248     0.536118     0.133019    Uiso  ? Al
   Al13       1.0     0.777746     0.426315     0.877552    Uiso  ? Al
   Al14       1.0     0.887911     0.538624     0.621375    Uiso  ? Al
   Al15       1.0     0.445345     0.429494     0.374834    Uiso  ? Al
   Al16       1.0     0.556740     0.536514     0.127542    Uiso  ? Al
   Al17       1.0     0.107560     0.427336     0.880911    Uiso  ? Al
   Al18       1.0     0.226651     0.530435     0.617164    Uiso  ? Al
   Al19       1.0     0.778123     0.427938     0.376313    Uiso  ? Al
   Al20       1.0     0.446088     0.429244     0.880206    Uiso  ? Al
   Al21       1.0     0.555506     0.538384     0.626485    Uiso  ? Al
   Al22       1.0     0.111774     0.761662     0.381128    Uiso  ? Al
   Al23       1.0     0.223186     0.874041     0.131431    Uiso  ? Al
   Al24       1.0     0.778452     0.754152     0.882812    Uiso  ? Al
   Al25       1.0     0.879512     0.875353     0.616384    Uiso  ? Al
   Al26       1.0     0.445409     0.758009     0.374723    Uiso  ? Al
   Al27       1.0     0.555859     0.872324     0.134032    Uiso  ? Al
   Al28       1.0     0.227076     0.878416     0.618316    Uiso  ? Al
   Al29       1.0     0.780588     0.755763     0.371489    Uiso  ? Al
   Al30       1.0     0.884883     0.875354     0.133545    Uiso  ? Al
   Al31       1.0     0.449799     0.756451     0.879239    Uiso  ? Al
   Al32       1.0     0.561924     0.860726     0.616532    Uiso  ? Al
   Mg1        1.0     0.778807     0.097732     0.874814    Uiso  ? Mg
   Mg2        1.0     0.888084     0.536163     0.121304    Uiso  ? Mg
   Hf1        1.0     0.444835     0.092468     0.857919    Uiso  ? Hf
   Hf2        1.0     0.111006     0.762110     0.857074    Uiso  ? Hf
   N1         1.0     0.224021     0.204622     0.339596    Uiso  ? N
   N2         1.0     0.113042     0.094976     0.086849    Uiso  ? N
   N3         1.0     0.896855     0.211032     0.830387    Uiso  ? N
   N4         1.0     0.779029     0.096070     0.578000    Uiso  ? N
   N5         1.0     0.551982     0.206505     0.338659    Uiso  ? N
   N6         1.0     0.444271     0.093397     0.087026    Uiso  ? N
   N7         1.0     0.204804     0.215967     0.824023    Uiso  ? N
   N8         1.0     0.109214     0.095748     0.576724    Uiso  ? N
   N9         1.0     0.889351     0.207931     0.332200    Uiso  ? N
   N10        1.0     0.777211     0.093731     0.101055    Uiso  ? N
   N11        1.0     0.550391     0.222064     0.824435    Uiso  ? N
   N12        1.0     0.445204     0.092329     0.593091    Uiso  ? N
   N13        1.0     0.221316     0.541447     0.338593    Uiso  ? N
   N14        1.0     0.127830     0.419240     0.084344    Uiso  ? N
   N15        1.0     0.889128     0.537878     0.833556    Uiso  ? N
   N16        1.0     0.775278     0.427807     0.583299    Uiso  ? N
   N17        1.0     0.555501     0.538883     0.331724    Uiso  ? N
   N18        1.0     0.443173     0.428306     0.086322    Uiso  ? N
   N19        1.0     0.229897     0.521484     0.825928    Uiso  ? N
   N20        1.0     0.110294     0.428806     0.578479    Uiso  ? N
   N21        1.0     0.888244     0.536685     0.343036    Uiso  ? N
   N22        1.0     0.768491     0.420620     0.079379    Uiso  ? N
   N23        1.0     0.551593     0.540657     0.831891    Uiso  ? N
   N24        1.0     0.445367     0.429966     0.577602    Uiso  ? N
   N25        1.0     0.221629     0.872115     0.336427    Uiso  ? N
   N26        1.0     0.111669     0.761502     0.086572    Uiso  ? N
   N27        1.0     0.875492     0.866390     0.822880    Uiso  ? N
   N28        1.0     0.778276     0.758704     0.575659    Uiso  ? N
   N29        1.0     0.553326     0.873587     0.338814    Uiso  ? N
   N30        1.0     0.444342     0.761880     0.085578    Uiso  ? N
   N31        1.0     0.233146     0.885695     0.827561    Uiso  ? N
   N32        1.0     0.113675     0.761880     0.593240    Uiso  ? N
   N33        1.0     0.892286     0.869500     0.340459    Uiso  ? N
   N34        1.0     0.769592     0.775953     0.086623    Uiso  ? N
   N35        1.0     0.566950     0.849553     0.824128    Uiso  ? N
   N36        1.0     0.445471     0.757988     0.577993    Uiso  ? N
