
#======================================================================
# CRYSTAL DATA
#----------------------------------------------------------------------
data_VESTA_phase_1

_chemical_name_common                  'Al   Mg   Hf   N                      '
_cell_length_a                         9.583957
_cell_length_b                         9.599034
_cell_length_c                         9.917221
_cell_angle_alpha                      89.995193
_cell_angle_beta                       89.985252
_cell_angle_gamma                      59.933804
_cell_volume                           789.592330
_space_group_name_H-M_alt              'P 1'
_space_group_IT_number                 1

loop_
_space_group_symop_operation_xyz
   'x, y, z'

loop_
   _atom_site_label
   _atom_site_occupancy
   _atom_site_fract_x
   _atom_site_fract_y
   _atom_site_fract_z
   _atom_site_adp_type
   _atom_site_U_iso_or_equiv
   _atom_site_type_symbol
   Al1        1.0     0.109211     0.096134     0.326734    Uiso  ? Al
   Al2        1.0     0.215171     0.210428     0.082111    Uiso  ? Al
   Al3        1.0     0.887089     0.206077     0.573958    Uiso  ? Al
   Al4        1.0     0.443933     0.093535     0.319848    Uiso  ? Al
   Al5        1.0     0.558430     0.210553     0.083590    Uiso  ? Al
   Al6        1.0     0.105484     0.103416     0.824733    Uiso  ? Al
   Al7        1.0     0.221185     0.206071     0.571049    Uiso  ? Al
   Al8        1.0     0.779794     0.094777     0.328028    Uiso  ? Al
   Al9        1.0     0.887136     0.207877     0.075917    Uiso  ? Al
   Al10       1.0     0.557388     0.205752     0.568709    Uiso  ? Al
   Al11       1.0     0.110794     0.428213     0.326430    Uiso  ? Al
   Al12       1.0     0.227062     0.529806     0.081213    Uiso  ? Al
   Al13       1.0     0.779696     0.426786     0.825815    Uiso  ? Al
   Al14       1.0     0.887852     0.537411     0.576969    Uiso  ? Al
   Al15       1.0     0.444122     0.430115     0.326192    Uiso  ? Al
   Al16       1.0     0.556338     0.536663     0.076601    Uiso  ? Al
   Al17       1.0     0.104693     0.428559     0.822645    Uiso  ? Al
   Al18       1.0     0.223092     0.537461     0.571931    Uiso  ? Al
   Al19       1.0     0.776751     0.427091     0.324030    Uiso  ? Al
   Al20       1.0     0.448036     0.427820     0.824004    Uiso  ? Al
   Al21       1.0     0.556558     0.537680     0.575530    Uiso  ? Al
   Al22       1.0     0.111423     0.760987     0.320435    Uiso  ? Al
   Al23       1.0     0.226651     0.877701     0.082239    Uiso  ? Al
   Al24       1.0     0.779705     0.751935     0.822374    Uiso  ? Al
   Al25       1.0     0.885968     0.874620     0.570107    Uiso  ? Al
   Al26       1.0     0.445510     0.758796     0.326977    Uiso  ? Al
   Al27       1.0     0.561399     0.863008     0.082733    Uiso  ? Al
   Al28       1.0     0.222708     0.873915     0.571855    Uiso  ? Al
   Al29       1.0     0.778480     0.759856     0.327100    Uiso  ? Al
   Al30       1.0     0.878850     0.875999     0.081983    Uiso  ? Al
   Al31       1.0     0.450369     0.755496     0.824491    Uiso  ? Al
   Al32       1.0     0.556088     0.870679     0.571226    Uiso  ? Al
   Mg1        1.0     0.777762     0.100259     0.824798    Uiso  ? Mg
   Mg2        1.0     0.888351     0.538296     0.077605    Uiso  ? Mg
   Hf1        1.0     0.446384     0.092772     0.840441    Uiso  ? Hf
   Hf2        1.0     0.110295     0.763234     0.841502    Uiso  ? Hf
   N1         1.0     0.223820     0.203884     0.379999    Uiso  ? N
   N2         1.0     0.109985     0.095866     0.135674    Uiso  ? N
   N3         1.0     0.895705     0.212358     0.885341    Uiso  ? N
   N4         1.0     0.776784     0.094235     0.616611    Uiso  ? N
   N5         1.0     0.552679     0.206083     0.375651    Uiso  ? N
   N6         1.0     0.444312     0.092094     0.121224    Uiso  ? N
   N7         1.0     0.205346     0.216355     0.887335    Uiso  ? N
   N8         1.0     0.112039     0.094567     0.630614    Uiso  ? N
   N9         1.0     0.890021     0.206357     0.382286    Uiso  ? N
   N10        1.0     0.779566     0.094928     0.134656    Uiso  ? N
   N11        1.0     0.550853     0.222389     0.893180    Uiso  ? N
   N12        1.0     0.444937     0.094445     0.627645    Uiso  ? N
   N13        1.0     0.221498     0.541579     0.380470    Uiso  ? N
   N14        1.0     0.124154     0.421531     0.138807    Uiso  ? N
   N15        1.0     0.888968     0.537378     0.867460    Uiso  ? N
   N16        1.0     0.776273     0.426558     0.631158    Uiso  ? N
   N17        1.0     0.554683     0.539356     0.384469    Uiso  ? N
   N18        1.0     0.444037     0.430893     0.135592    Uiso  ? N
   N19        1.0     0.230006     0.520873     0.885092    Uiso  ? N
   N20        1.0     0.113762     0.426282     0.628569    Uiso  ? N
   N21        1.0     0.888544     0.537663     0.383089    Uiso  ? N
   N22        1.0     0.768895     0.421253     0.135510    Uiso  ? N
   N23        1.0     0.553521     0.539341     0.881013    Uiso  ? N
   N24        1.0     0.444098     0.426992     0.630241    Uiso  ? N
   N25        1.0     0.221504     0.871933     0.379159    Uiso  ? N
   N26        1.0     0.112764     0.761592     0.120071    Uiso  ? N
   N27        1.0     0.873608     0.868006     0.889565    Uiso  ? N
   N28        1.0     0.776422     0.762815     0.627820    Uiso  ? N
   N29        1.0     0.553159     0.873486     0.380355    Uiso  ? N
   N30        1.0     0.445684     0.758414     0.135158    Uiso  ? N
   N31        1.0     0.233670     0.885669     0.887297    Uiso  ? N
   N32        1.0     0.111085     0.761732     0.628892    Uiso  ? N
   N33        1.0     0.892256     0.869972     0.378202    Uiso  ? N
   N34        1.0     0.771417     0.772374     0.140586    Uiso  ? N
   N35        1.0     0.567167     0.849541     0.888257    Uiso  ? N
   N36        1.0     0.443916     0.761649     0.631118    Uiso  ? N
