
#======================================================================
# CRYSTAL DATA
#----------------------------------------------------------------------
data_VESTA_phase_1

_chemical_name_common                  'Al   Mg   Hf   N                      '
_cell_length_a                         9.737293
_cell_length_b                         9.753306
_cell_length_c                         9.470922
_cell_angle_alpha                      89.993370
_cell_angle_beta                       90.019691
_cell_angle_gamma                      59.944893
_cell_volume                           778.523106
_space_group_name_H-M_alt              'P 1'
_space_group_IT_number                 1

loop_
_space_group_symop_operation_xyz
   'x, y, z'

loop_
   _atom_site_label
   _atom_site_occupancy
   _atom_site_fract_x
   _atom_site_fract_y
   _atom_site_fract_z
   _atom_site_adp_type
   _atom_site_U_iso_or_equiv
   _atom_site_type_symbol
   Al1        1.0     0.108178     0.096468     0.375707    Uiso  ? Al
   Al2        1.0     0.223155     0.206523     0.135274    Uiso  ? Al
   Al3        1.0     0.889069     0.206767     0.629371    Uiso  ? Al
   Al4        1.0     0.444642     0.094045     0.384419    Uiso  ? Al
   Al5        1.0     0.556667     0.205765     0.133911    Uiso  ? Al
   Al6        1.0     0.106630     0.102990     0.881597    Uiso  ? Al
   Al7        1.0     0.212936     0.210591     0.619368    Uiso  ? Al
   Al8        1.0     0.779305     0.095907     0.371524    Uiso  ? Al
   Al9        1.0     0.885197     0.207458     0.128849    Uiso  ? Al
   Al10       1.0     0.559507     0.211125     0.621403    Uiso  ? Al
   Al11       1.0     0.106876     0.430282     0.375789    Uiso  ? Al
   Al12       1.0     0.224006     0.536210     0.133947    Uiso  ? Al
   Al13       1.0     0.777765     0.425907     0.878942    Uiso  ? Al
   Al14       1.0     0.887958     0.538581     0.624536    Uiso  ? Al
   Al15       1.0     0.445086     0.429512     0.376534    Uiso  ? Al
   Al16       1.0     0.556970     0.536335     0.129119    Uiso  ? Al
   Al17       1.0     0.107556     0.427271     0.882409    Uiso  ? Al
   Al18       1.0     0.226761     0.530371     0.620146    Uiso  ? Al
   Al19       1.0     0.778203     0.428256     0.378581    Uiso  ? Al
   Al20       1.0     0.446481     0.429007     0.881979    Uiso  ? Al
   Al21       1.0     0.555383     0.538456     0.628178    Uiso  ? Al
   Al22       1.0     0.111779     0.761504     0.383556    Uiso  ? Al
   Al23       1.0     0.222930     0.873939     0.132669    Uiso  ? Al
   Al24       1.0     0.778446     0.754268     0.883921    Uiso  ? Al
   Al25       1.0     0.879520     0.875437     0.619113    Uiso  ? Al
   Al26       1.0     0.445388     0.758255     0.376279    Uiso  ? Al
   Al27       1.0     0.556147     0.872324     0.134908    Uiso  ? Al
   Al28       1.0     0.227189     0.878415     0.620908    Uiso  ? Al
   Al29       1.0     0.780518     0.755796     0.374194    Uiso  ? Al
   Al30       1.0     0.884892     0.875181     0.134938    Uiso  ? Al
   Al31       1.0     0.450001     0.756187     0.881096    Uiso  ? Al
   Al32       1.0     0.561775     0.860753     0.619383    Uiso  ? Al
   Mg1        1.0     0.778751     0.098176     0.877936    Uiso  ? Mg
   Mg2        1.0     0.888027     0.536337     0.123297    Uiso  ? Mg
   Hf1        1.0     0.445127     0.092445     0.860169    Uiso  ? Hf
   Hf2        1.0     0.110847     0.762375     0.859066    Uiso  ? Hf
   N1         1.0     0.224085     0.204705     0.337001    Uiso  ? N
   N2         1.0     0.112726     0.095037     0.084623    Uiso  ? N
   N3         1.0     0.896845     0.211028     0.827599    Uiso  ? N
   N4         1.0     0.778973     0.095972     0.576265    Uiso  ? N
   N5         1.0     0.551942     0.206375     0.336725    Uiso  ? N
   N6         1.0     0.444299     0.093535     0.084576    Uiso  ? N
   N7         1.0     0.204651     0.216007     0.822473    Uiso  ? N
   N8         1.0     0.109463     0.095670     0.575112    Uiso  ? N
   N9         1.0     0.889309     0.207954     0.330978    Uiso  ? N
   N10        1.0     0.777285     0.093741     0.098968    Uiso  ? N
   N11        1.0     0.550626     0.222292     0.822028    Uiso  ? N
   N12        1.0     0.445130     0.092320     0.592071    Uiso  ? N
   N13        1.0     0.221154     0.541473     0.336118    Uiso  ? N
   N14        1.0     0.127903     0.419222     0.081511    Uiso  ? N
   N15        1.0     0.889108     0.537824     0.831953    Uiso  ? N
   N16        1.0     0.775345     0.428002     0.581690    Uiso  ? N
   N17        1.0     0.555606     0.538803     0.329955    Uiso  ? N
   N18        1.0     0.443244     0.428221     0.084286    Uiso  ? N
   N19        1.0     0.230153     0.521205     0.824342    Uiso  ? N
   N20        1.0     0.110280     0.428772     0.577218    Uiso  ? N
   N21        1.0     0.888301     0.536872     0.340780    Uiso  ? N
   N22        1.0     0.768596     0.420266     0.076988    Uiso  ? N
   N23        1.0     0.551620     0.540605     0.829978    Uiso  ? N
   N24        1.0     0.445248     0.429987     0.575886    Uiso  ? N
   N25        1.0     0.221493     0.872003     0.334213    Uiso  ? N
   N26        1.0     0.111458     0.761549     0.083908    Uiso  ? N
   N27        1.0     0.874965     0.866880     0.820780    Uiso  ? N
   N28        1.0     0.778280     0.758632     0.574664    Uiso  ? N
   N29        1.0     0.553545     0.873672     0.336338    Uiso  ? N
   N30        1.0     0.444315     0.761822     0.083573    Uiso  ? N
   N31        1.0     0.233422     0.885878     0.825716    Uiso  ? N
   N32        1.0     0.113586     0.761830     0.592341    Uiso  ? N
   N33        1.0     0.892259     0.869338     0.338225    Uiso  ? N
   N34        1.0     0.769558     0.776208     0.083379    Uiso  ? N
   N35        1.0     0.566968     0.849220     0.822360    Uiso  ? N
   N36        1.0     0.445463     0.758084     0.576199    Uiso  ? N
