
#======================================================================
# CRYSTAL DATA
#----------------------------------------------------------------------
data_VESTA_phase_1

_chemical_name_common                  'Al   Mg   Hf   N                      '
_cell_length_a                         9.691257
_cell_length_b                         9.706904
_cell_length_c                         9.616126
_cell_angle_alpha                      89.997650
_cell_angle_beta                       89.991356
_cell_angle_gamma                      59.931190
_cell_volume                           782.870759
_space_group_name_H-M_alt              'P 1'
_space_group_IT_number                 1

loop_
_space_group_symop_operation_xyz
   'x, y, z'

loop_
   _atom_site_label
   _atom_site_occupancy
   _atom_site_fract_x
   _atom_site_fract_y
   _atom_site_fract_z
   _atom_site_adp_type
   _atom_site_U_iso_or_equiv
   _atom_site_type_symbol
   Al1        1.0     0.108187     0.096841     0.330353    Uiso  ? Al
   Al2        1.0     0.213921     0.210561     0.085632    Uiso  ? Al
   Al3        1.0     0.886767     0.206862     0.578475    Uiso  ? Al
   Al4        1.0     0.443949     0.093376     0.321567    Uiso  ? Al
   Al5        1.0     0.559268     0.211379     0.087532    Uiso  ? Al
   Al6        1.0     0.106707     0.102539     0.825875    Uiso  ? Al
   Al7        1.0     0.222018     0.206040     0.573130    Uiso  ? Al
   Al8        1.0     0.780444     0.094939     0.333430    Uiso  ? Al
   Al9        1.0     0.887361     0.207114     0.076670    Uiso  ? Al
   Al10       1.0     0.556791     0.205335     0.571146    Uiso  ? Al
   Al11       1.0     0.110105     0.428715     0.329026    Uiso  ? Al
   Al12       1.0     0.228120     0.528751     0.084552    Uiso  ? Al
   Al13       1.0     0.779367     0.427224     0.829527    Uiso  ? Al
   Al14       1.0     0.887815     0.537035     0.581565    Uiso  ? Al
   Al15       1.0     0.444246     0.430604     0.329849    Uiso  ? Al
   Al16       1.0     0.555636     0.536864     0.077972    Uiso  ? Al
   Al17       1.0     0.105134     0.428451     0.825877    Uiso  ? Al
   Al18       1.0     0.222624     0.537930     0.574370    Uiso  ? Al
   Al19       1.0     0.776837     0.426834     0.325609    Uiso  ? Al
   Al20       1.0     0.447399     0.427988     0.825326    Uiso  ? Al
   Al21       1.0     0.556949     0.537635     0.578550    Uiso  ? Al
   Al22       1.0     0.111354     0.761066     0.322417    Uiso  ? Al
   Al23       1.0     0.227181     0.878406     0.086362    Uiso  ? Al
   Al24       1.0     0.779489     0.752106     0.824815    Uiso  ? Al
   Al25       1.0     0.886588     0.874102     0.573412    Uiso  ? Al
   Al26       1.0     0.445942     0.758102     0.330034    Uiso  ? Al
   Al27       1.0     0.561678     0.861747     0.085906    Uiso  ? Al
   Al28       1.0     0.222783     0.873666     0.573618    Uiso  ? Al
   Al29       1.0     0.778990     0.759206     0.330408    Uiso  ? Al
   Al30       1.0     0.877721     0.876949     0.085149    Uiso  ? Al
   Al31       1.0     0.449593     0.756339     0.826260    Uiso  ? Al
   Al32       1.0     0.555834     0.871238     0.573527    Uiso  ? Al
   Mg1        1.0     0.777487     0.099422     0.828556    Uiso  ? Mg
   Mg2        1.0     0.888193     0.538444     0.081642    Uiso  ? Mg
   Hf1        1.0     0.445918     0.093024     0.847727    Uiso  ? Hf
   Hf2        1.0     0.110953     0.762896     0.848447    Uiso  ? Hf
   N1         1.0     0.224148     0.203915     0.376239    Uiso  ? N
   N2         1.0     0.109109     0.096326     0.133766    Uiso  ? N
   N3         1.0     0.896292     0.211445     0.880185    Uiso  ? N
   N4         1.0     0.776417     0.094234     0.612622    Uiso  ? N
   N5         1.0     0.552164     0.206006     0.371898    Uiso  ? N
   N6         1.0     0.444233     0.091725     0.116811    Uiso  ? N
   N7         1.0     0.204655     0.216358     0.884699    Uiso  ? N
   N8         1.0     0.112881     0.094276     0.626454    Uiso  ? N
   N9         1.0     0.889745     0.207328     0.380963    Uiso  ? N
   N10        1.0     0.780016     0.095073     0.133013    Uiso  ? N
   N11        1.0     0.550871     0.222917     0.890364    Uiso  ? N
   N12        1.0     0.444981     0.094219     0.626625    Uiso  ? N
   N13        1.0     0.221070     0.542155     0.377102    Uiso  ? N
   N14        1.0     0.123843     0.421754     0.135530    Uiso  ? N
   N15        1.0     0.889111     0.537557     0.864196    Uiso  ? N
   N16        1.0     0.775712     0.427002     0.629620    Uiso  ? N
   N17        1.0     0.555312     0.539135     0.382117    Uiso  ? N
   N18        1.0     0.444258     0.431277     0.133805    Uiso  ? N
   N19        1.0     0.230388     0.520584     0.882332    Uiso  ? N
   N20        1.0     0.114278     0.426013     0.625732    Uiso  ? N
   N21        1.0     0.888393     0.537164     0.380813    Uiso  ? N
   N22        1.0     0.768701     0.420896     0.130670    Uiso  ? N
   N23        1.0     0.552399     0.539995     0.877368    Uiso  ? N
   N24        1.0     0.444001     0.426850     0.626156    Uiso  ? N
   N25        1.0     0.221404     0.871800     0.375172    Uiso  ? N
   N26        1.0     0.113044     0.761618     0.116024    Uiso  ? N
   N27        1.0     0.873904     0.867760     0.886034    Uiso  ? N
   N28        1.0     0.776168     0.763036     0.624385    Uiso  ? N
   N29        1.0     0.552881     0.873759     0.376869    Uiso  ? N
   N30        1.0     0.446057     0.757767     0.132891    Uiso  ? N
   N31        1.0     0.233817     0.886109     0.885002    Uiso  ? N
   N32        1.0     0.111749     0.761810     0.627667    Uiso  ? N
   N33        1.0     0.893028     0.869378     0.375377    Uiso  ? N
   N34        1.0     0.771516     0.772178     0.137922    Uiso  ? N
   N35        1.0     0.567234     0.849148     0.885195    Uiso  ? N
   N36        1.0     0.443767     0.761929     0.627370    Uiso  ? N
