
#======================================================================
# CRYSTAL DATA
#----------------------------------------------------------------------
data_VESTA_phase_1

_chemical_name_common                  'Al   Mg   Hf   N                      '
_cell_length_a                         9.633001
_cell_length_b                         9.648556
_cell_length_c                         9.771421
_cell_angle_alpha                      89.993835
_cell_angle_beta                       90.024971
_cell_angle_gamma                      59.940975
_cell_volume                           786.056242
_space_group_name_H-M_alt              'P 1'
_space_group_IT_number                 1

loop_
_space_group_symop_operation_xyz
   'x, y, z'

loop_
   _atom_site_label
   _atom_site_occupancy
   _atom_site_fract_x
   _atom_site_fract_y
   _atom_site_fract_z
   _atom_site_adp_type
   _atom_site_U_iso_or_equiv
   _atom_site_type_symbol
   Al1        1.0     0.108988     0.096244     0.379168    Uiso  ? Al
   Al2        1.0     0.222209     0.207185     0.136631    Uiso  ? Al
   Al3        1.0     0.889142     0.206617     0.631297    Uiso  ? Al
   Al4        1.0     0.444391     0.093989     0.386781    Uiso  ? Al
   Al5        1.0     0.557068     0.205891     0.137166    Uiso  ? Al
   Al6        1.0     0.105686     0.103446     0.883739    Uiso  ? Al
   Al7        1.0     0.214049     0.209889     0.624469    Uiso  ? Al
   Al8        1.0     0.779055     0.095451     0.376407    Uiso  ? Al
   Al9        1.0     0.885158     0.207490     0.132889    Uiso  ? Al
   Al10       1.0     0.558963     0.210605     0.624997    Uiso  ? Al
   Al11       1.0     0.107198     0.430051     0.380077    Uiso  ? Al
   Al12       1.0     0.223801     0.535830     0.135563    Uiso  ? Al
   Al13       1.0     0.777896     0.425228     0.881261    Uiso  ? Al
   Al14       1.0     0.888083     0.538444     0.629536    Uiso  ? Al
   Al15       1.0     0.444638     0.429474     0.379727    Uiso  ? Al
   Al16       1.0     0.557405     0.536019     0.131667    Uiso  ? Al
   Al17       1.0     0.107403     0.427245     0.884479    Uiso  ? Al
   Al18       1.0     0.226532     0.531045     0.625129    Uiso  ? Al
   Al19       1.0     0.778318     0.428746     0.382293    Uiso  ? Al
   Al20       1.0     0.447343     0.428499     0.884553    Uiso  ? Al
   Al21       1.0     0.555232     0.538530     0.630879    Uiso  ? Al
   Al22       1.0     0.111650     0.761192     0.386333    Uiso  ? Al
   Al23       1.0     0.222694     0.874007     0.134981    Uiso  ? Al
   Al24       1.0     0.778538     0.754370     0.885202    Uiso  ? Al
   Al25       1.0     0.880320     0.875279     0.623873    Uiso  ? Al
   Al26       1.0     0.445409     0.758723     0.379182    Uiso  ? Al
   Al27       1.0     0.557012     0.871650     0.136468    Uiso  ? Al
   Al28       1.0     0.226932     0.877938     0.625041    Uiso  ? Al
   Al29       1.0     0.780267     0.756111     0.379313    Uiso  ? Al
   Al30       1.0     0.884326     0.875077     0.137334    Uiso  ? Al
   Al31       1.0     0.450390     0.755600     0.883822    Uiso  ? Al
   Al32       1.0     0.560978     0.861825     0.624064    Uiso  ? Al
   Mg1        1.0     0.778567     0.099258     0.883276    Uiso  ? Mg
   Mg2        1.0     0.887910     0.536831     0.127330    Uiso  ? Mg
   Hf1        1.0     0.445839     0.092374     0.866800    Uiso  ? Hf
   Hf2        1.0     0.110494     0.762922     0.865078    Uiso  ? Hf
   N1         1.0     0.223727     0.205088     0.332255    Uiso  ? N
   N2         1.0     0.112050     0.095113     0.080407    Uiso  ? N
   N3         1.0     0.896675     0.211081     0.822779    Uiso  ? N
   N4         1.0     0.778813     0.095685     0.573661    Uiso  ? N
   N5         1.0     0.552207     0.206310     0.333300    Uiso  ? N
   N6         1.0     0.444339     0.093868     0.082311    Uiso  ? N
   N7         1.0     0.205220     0.215589     0.820062    Uiso  ? N
   N8         1.0     0.110095     0.095484     0.572651    Uiso  ? N
   N9         1.0     0.889235     0.207805     0.328872    Uiso  ? N
   N10        1.0     0.777440     0.093815     0.095171    Uiso  ? N
   N11        1.0     0.550865     0.222252     0.818036    Uiso  ? N
   N12        1.0     0.444988     0.092439     0.588310    Uiso  ? N
   N13        1.0     0.221071     0.541034     0.331659    Uiso  ? N
   N14        1.0     0.127673     0.419354     0.076237    Uiso  ? N
   N15        1.0     0.889037     0.537658     0.828898    Uiso  ? N
   N16        1.0     0.775524     0.428297     0.578843    Uiso  ? N
   N17        1.0     0.555716     0.538680     0.326860    Uiso  ? N
   N18        1.0     0.443445     0.428065     0.080441    Uiso  ? N
   N19        1.0     0.230379     0.521328     0.821829    Uiso  ? N
   N20        1.0     0.110487     0.428548     0.575450    Uiso  ? N
   N21        1.0     0.888438     0.537361     0.337540    Uiso  ? N
   N22        1.0     0.768993     0.419696     0.072895    Uiso  ? N
   N23        1.0     0.551953     0.540344     0.826607    Uiso  ? N
   N24        1.0     0.444915     0.429928     0.573223    Uiso  ? N
   N25        1.0     0.221441     0.872002     0.330348    Uiso  ? N
   N26        1.0     0.111024     0.761617     0.081069    Uiso  ? N
   N27        1.0     0.874530     0.867796     0.817544    Uiso  ? N
   N28        1.0     0.778206     0.758766     0.573455    Uiso  ? N
   N29        1.0     0.554224     0.873370     0.331879    Uiso  ? N
   N30        1.0     0.444272     0.761642     0.079779    Uiso  ? N
   N31        1.0     0.233607     0.885761     0.822604    Uiso  ? N
   N32        1.0     0.113260     0.761709     0.589012    Uiso  ? N
   N33        1.0     0.891654     0.869343     0.334159    Uiso  ? N
   N34        1.0     0.769555     0.776467     0.077283    Uiso  ? N
   N35        1.0     0.566541     0.849417     0.819445    Uiso  ? N
   N36        1.0     0.445390     0.758438     0.573374    Uiso  ? N
