
#======================================================================
# CRYSTAL DATA
#----------------------------------------------------------------------
data_VESTA_phase_1

_chemical_name_common                  'Al   Mg   Hf   N                      '
_cell_length_a                         9.925101
_cell_length_b                         9.940549
_cell_length_c                         8.911117
_cell_angle_alpha                      89.992638
_cell_angle_beta                       89.991859
_cell_angle_gamma                      59.929718
_cell_volume                           760.851777
_space_group_name_H-M_alt              'P 1'
_space_group_IT_number                 1

loop_
_space_group_symop_operation_xyz
   'x, y, z'

loop_
   _atom_site_label
   _atom_site_occupancy
   _atom_site_fract_x
   _atom_site_fract_y
   _atom_site_fract_z
   _atom_site_adp_type
   _atom_site_U_iso_or_equiv
   _atom_site_type_symbol
   Al1        1.0     0.105732     0.098423     0.341580    Uiso  ? Al
   Al2        1.0     0.215798     0.208633     0.100831    Uiso  ? Al
   Al3        1.0     0.886149     0.208602     0.593624    Uiso  ? Al
   Al4        1.0     0.444410     0.093651     0.337403    Uiso  ? Al
   Al5        1.0     0.559179     0.210877     0.100510    Uiso  ? Al
   Al6        1.0     0.109149     0.100406     0.833807    Uiso  ? Al
   Al7        1.0     0.220302     0.207892     0.579928    Uiso  ? Al
   Al8        1.0     0.781186     0.095880     0.347288    Uiso  ? Al
   Al9        1.0     0.888118     0.205362     0.082518    Uiso  ? Al
   Al10       1.0     0.557069     0.206158     0.579863    Uiso  ? Al
   Al11       1.0     0.107923     0.429784     0.336962    Uiso  ? Al
   Al12       1.0     0.228001     0.530861     0.099887    Uiso  ? Al
   Al13       1.0     0.778483     0.428098     0.842595    Uiso  ? Al
   Al14       1.0     0.887743     0.536589     0.595850    Uiso  ? Al
   Al15       1.0     0.445442     0.430594     0.340828    Uiso  ? Al
   Al16       1.0     0.554247     0.537472     0.086054    Uiso  ? Al
   Al17       1.0     0.106637     0.428235     0.841151    Uiso  ? Al
   Al18       1.0     0.223003     0.535657     0.581774    Uiso  ? Al
   Al19       1.0     0.777370     0.426262     0.333411    Uiso  ? Al
   Al20       1.0     0.445775     0.428836     0.833874    Uiso  ? Al
   Al21       1.0     0.557957     0.537464     0.588944    Uiso  ? Al
   Al22       1.0     0.110832     0.761523     0.339087    Uiso  ? Al
   Al23       1.0     0.226153     0.877861     0.101724    Uiso  ? Al
   Al24       1.0     0.779038     0.752974     0.838425    Uiso  ? Al
   Al25       1.0     0.884447     0.874176     0.584034    Uiso  ? Al
   Al26       1.0     0.446910     0.756519     0.339888    Uiso  ? Al
   Al27       1.0     0.559797     0.863962     0.100658    Uiso  ? Al
   Al28       1.0     0.224297     0.874529     0.579744    Uiso  ? Al
   Al29       1.0     0.780333     0.757302     0.339554    Uiso  ? Al
   Al30       1.0     0.879646     0.877201     0.099055    Uiso  ? Al
   Al31       1.0     0.448000     0.757763     0.835694    Uiso  ? Al
   Al32       1.0     0.557336     0.868998     0.580553    Uiso  ? Al
   Mg1        1.0     0.777315     0.097832     0.842450    Uiso  ? Mg
   Mg2        1.0     0.887843     0.538287     0.094250    Uiso  ? Mg
   Hf1        1.0     0.444911     0.093172     0.854626    Uiso  ? Hf
   Hf2        1.0     0.112236     0.762072     0.854585    Uiso  ? Hf
   N1         1.0     0.222679     0.205223     0.363726    Uiso  ? N
   N2         1.0     0.108118     0.096785     0.125040    Uiso  ? N
   N3         1.0     0.896937     0.209862     0.864138    Uiso  ? N
   N4         1.0     0.776057     0.094333     0.600763    Uiso  ? N
   N5         1.0     0.552662     0.206733     0.360753    Uiso  ? N
   N6         1.0     0.444308     0.091764     0.114079    Uiso  ? N
   N7         1.0     0.206877     0.214158     0.873776    Uiso  ? N
   N8         1.0     0.114204     0.093804     0.613817    Uiso  ? N
   N9         1.0     0.888885     0.208798     0.374450    Uiso  ? N
   N10        1.0     0.780226     0.095438     0.124232    Uiso  ? N
   N11        1.0     0.549725     0.221543     0.877545    Uiso  ? N
   N12        1.0     0.444903     0.093720     0.610311    Uiso  ? N
   N13        1.0     0.221315     0.540843     0.364965    Uiso  ? N
   N14        1.0     0.122919     0.422307     0.121788    Uiso  ? N
   N15        1.0     0.889424     0.537731     0.852559    Uiso  ? N
   N16        1.0     0.774769     0.428180     0.622346    Uiso  ? N
   N17        1.0     0.556508     0.538586     0.373026    Uiso  ? N
   N18        1.0     0.444702     0.431104     0.125008    Uiso  ? N
   N19        1.0     0.229815     0.523351     0.871416    Uiso  ? N
   N20        1.0     0.114521     0.425855     0.616133    Uiso  ? N
   N21        1.0     0.888134     0.536348     0.372075    Uiso  ? N
   N22        1.0     0.769012     0.420595     0.115734    Uiso  ? N
   N23        1.0     0.550855     0.540941     0.865861    Uiso  ? N
   N24        1.0     0.443915     0.427016     0.613934    Uiso  ? N
   N25        1.0     0.222227     0.872539     0.362673    Uiso  ? N
   N26        1.0     0.113024     0.761707     0.113568    Uiso  ? N
   N27        1.0     0.877796     0.866623     0.871518    Uiso  ? N
   N28        1.0     0.775776     0.762738     0.613358    Uiso  ? N
   N29        1.0     0.553679     0.872160     0.364619    Uiso  ? N
   N30        1.0     0.446171     0.757428     0.123320    Uiso  ? N
   N31        1.0     0.232258     0.884838     0.874865    Uiso  ? N
   N32        1.0     0.113038     0.761684     0.610860    Uiso  ? N
   N33        1.0     0.891753     0.869783     0.364726    Uiso  ? N
   N34        1.0     0.772099     0.771536     0.125200    Uiso  ? N
   N35        1.0     0.565108     0.852192     0.873507    Uiso  ? N
   N36        1.0     0.443722     0.762068     0.615709    Uiso  ? N
