
#======================================================================
# CRYSTAL DATA
#----------------------------------------------------------------------
data_VESTA_phase_1

_chemical_name_common                  'Al   Mg   Hf   N                      '
_cell_length_a                         10.038892
_cell_length_b                         10.054446
_cell_length_c                         8.563514
_cell_angle_alpha                      89.991074
_cell_angle_beta                       89.992935
_cell_angle_gamma                      59.933067
_cell_volume                           748.054510
_space_group_name_H-M_alt              'P 1'
_space_group_IT_number                 1

loop_
_space_group_symop_operation_xyz
   'x, y, z'

loop_
   _atom_site_label
   _atom_site_occupancy
   _atom_site_fract_x
   _atom_site_fract_y
   _atom_site_fract_z
   _atom_site_adp_type
   _atom_site_U_iso_or_equiv
   _atom_site_type_symbol
   Al1        1.0     0.106125     0.098098     0.350140    Uiso  ? Al
   Al2        1.0     0.217987     0.207676     0.112067    Uiso  ? Al
   Al3        1.0     0.886530     0.208348     0.602240    Uiso  ? Al
   Al4        1.0     0.444759     0.094120     0.350805    Uiso  ? Al
   Al5        1.0     0.558878     0.209603     0.107776    Uiso  ? Al
   Al6        1.0     0.108552     0.100424     0.844929    Uiso  ? Al
   Al7        1.0     0.217809     0.209197     0.589519    Uiso  ? Al
   Al8        1.0     0.780545     0.096118     0.353254    Uiso  ? Al
   Al9        1.0     0.887533     0.205624     0.092941    Uiso  ? Al
   Al10       1.0     0.558221     0.207482     0.590746    Uiso  ? Al
   Al11       1.0     0.107407     0.429831     0.347603    Uiso  ? Al
   Al12       1.0     0.227070     0.532416     0.111784    Uiso  ? Al
   Al13       1.0     0.778380     0.428094     0.851855    Uiso  ? Al
   Al14       1.0     0.887615     0.537445     0.601849    Uiso  ? Al
   Al15       1.0     0.445761     0.429579     0.349724    Uiso  ? Al
   Al16       1.0     0.554717     0.537447     0.097549    Uiso  ? Al
   Al17       1.0     0.106435     0.428615     0.855413    Uiso  ? Al
   Al18       1.0     0.224039     0.533625     0.590956    Uiso  ? Al
   Al19       1.0     0.777737     0.426431     0.343779    Uiso  ? Al
   Al20       1.0     0.445476     0.429663     0.845543    Uiso  ? Al
   Al21       1.0     0.557543     0.537607     0.597049    Uiso  ? Al
   Al22       1.0     0.110722     0.761927     0.351935    Uiso  ? Al
   Al23       1.0     0.225497     0.877132     0.110269    Uiso  ? Al
   Al24       1.0     0.779436     0.752847     0.856404    Uiso  ? Al
   Al25       1.0     0.881911     0.874788     0.595324    Uiso  ? Al
   Al26       1.0     0.446376     0.757116     0.349310    Uiso  ? Al
   Al27       1.0     0.558190     0.866651     0.112739    Uiso  ? Al
   Al28       1.0     0.225178     0.875715     0.588396    Uiso  ? Al
   Al29       1.0     0.780716     0.756659     0.349499    Uiso  ? Al
   Al30       1.0     0.881150     0.877284     0.111151    Uiso  ? Al
   Al31       1.0     0.448149     0.757269     0.846739    Uiso  ? Al
   Al32       1.0     0.559298     0.866091     0.590335    Uiso  ? Al
   Mg1        1.0     0.778218     0.097334     0.850847    Uiso  ? Mg
   Mg2        1.0     0.887880     0.537244     0.103402    Uiso  ? Mg
   Hf1        1.0     0.444464     0.092916     0.854778    Uiso  ? Hf
   Hf2        1.0     0.112339     0.761564     0.854653    Uiso  ? Hf
   N1         1.0     0.221845     0.205559     0.356792    Uiso  ? N
   N2         1.0     0.109702     0.096275     0.114321    Uiso  ? N
   N3         1.0     0.896262     0.210201     0.855640    Uiso  ? N
   N4         1.0     0.776757     0.094714     0.595100    Uiso  ? N
   N5         1.0     0.553238     0.207302     0.355162    Uiso  ? N
   N6         1.0     0.444364     0.092280     0.112932    Uiso  ? N
   N7         1.0     0.208415     0.213519     0.859011    Uiso  ? N
   N8         1.0     0.112989     0.094281     0.604800    Uiso  ? N
   N9         1.0     0.889068     0.207940     0.363658    Uiso  ? N
   N10        1.0     0.779262     0.095068     0.117126    Uiso  ? N
   N11        1.0     0.549709     0.219822     0.862919    Uiso  ? N
   N12        1.0     0.445011     0.093384     0.598583    Uiso  ? N
   N13        1.0     0.221928     0.539954     0.357173    Uiso  ? N
   N14        1.0     0.123453     0.421859     0.110206    Uiso  ? N
   N15        1.0     0.889400     0.537719     0.847022    Uiso  ? N
   N16        1.0     0.774934     0.428318     0.611732    Uiso  ? N
   N17        1.0     0.555832     0.538786     0.361976    Uiso  ? N
   N18        1.0     0.444245     0.430117     0.113904    Uiso  ? N
   N19        1.0     0.228665     0.525008     0.857572    Uiso  ? N
   N20        1.0     0.113005     0.426836     0.604472    Uiso  ? N
   N21        1.0     0.888139     0.536344     0.364272    Uiso  ? N
   N22        1.0     0.769295     0.421054     0.106911    Uiso  ? N
   N23        1.0     0.551488     0.540803     0.857354    Uiso  ? N
   N24        1.0     0.444368     0.427802     0.605002    Uiso  ? N
   N25        1.0     0.222615     0.873243     0.355867    Uiso  ? N
   N26        1.0     0.112776     0.761676     0.112324    Uiso  ? N
   N27        1.0     0.879546     0.866184     0.855172    Uiso  ? N
   N28        1.0     0.776570     0.761230     0.601157    Uiso  ? N
   N29        1.0     0.554263     0.871250     0.356837    Uiso  ? N
   N30        1.0     0.445641     0.758948     0.112766    Uiso  ? N
   N31        1.0     0.231174     0.883520     0.862174    Uiso  ? N
   N32        1.0     0.113475     0.761726     0.599004    Uiso  ? N
   N33        1.0     0.890668     0.870410     0.356857    Uiso  ? N
   N34        1.0     0.771845     0.771922     0.111562    Uiso  ? N
   N35        1.0     0.564150     0.854224     0.858142    Uiso  ? N
   N36        1.0     0.444150     0.760966     0.605792    Uiso  ? N
