
#======================================================================
# CRYSTAL DATA
#----------------------------------------------------------------------
data_VESTA_phase_1

_chemical_name_common                  'Al   Mg   Hf   N                      '
_cell_length_a                         9.965438
_cell_length_b                         9.980941
_cell_length_c                         8.785685
_cell_angle_alpha                      89.991531
_cell_angle_beta                       89.991669
_cell_angle_gamma                      59.929882
_cell_volume                           756.252483
_space_group_name_H-M_alt              'P 1'
_space_group_IT_number                 1

loop_
_space_group_symop_operation_xyz
   'x, y, z'

loop_
   _atom_site_label
   _atom_site_occupancy
   _atom_site_fract_x
   _atom_site_fract_y
   _atom_site_fract_z
   _atom_site_adp_type
   _atom_site_U_iso_or_equiv
   _atom_site_type_symbol
   Al1        1.0     0.105613     0.098476     0.344247    Uiso  ? Al
   Al2        1.0     0.216521     0.208212     0.104548    Uiso  ? Al
   Al3        1.0     0.886139     0.208702     0.596693    Uiso  ? Al
   Al4        1.0     0.444542     0.093803     0.342014    Uiso  ? Al
   Al5        1.0     0.559046     0.210523     0.103093    Uiso  ? Al
   Al6        1.0     0.109176     0.100248     0.836627    Uiso  ? Al
   Al7        1.0     0.219559     0.208365     0.582391    Uiso  ? Al
   Al8        1.0     0.781079     0.096034     0.349581    Uiso  ? Al
   Al9        1.0     0.888092     0.205266     0.085051    Uiso  ? Al
   Al10       1.0     0.557414     0.206514     0.582841    Uiso  ? Al
   Al11       1.0     0.107657     0.429850     0.339681    Uiso  ? Al
   Al12       1.0     0.227729     0.531499     0.103885    Uiso  ? Al
   Al13       1.0     0.778421     0.428158     0.845592    Uiso  ? Al
   Al14       1.0     0.887711     0.536718     0.598229    Uiso  ? Al
   Al15       1.0     0.445666     0.430319     0.343493    Uiso  ? Al
   Al16       1.0     0.554219     0.537523     0.088953    Uiso  ? Al
   Al17       1.0     0.106670     0.428329     0.845639    Uiso  ? Al
   Al18       1.0     0.223276     0.534958     0.584245    Uiso  ? Al
   Al19       1.0     0.777474     0.426240     0.336135    Uiso  ? Al
   Al20       1.0     0.445589     0.429103     0.836854    Uiso  ? Al
   Al21       1.0     0.557988     0.537467     0.591390    Uiso  ? Al
   Al22       1.0     0.110759     0.761664     0.343811    Uiso  ? Al
   Al23       1.0     0.225868     0.877617     0.104887    Uiso  ? Al
   Al24       1.0     0.779118     0.752939     0.843340    Uiso  ? Al
   Al25       1.0     0.883627     0.874386     0.587443    Uiso  ? Al
   Al26       1.0     0.446873     0.756506     0.342552    Uiso  ? Al
   Al27       1.0     0.559242     0.864830     0.104540    Uiso  ? Al
   Al28       1.0     0.224643     0.874887     0.581983    Uiso  ? Al
   Al29       1.0     0.780509     0.757041     0.342204    Uiso  ? Al
   Al30       1.0     0.880286     0.877178     0.103007    Uiso  ? Al
   Al31       1.0     0.447905     0.757740     0.838653    Uiso  ? Al
   Al32       1.0     0.557909     0.868136     0.583026    Uiso  ? Al
   Mg1        1.0     0.777496     0.097646     0.845462    Uiso  ? Mg
   Mg2        1.0     0.887810     0.538052     0.097240    Uiso  ? Mg
   Hf1        1.0     0.444747     0.093106     0.854998    Uiso  ? Hf
   Hf2        1.0     0.112367     0.761903     0.854892    Uiso  ? Hf
   N1         1.0     0.222330     0.205439     0.361148    Uiso  ? N
   N2         1.0     0.108370     0.096691     0.122209    Uiso  ? N
   N3         1.0     0.896830     0.209804     0.861014    Uiso  ? N
   N4         1.0     0.776182     0.094416     0.598657    Uiso  ? N
   N5         1.0     0.552907     0.206908     0.358721    Uiso  ? N
   N6         1.0     0.444348     0.091924     0.113839    Uiso  ? N
   N7         1.0     0.207471     0.213770     0.869892    Uiso  ? N
   N8         1.0     0.114053     0.093878     0.610929    Uiso  ? N
   N9         1.0     0.888813     0.208721     0.371814    Uiso  ? N
   N10        1.0     0.780021     0.095417     0.121864    Uiso  ? N
   N11        1.0     0.549633     0.221023     0.873376    Uiso  ? N
   N12        1.0     0.444906     0.093609     0.605987    Uiso  ? N
   N13        1.0     0.221486     0.540480     0.362192    Uiso  ? N
   N14        1.0     0.122938     0.422267     0.118119    Uiso  ? N
   N15        1.0     0.889455     0.537688     0.850482    Uiso  ? N
   N16        1.0     0.774767     0.428322     0.619667    Uiso  ? N
   N17        1.0     0.556489     0.538565     0.370125    Uiso  ? N
   N18        1.0     0.444665     0.430836     0.122090    Uiso  ? N
   N19        1.0     0.229511     0.523997     0.867644    Uiso  ? N
   N20        1.0     0.114159     0.426071     0.612993    Uiso  ? N
   N21        1.0     0.888099     0.536289     0.369594    Uiso  ? N
   N22        1.0     0.769112     0.420664     0.112635    Uiso  ? N
   N23        1.0     0.550871     0.540979     0.863212    Uiso  ? N
   N24        1.0     0.443994     0.427209     0.611117    Uiso  ? N
   N25        1.0     0.222404     0.872769     0.360234    Uiso  ? N
   N26        1.0     0.112945     0.761734     0.113272    Uiso  ? N
   N27        1.0     0.878531     0.866504     0.866692    Uiso  ? N
   N28        1.0     0.775919     0.762321     0.610087    Uiso  ? N
   N29        1.0     0.553918     0.871778     0.361862    Uiso  ? N
   N30        1.0     0.446029     0.757727     0.120446    Uiso  ? N
   N31        1.0     0.231874     0.884435     0.871362    Uiso  ? N
   N32        1.0     0.113224     0.761662     0.606425    Uiso  ? N
   N33        1.0     0.891310     0.870037     0.362076    Uiso  ? N
   N34        1.0     0.772135     0.771540     0.121209    Uiso  ? N
   N35        1.0     0.564626     0.852964     0.869500    Uiso  ? N
   N36        1.0     0.443824     0.761845     0.612754    Uiso  ? N
