
#======================================================================
# CRYSTAL DATA
#----------------------------------------------------------------------
data_VESTA_phase_1

_chemical_name_common                  'Al   Mg   Hf   N                      '
_cell_length_a                         9.882607
_cell_length_b                         9.898060
_cell_length_c                         9.043037
_cell_angle_alpha                      89.993858
_cell_angle_beta                       89.992119
_cell_angle_gamma                      59.929752
_cell_volume                           765.523765
_space_group_name_H-M_alt              'P 1'
_space_group_IT_number                 1

loop_
_space_group_symop_operation_xyz
   'x, y, z'

loop_
   _atom_site_label
   _atom_site_occupancy
   _atom_site_fract_x
   _atom_site_fract_y
   _atom_site_fract_z
   _atom_site_adp_type
   _atom_site_U_iso_or_equiv
   _atom_site_type_symbol
   Al1        1.0     0.106032     0.098247     0.339052    Uiso  ? Al
   Al2        1.0     0.215127     0.209093     0.097248    Uiso  ? Al
   Al3        1.0     0.886225     0.208380     0.590427    Uiso  ? Al
   Al4        1.0     0.444279     0.093524     0.333078    Uiso  ? Al
   Al5        1.0     0.559314     0.211164     0.097833    Uiso  ? Al
   Al6        1.0     0.108924     0.100686     0.831524    Uiso  ? Al
   Al7        1.0     0.220949     0.207414     0.577993    Uiso  ? Al
   Al8        1.0     0.781197     0.095691     0.344757    Uiso  ? Al
   Al9        1.0     0.888041     0.205585     0.080595    Uiso  ? Al
   Al10       1.0     0.556802     0.205860     0.577416    Uiso  ? Al
   Al11       1.0     0.108271     0.429659     0.334833    Uiso  ? Al
   Al12       1.0     0.228218     0.530207     0.096112    Uiso  ? Al
   Al13       1.0     0.778594     0.427985     0.839663    Uiso  ? Al
   Al14       1.0     0.887765     0.536570     0.593176    Uiso  ? Al
   Al15       1.0     0.445172     0.430782     0.338350    Uiso  ? Al
   Al16       1.0     0.554403     0.537378     0.083723    Uiso  ? Al
   Al17       1.0     0.106492     0.428191     0.837168    Uiso  ? Al
   Al18       1.0     0.222790     0.536330     0.579779    Uiso  ? Al
   Al19       1.0     0.777268     0.426334     0.331188    Uiso  ? Al
   Al20       1.0     0.446030     0.428596     0.831448    Uiso  ? Al
   Al21       1.0     0.557826     0.537486     0.586612    Uiso  ? Al
   Al22       1.0     0.110929     0.761390     0.334568    Uiso  ? Al
   Al23       1.0     0.226455     0.878091     0.098423    Uiso  ? Al
   Al24       1.0     0.779030     0.752935     0.834501    Uiso  ? Al
   Al25       1.0     0.885180     0.874007     0.581195    Uiso  ? Al
   Al26       1.0     0.446838     0.756682     0.337524    Uiso  ? Al
   Al27       1.0     0.560324     0.863177     0.097028    Uiso  ? Al
   Al28       1.0     0.223934     0.874218     0.577963    Uiso  ? Al
   Al29       1.0     0.780114     0.757611     0.337358    Uiso  ? Al
   Al30       1.0     0.879002     0.877248     0.095513    Uiso  ? Al
   Al31       1.0     0.448191     0.757660     0.833184    Uiso  ? Al
   Al32       1.0     0.556839     0.869752     0.578615    Uiso  ? Al
   Mg1        1.0     0.777220     0.098062     0.839383    Uiso  ? Mg
   Mg2        1.0     0.887898     0.538429     0.091386    Uiso  ? Mg
   Hf1        1.0     0.445088     0.093210     0.853974    Uiso  ? Hf
   Hf2        1.0     0.112048     0.762239     0.854033    Uiso  ? Hf
   N1         1.0     0.223058     0.204950     0.366390    Uiso  ? N
   N2         1.0     0.108066     0.096805     0.127395    Uiso  ? N
   N3         1.0     0.896951     0.210034     0.867437    Uiso  ? N
   N4         1.0     0.776012     0.094279     0.603051    Uiso  ? N
   N5         1.0     0.552425     0.206560     0.362928    Uiso  ? N
   N6         1.0     0.444265     0.091646     0.114288    Uiso  ? N
   N7         1.0     0.206276     0.214625     0.876892    Uiso  ? N
   N8         1.0     0.114170     0.093802     0.616605    Uiso  ? N
   N9         1.0     0.889026     0.208718     0.376470    Uiso  ? N
   N10        1.0     0.780339     0.095400     0.126473    Uiso  ? N
   N11        1.0     0.549891     0.221995     0.881083    Uiso  ? N
   N12        1.0     0.444915     0.093829     0.614544    Uiso  ? N
   N13        1.0     0.221172     0.541233     0.367712    Uiso  ? N
   N14        1.0     0.123008     0.422274     0.125155    Uiso  ? N
   N15        1.0     0.889381     0.537757     0.854841    Uiso  ? N
   N16        1.0     0.774841     0.427981     0.624473    Uiso  ? N
   N17        1.0     0.556401     0.538654     0.375433    Uiso  ? N
   N18        1.0     0.444668     0.431296     0.127420    Uiso  ? N
   N19        1.0     0.230049     0.522682     0.874476    Uiso  ? N
   N20        1.0     0.114727     0.425739     0.618675    Uiso  ? N
   N21        1.0     0.888177     0.536448     0.374324    Uiso  ? N
   N22        1.0     0.768913     0.420577     0.118891    Uiso  ? N
   N23        1.0     0.550977     0.540842     0.868404    Uiso  ? N
   N24        1.0     0.443884     0.426884     0.616628    Uiso  ? N
   N25        1.0     0.222024     0.872320     0.365233    Uiso  ? N
   N26        1.0     0.113087     0.761675     0.113806    Uiso  ? N
   N27        1.0     0.876992     0.866781     0.875514    Uiso  ? N
   N28        1.0     0.775729     0.763025     0.616084    Uiso  ? N
   N29        1.0     0.553437     0.872572     0.367352    Uiso  ? N
   N30        1.0     0.446258     0.757285     0.125784    Uiso  ? N
   N31        1.0     0.232641     0.885204     0.877764    Uiso  ? N
   N32        1.0     0.112826     0.761719     0.615221    Uiso  ? N
   N33        1.0     0.892202     0.869544     0.367224    Uiso  ? N
   N34        1.0     0.772010     0.771607     0.128585    Uiso  ? N
   N35        1.0     0.565619     0.851424     0.876730    Uiso  ? N
   N36        1.0     0.443661     0.762182     0.618413    Uiso  ? N
