
#======================================================================
# CRYSTAL DATA
#----------------------------------------------------------------------
data_VESTA_phase_1

_chemical_name_common                  'Al   Mg   Hf   N                      '
_cell_length_a                         9.515171
_cell_length_b                         9.527812
_cell_length_c                         10.104116
_cell_angle_alpha                      89.982124
_cell_angle_beta                       89.967392
_cell_angle_gamma                      59.946365
_cell_volume                           792.873150
_space_group_name_H-M_alt              'P 1'
_space_group_IT_number                 1

loop_
_space_group_symop_operation_xyz
   'x, y, z'

loop_
   _atom_site_label
   _atom_site_occupancy
   _atom_site_fract_x
   _atom_site_fract_y
   _atom_site_fract_z
   _atom_site_adp_type
   _atom_site_U_iso_or_equiv
   _atom_site_type_symbol
   Al1        1.0     0.109585     0.095836     0.301966    Uiso  ? Al
   Al2        1.0     0.217233     0.209637     0.058525    Uiso  ? Al
   Al3        1.0     0.887391     0.205554     0.549442    Uiso  ? Al
   Al4        1.0     0.443936     0.093756     0.298246    Uiso  ? Al
   Al5        1.0     0.557362     0.209437     0.059463    Uiso  ? Al
   Al6        1.0     0.105106     0.103509     0.802403    Uiso  ? Al
   Al7        1.0     0.219767     0.206566     0.546701    Uiso  ? Al
   Al8        1.0     0.779425     0.094890     0.302221    Uiso  ? Al
   Al9        1.0     0.887122     0.208361     0.053153    Uiso  ? Al
   Al10       1.0     0.558074     0.206503     0.544178    Uiso  ? Al
   Al11       1.0     0.110829     0.428028     0.301926    Uiso  ? Al
   Al12       1.0     0.225790     0.531769     0.057730    Uiso  ? Al
   Al13       1.0     0.779937     0.426549     0.801411    Uiso  ? Al
   Al14       1.0     0.887966     0.537792     0.552670    Uiso  ? Al
   Al15       1.0     0.444310     0.429804     0.301345    Uiso  ? Al
   Al16       1.0     0.556973     0.536526     0.053753    Uiso  ? Al
   Al17       1.0     0.104997     0.428441     0.799215    Uiso  ? Al
   Al18       1.0     0.223859     0.536167     0.547313    Uiso  ? Al
   Al19       1.0     0.776881     0.427253     0.301070    Uiso  ? Al
   Al20       1.0     0.448359     0.427678     0.801613    Uiso  ? Al
   Al21       1.0     0.556307     0.537764     0.551762    Uiso  ? Al
   Al22       1.0     0.111396     0.760880     0.298652    Uiso  ? Al
   Al23       1.0     0.225620     0.876488     0.058285    Uiso  ? Al
   Al24       1.0     0.779758     0.752492     0.799303    Uiso  ? Al
   Al25       1.0     0.884731     0.875262     0.544940    Uiso  ? Al
   Al26       1.0     0.445447     0.758995     0.302491    Uiso  ? Al
   Al27       1.0     0.560511     0.865250     0.059313    Uiso  ? Al
   Al28       1.0     0.223122     0.874347     0.547662    Uiso  ? Al
   Al29       1.0     0.778274     0.759954     0.302163    Uiso  ? Al
   Al30       1.0     0.880943     0.874789     0.058340    Uiso  ? Al
   Al31       1.0     0.450712     0.755172     0.801860    Uiso  ? Al
   Al32       1.0     0.556635     0.869576     0.546735    Uiso  ? Al
   Mg1        1.0     0.777879     0.100705     0.801016    Uiso  ? Mg
   Mg2        1.0     0.888383     0.538172     0.052554    Uiso  ? Mg
   Hf1        1.0     0.446576     0.092738     0.810131    Uiso  ? Hf
   Hf2        1.0     0.110027     0.763279     0.811197    Uiso  ? Hf
   N1         1.0     0.222764     0.204349     0.359121    Uiso  ? N
   N2         1.0     0.110562     0.095435     0.113845    Uiso  ? N
   N3         1.0     0.895376     0.213064     0.865549    Uiso  ? N
   N4         1.0     0.776945     0.094199     0.596354    Uiso  ? N
   N5         1.0     0.553459     0.206524     0.354849    Uiso  ? N
   N6         1.0     0.444326     0.092504     0.104150    Uiso  ? N
   N7         1.0     0.207313     0.215356     0.866378    Uiso  ? N
   N8         1.0     0.111708     0.094541     0.610649    Uiso  ? N
   N9         1.0     0.890226     0.205688     0.360650    Uiso  ? N
   N10        1.0     0.779292     0.094860     0.112508    Uiso  ? N
   N11        1.0     0.550017     0.221175     0.872149    Uiso  ? N
   N12        1.0     0.444779     0.094709     0.602061    Uiso  ? N
   N13        1.0     0.222197     0.540279     0.359351    Uiso  ? N
   N14        1.0     0.124080     0.421560     0.117412    Uiso  ? N
   N15        1.0     0.888939     0.537419     0.846126    Uiso  ? N
   N16        1.0     0.776613     0.426330     0.609462    Uiso  ? N
   N17        1.0     0.554326     0.539492     0.363350    Uiso  ? N
   N18        1.0     0.443956     0.430607     0.113636    Uiso  ? N
   N19        1.0     0.229354     0.522455     0.864305    Uiso  ? N
   N20        1.0     0.113639     0.426310     0.607998    Uiso  ? N
   N21        1.0     0.888728     0.538087     0.362088    Uiso  ? N
   N22        1.0     0.769271     0.421518     0.115869    Uiso  ? N
   N23        1.0     0.554614     0.538781     0.860580    Uiso  ? N
   N24        1.0     0.444140     0.427040     0.610272    Uiso  ? N
   N25        1.0     0.221990     0.872310     0.358473    Uiso  ? N
   N26        1.0     0.112527     0.761479     0.102898    Uiso  ? N
   N27        1.0     0.875383     0.867418     0.869038    Uiso  ? N
   N28        1.0     0.776352     0.763004     0.607492    Uiso  ? N
   N29        1.0     0.553796     0.872531     0.359316    Uiso  ? N
   N30        1.0     0.445389     0.758910     0.113493    Uiso  ? N
   N31        1.0     0.232811     0.884311     0.866245    Uiso  ? N
   N32        1.0     0.110646     0.761527     0.603371    Uiso  ? N
   N33        1.0     0.890907     0.870748     0.356742    Uiso  ? N
   N34        1.0     0.771490     0.772372     0.118819    Uiso  ? N
   N35        1.0     0.566224     0.851627     0.867496    Uiso  ? N
   N36        1.0     0.443944     0.761613     0.611010    Uiso  ? N
