
#======================================================================
# CRYSTAL DATA
#----------------------------------------------------------------------
data_VESTA_phase_1

_chemical_name_common                  'Al   Mg   Hf   N                      '
_cell_length_a                         9.515361
_cell_length_b                         9.528032
_cell_length_c                         10.103644
_cell_angle_alpha                      89.982582
_cell_angle_beta                       89.967918
_cell_angle_gamma                      59.945686
_cell_volume                           792.864819
_space_group_name_H-M_alt              'P 1'
_space_group_IT_number                 1

loop_
_space_group_symop_operation_xyz
   'x, y, z'

loop_
   _atom_site_label
   _atom_site_occupancy
   _atom_site_fract_x
   _atom_site_fract_y
   _atom_site_fract_z
   _atom_site_adp_type
   _atom_site_U_iso_or_equiv
   _atom_site_type_symbol
   Al1        1.0     0.109565     0.095839     0.316037    Uiso  ? Al
   Al2        1.0     0.217203     0.209643     0.072588    Uiso  ? Al
   Al3        1.0     0.887370     0.205558     0.563508    Uiso  ? Al
   Al4        1.0     0.443916     0.093756     0.312299    Uiso  ? Al
   Al5        1.0     0.557346     0.209443     0.073531    Uiso  ? Al
   Al6        1.0     0.105085     0.103512     0.816464    Uiso  ? Al
   Al7        1.0     0.219755     0.206564     0.560769    Uiso  ? Al
   Al8        1.0     0.779405     0.094890     0.316298    Uiso  ? Al
   Al9        1.0     0.887101     0.208361     0.067219    Uiso  ? Al
   Al10       1.0     0.558050     0.206501     0.558250    Uiso  ? Al
   Al11       1.0     0.110810     0.428030     0.315997    Uiso  ? Al
   Al12       1.0     0.225773     0.531762     0.071791    Uiso  ? Al
   Al13       1.0     0.779914     0.426550     0.815481    Uiso  ? Al
   Al14       1.0     0.887945     0.537791     0.566736    Uiso  ? Al
   Al15       1.0     0.444288     0.429807     0.315418    Uiso  ? Al
   Al16       1.0     0.556948     0.536528     0.067819    Uiso  ? Al
   Al17       1.0     0.104975     0.428443     0.813273    Uiso  ? Al
   Al18       1.0     0.223835     0.536177     0.561382    Uiso  ? Al
   Al19       1.0     0.776860     0.427255     0.315134    Uiso  ? Al
   Al20       1.0     0.448336     0.427680     0.815675    Uiso  ? Al
   Al21       1.0     0.556287     0.537764     0.565830    Uiso  ? Al
   Al22       1.0     0.111375     0.760883     0.312704    Uiso  ? Al
   Al23       1.0     0.225604     0.876496     0.072349    Uiso  ? Al
   Al24       1.0     0.779736     0.752488     0.813363    Uiso  ? Al
   Al25       1.0     0.884717     0.875260     0.559014    Uiso  ? Al
   Al26       1.0     0.445425     0.758997     0.316562    Uiso  ? Al
   Al27       1.0     0.560496     0.865239     0.073377    Uiso  ? Al
   Al28       1.0     0.223098     0.874347     0.561731    Uiso  ? Al
   Al29       1.0     0.778254     0.759955     0.316236    Uiso  ? Al
   Al30       1.0     0.880909     0.874797     0.072404    Uiso  ? Al
   Al31       1.0     0.450690     0.755173     0.815921    Uiso  ? Al
   Al32       1.0     0.556611     0.869582     0.560804    Uiso  ? Al
   Mg1        1.0     0.777857     0.100708     0.815076    Uiso  ? Mg
   Mg2        1.0     0.888363     0.538173     0.066623    Uiso  ? Mg
   Hf1        1.0     0.446558     0.092737     0.824225    Uiso  ? Hf
   Hf2        1.0     0.110002     0.763283     0.825292    Uiso  ? Hf
   N1         1.0     0.222750     0.204347     0.373181    Uiso  ? N
   N2         1.0     0.110541     0.095439     0.127909    Uiso  ? N
   N3         1.0     0.895356     0.213062     0.879608    Uiso  ? N
   N4         1.0     0.776926     0.094201     0.610409    Uiso  ? N
   N5         1.0     0.553434     0.206523     0.368911    Uiso  ? N
   N6         1.0     0.444306     0.092503     0.118190    Uiso  ? N
   N7         1.0     0.207284     0.215363     0.880435    Uiso  ? N
   N8         1.0     0.111689     0.094544     0.624705    Uiso  ? N
   N9         1.0     0.890205     0.205691     0.374710    Uiso  ? N
   N10        1.0     0.779272     0.094862     0.126575    Uiso  ? N
   N11        1.0     0.550000     0.221182     0.886210    Uiso  ? N
   N12        1.0     0.444761     0.094708     0.616144    Uiso  ? N
   N13        1.0     0.222172     0.540289     0.373411    Uiso  ? N
   N14        1.0     0.124061     0.421561     0.131475    Uiso  ? N
   N15        1.0     0.888919     0.537418     0.860185    Uiso  ? N
   N16        1.0     0.776592     0.426331     0.623524    Uiso  ? N
   N17        1.0     0.554306     0.539493     0.377412    Uiso  ? N
   N18        1.0     0.443935     0.430610     0.127701    Uiso  ? N
   N19        1.0     0.229334     0.522450     0.878361    Uiso  ? N
   N20        1.0     0.113620     0.426312     0.622052    Uiso  ? N
   N21        1.0     0.888706     0.538086     0.376148    Uiso  ? N
   N22        1.0     0.769249     0.421520     0.129925    Uiso  ? N
   N23        1.0     0.554588     0.538784     0.874639    Uiso  ? N
   N24        1.0     0.444119     0.427042     0.624328    Uiso  ? N
   N25        1.0     0.221966     0.872310     0.372532    Uiso  ? N
   N26        1.0     0.112507     0.761483     0.116936    Uiso  ? N
   N27        1.0     0.875346     0.867426     0.883094    Uiso  ? N
   N28        1.0     0.776333     0.763004     0.621547    Uiso  ? N
   N29        1.0     0.553772     0.872537     0.373376    Uiso  ? N
   N30        1.0     0.445369     0.758911     0.127557    Uiso  ? N
   N31        1.0     0.232793     0.884320     0.880303    Uiso  ? N
   N32        1.0     0.110627     0.761530     0.617455    Uiso  ? N
   N33        1.0     0.890894     0.870745     0.370805    Uiso  ? N
   N34        1.0     0.771470     0.772372     0.132883    Uiso  ? N
   N35        1.0     0.566209     0.851615     0.881555    Uiso  ? N
   N36        1.0     0.443924     0.761615     0.625066    Uiso  ? N
