# generated using pymatgen
data_Sc2Al7N9
_symmetry_space_group_name_H-M   'P 1'
_cell_length_a   10.10154789
_cell_length_b   10.09274008
_cell_length_c   9.06203316
_cell_angle_alpha   90.03797287
_cell_angle_beta   89.93694853
_cell_angle_gamma   60.29007598
_symmetry_Int_Tables_number   1
_chemical_formula_structural   Sc2Al7N9
_chemical_formula_sum   'Sc8 Al28 N36'
_cell_volume   802.44383865
_cell_formula_units_Z   4
loop_
 _symmetry_equiv_pos_site_id
 _symmetry_equiv_pos_as_xyz
  1  'x, y, z'
loop_
 _atom_site_type_symbol
 _atom_site_label
 _atom_site_symmetry_multiplicity
 _atom_site_fract_x
 _atom_site_fract_y
 _atom_site_fract_z
 _atom_site_occupancy
  Al  Al0  1  0.11296241  0.09244330  0.33324306  1
  Al  Al1  1  0.22992043  0.20183783  0.09487649  1
  Al  Al2  1  0.44710104  0.08945528  0.33298403  1
  Al  Al3  1  0.55291939  0.20642742  0.09430024  1
  Al  Al4  1  0.77700423  0.09128682  0.33401496  1
  Al  Al5  1  0.88118342  0.21064867  0.10159112  1
  Al  Al6  1  0.44912382  0.09501178  0.83794537  1
  Al  Al7  1  0.56143278  0.19836673  0.57693069  1
  Al  Al8  1  0.11012019  0.42545892  0.33727677  1
  Al  Al9  1  0.77067353  0.43958922  0.83050754  1
  Al  Al10  1  0.87973478  0.54982509  0.58285444  1
  Al  Al11  1  0.45212105  0.42578921  0.33889752  1
  Al  Al12  1  0.55824942  0.53490942  0.08467357  1
  Al  Al13  1  0.10573556  0.43212006  0.83813777  1
  Al  Al14  1  0.77178270  0.43156760  0.33952966  1
  Al  Al15  1  0.45134757  0.42427006  0.83244086  1
  Al  Al16  1  0.55917440  0.54265623  0.58267409  1
  Al  Al17  1  0.10626494  0.76622027  0.33489087  1
  Al  Al18  1  0.22568796  0.86722272  0.09476752  1
  Al  Al19  1  0.77737395  0.76001024  0.83071495  1
  Al  Al20  1  0.88070436  0.87222343  0.57863488  1
  Al  Al21  1  0.44848521  0.76022223  0.32881351  1
  Al  Al22  1  0.55448829  0.87621699  0.08282331  1
  Al  Al23  1  0.10742935  0.75721580  0.83918065  1
  Al  Al24  1  0.77031312  0.76877707  0.33795570  1
  Al  Al25  1  0.88560558  0.87289477  0.09228549  1
  Al  Al26  1  0.45275750  0.75437050  0.84243275  1
  Al  Al27  1  0.56074731  0.86933982  0.58655203  1
  Sc  Sc28  1  0.77162492  0.09079860  0.85308415  1
  Sc  Sc29  1  0.88043984  0.21076945  0.59442084  1
  Sc  Sc30  1  0.11154444  0.09433301  0.85999840  1
  Sc  Sc31  1  0.22857420  0.20570133  0.59681616  1
  Sc  Sc32  1  0.22869834  0.53743864  0.09782617  1
  Sc  Sc33  1  0.22333163  0.53861617  0.59662756  1
  Sc  Sc34  1  0.88214915  0.54360877  0.09969331  1
  Sc  Sc35  1  0.22973993  0.86383597  0.59709936  1
  N  N36  1  0.22495174  0.20259978  0.35517443  1
  N  N37  1  0.11254755  0.09285704  0.11175852  1
  N  N38  1  0.87366420  0.22835576  0.86667653  1
  N  N39  1  0.76963266  0.08268871  0.61064612  1
  N  N40  1  0.55585622  0.20278883  0.36243596  1
  N  N41  1  0.44598813  0.09116324  0.12081504  1
  N  N42  1  0.23256029  0.21472480  0.86619625  1
  N  N43  1  0.11109208  0.09286042  0.61652672  1
  N  N44  1  0.88899571  0.20420352  0.35054631  1
  N  N45  1  0.77601644  0.09305358  0.11517849  1
  N  N46  1  0.53657297  0.21668797  0.88093157  1
  N  N47  1  0.46667236  0.08301904  0.62242865  1
  N  N48  1  0.22383140  0.53910138  0.35566881  1
  N  N49  1  0.11775616  0.41171941  0.12035072  1
  N  N50  1  0.88395585  0.54349383  0.86169363  1
  N  N51  1  0.76830623  0.44934008  0.61314713  1
  N  N52  1  0.55279760  0.54422921  0.37077859  1
  N  N53  1  0.46430009  0.41883618  0.12716335  1
  N  N54  1  0.22658653  0.53640901  0.85423829  1
  N  N55  1  0.08841302  0.43949904  0.61703283  1
  N  N56  1  0.88573280  0.54354029  0.36301830  1
  N  N57  1  0.76649834  0.42310200  0.12733908  1
  N  N58  1  0.55660872  0.53746068  0.87221244  1
  N  N59  1  0.47028571  0.41384987  0.61578373  1
  N  N60  1  0.22649081  0.87016743  0.35283199  1
  N  N61  1  0.09996958  0.77834476  0.12183348  1
  N  N62  1  0.89668048  0.85043438  0.87878163  1
  N  N63  1  0.77524646  0.76385573  0.61490928  1
  N  N64  1  0.55218950  0.87286635  0.37243790  1
  N  N65  1  0.44919233  0.75856210  0.11533560  1
  N  N66  1  0.23396174  0.84894449  0.86968774  1
  N  N67  1  0.08775971  0.77146549  0.61987574  1
  N  N68  1  0.88702051  0.87274648  0.36470494  1
  N  N69  1  0.76306524  0.78287854  0.12780594  1
  N  N70  1  0.55745691  0.87339705  0.87104986  1
  N  N71  1  0.46631456  0.75156857  0.62812833  1
