# generated using pymatgen
data_Sc2Al7N9
_symmetry_space_group_name_H-M   'P 1'
_cell_length_a   9.70954157
_cell_length_b   9.71256330
_cell_length_c   10.17144023
_cell_angle_alpha   89.97324465
_cell_angle_beta   89.82945982
_cell_angle_gamma   60.19597878
_symmetry_Int_Tables_number   1
_chemical_formula_structural   Sc2Al7N9
_chemical_formula_sum   'Sc8 Al28 N36'
_cell_volume   832.33415909
_cell_formula_units_Z   4
loop_
 _symmetry_equiv_pos_site_id
 _symmetry_equiv_pos_as_xyz
  1  'x, y, z'
loop_
 _atom_site_type_symbol
 _atom_site_label
 _atom_site_symmetry_multiplicity
 _atom_site_fract_x
 _atom_site_fract_y
 _atom_site_fract_z
 _atom_site_occupancy
  Al  Al0  1  0.11191108  0.09376511  0.29453833  1
  Al  Al1  1  0.22993672  0.20434608  0.06222028  1
  Al  Al2  1  0.44559246  0.09200340  0.30770310  1
  Al  Al3  1  0.55445186  0.20560444  0.06527557  1
  Al  Al4  1  0.77664578  0.09220936  0.30536893  1
  Al  Al5  1  0.87976305  0.21109004  0.06635627  1
  Al  Al6  1  0.44747272  0.09588197  0.81511352  1
  Al  Al7  1  0.56155480  0.19875510  0.55796452  1
  Al  Al8  1  0.11153161  0.42565772  0.30966934  1
  Al  Al9  1  0.77165372  0.43762800  0.80968597  1
  Al  Al10  1  0.88036625  0.54730302  0.55965470  1
  Al  Al11  1  0.44910067  0.42618378  0.31161857  1
  Al  Al12  1  0.55744890  0.53618930  0.06126772  1
  Al  Al13  1  0.10640613  0.43132654  0.80803419  1
  Al  Al14  1  0.77317605  0.42932677  0.31000539  1
  Al  Al15  1  0.45056681  0.42529680  0.80957539  1
  Al  Al16  1  0.56093757  0.54041335  0.56243039  1
  Al  Al17  1  0.10713250  0.76509643  0.30715062  1
  Al  Al18  1  0.22642065  0.86610556  0.06446958  1
  Al  Al19  1  0.77830024  0.75814438  0.80778987  1
  Al  Al20  1  0.88198210  0.87212146  0.55786398  1
  Al  Al21  1  0.44697498  0.76041174  0.30785135  1
  Al  Al22  1  0.55391078  0.87617909  0.06179397  1
  Al  Al23  1  0.10956934  0.75646244  0.81253416  1
  Al  Al24  1  0.77253371  0.76737806  0.31458286  1
  Al  Al25  1  0.88535647  0.87437814  0.06529107  1
  Al  Al26  1  0.45136074  0.75462698  0.81587321  1
  Al  Al27  1  0.56160400  0.86937808  0.56454980  1
  Sc  Sc28  1  0.77342694  0.09051189  0.82020294  1
  Sc  Sc29  1  0.88303725  0.20984592  0.55878256  1
  Sc  Sc30  1  0.11307737  0.09333264  0.83696438  1
  Sc  Sc31  1  0.22744310  0.20282278  0.56298293  1
  Sc  Sc32  1  0.22778642  0.53814086  0.06098148  1
  Sc  Sc33  1  0.22415168  0.53879081  0.57064752  1
  Sc  Sc34  1  0.88308621  0.54360547  0.06762517  1
  Sc  Sc35  1  0.22615894  0.86915280  0.56187212  1
  N  N36  1  0.22221195  0.20207499  0.35332685  1
  N  N37  1  0.11259238  0.09359532  0.10098734  1
  N  N38  1  0.87102168  0.22979704  0.87829953  1
  N  N39  1  0.77123661  0.08347928  0.61238700  1
  N  N40  1  0.55497721  0.20399184  0.36680832  1
  N  N41  1  0.44593617  0.09268018  0.11971908  1
  N  N42  1  0.23270288  0.21864454  0.87256455  1
  N  N43  1  0.10937681  0.09422710  0.63154478  1
  N  N44  1  0.89075744  0.20332802  0.34794762  1
  N  N45  1  0.77541824  0.09351711  0.11372893  1
  N  N46  1  0.53693097  0.21693126  0.87937959  1
  N  N47  1  0.46499485  0.08400026  0.62670311  1
  N  N48  1  0.22280641  0.54011478  0.35502836  1
  N  N49  1  0.11886759  0.41243395  0.12463749  1
  N  N50  1  0.88629089  0.54141143  0.85973822  1
  N  N51  1  0.76978757  0.44676580  0.62146576  1
  N  N52  1  0.55409958  0.54141886  0.37214543  1
  N  N53  1  0.46344033  0.41859161  0.12532789  1
  N  N54  1  0.22592652  0.53543917  0.84578866  1
  N  N55  1  0.08975650  0.43623800  0.62131439  1
  N  N56  1  0.88623711  0.54109978  0.36448440  1
  N  N57  1  0.76624002  0.42335512  0.12559239  1
  N  N58  1  0.55607380  0.53847765  0.87232963  1
  N  N59  1  0.47169025  0.41324824  0.62111605  1
  N  N60  1  0.22248195  0.87428411  0.35069544  1
  N  N61  1  0.09945278  0.77870542  0.12218783  1
  N  N62  1  0.89822703  0.84859874  0.87899305  1
  N  N63  1  0.77697726  0.76234110  0.61683575  1
  N  N64  1  0.55218148  0.87391859  0.37281699  1
  N  N65  1  0.44878198  0.75849583  0.11855487  1
  N  N66  1  0.23578792  0.84444727  0.87560931  1
  N  N67  1  0.08844856  0.77425660  0.62642506  1
  N  N68  1  0.88798797  0.87296192  0.36799314  1
  N  N69  1  0.76394677  0.78349270  0.12879433  1
  N  N70  1  0.55668534  0.87277580  0.87171185  1
  N  N71  1  0.46318545  0.75264926  0.62724963  1
