# generated using pymatgen
data_Sc2Al7N9
_symmetry_space_group_name_H-M   'P 1'
_cell_length_a   10.26537371
_cell_length_b   10.24976886
_cell_length_c   8.60036698
_cell_angle_alpha   90.03190326
_cell_angle_beta   89.97801987
_cell_angle_gamma   60.28704644
_symmetry_Int_Tables_number   1
_chemical_formula_structural   Sc2Al7N9
_chemical_formula_sum   'Sc8 Al28 N36'
_cell_volume   785.93239326
_cell_formula_units_Z   4
loop_
 _symmetry_equiv_pos_site_id
 _symmetry_equiv_pos_as_xyz
  1  'x, y, z'
loop_
 _atom_site_type_symbol
 _atom_site_label
 _atom_site_symmetry_multiplicity
 _atom_site_fract_x
 _atom_site_fract_y
 _atom_site_fract_z
 _atom_site_occupancy
  Al  Al0  1  0.11230913  0.09291843  0.34672224  1
  Al  Al1  1  0.22875436  0.20193592  0.10771851  1
  Al  Al2  1  0.44934778  0.08992195  0.34699801  1
  Al  Al3  1  0.55503198  0.20508226  0.10574270  1
  Al  Al4  1  0.77529579  0.09128846  0.34886222  1
  Al  Al5  1  0.88164788  0.20981846  0.10924880  1
  Al  Al6  1  0.44724943  0.09428016  0.85514580  1
  Al  Al7  1  0.55896085  0.20062262  0.59207130  1
  Al  Al8  1  0.10727141  0.42800422  0.35119054  1
  Al  Al9  1  0.77060883  0.43668955  0.84731352  1
  Al  Al10  1  0.88001161  0.54910157  0.59999578  1
  Al  Al11  1  0.45293861  0.42432451  0.35013590  1
  Al  Al12  1  0.55714986  0.53675102  0.09999485  1
  Al  Al13  1  0.10876209  0.42907801  0.85297478  1
  Al  Al14  1  0.77227473  0.43375311  0.34966267  1
  Al  Al15  1  0.45070734  0.42524388  0.84879192  1
  Al  Al16  1  0.55943348  0.54123688  0.59565437  1
  Al  Al17  1  0.10456635  0.76548148  0.34946600  1
  Al  Al18  1  0.22523985  0.86852053  0.10669490  1
  Al  Al19  1  0.77532364  0.76249487  0.84894004  1
  Al  Al20  1  0.88186267  0.87021238  0.59484606  1
  Al  Al21  1  0.44986118  0.75908194  0.34346936  1
  Al  Al22  1  0.55377686  0.87571719  0.09942071  1
  Al  Al23  1  0.10845771  0.75859614  0.85927884  1
  Al  Al24  1  0.77244380  0.76615987  0.34989941  1
  Al  Al25  1  0.88470512  0.87538642  0.10703307  1
  Al  Al26  1  0.45133416  0.75556726  0.85488254  1
  Al  Al27  1  0.56120945  0.86937195  0.59928496  1
  Sc  Sc28  1  0.77266718  0.09101780  0.85576441  1
  Sc  Sc29  1  0.88036764  0.21278379  0.59700777  1
  Sc  Sc30  1  0.11196787  0.09398312  0.86232605  1
  Sc  Sc31  1  0.22943650  0.20605998  0.60010943  1
  Sc  Sc32  1  0.22839462  0.53680278  0.10438349  1
  Sc  Sc33  1  0.22348662  0.53885735  0.60175947  1
  Sc  Sc34  1  0.88343607  0.54283142  0.10286942  1
  Sc  Sc35  1  0.22959120  0.86288253  0.60068501  1
  N  N36  1  0.22595330  0.20444220  0.34528767  1
  N  N37  1  0.11194373  0.09302424  0.11399482  1
  N  N38  1  0.87673010  0.22460542  0.86102035  1
  N  N39  1  0.77003822  0.08388992  0.59526050  1
  N  N40  1  0.55471620  0.20466969  0.35245550  1
  N  N41  1  0.44639802  0.09231993  0.10844493  1
  N  N42  1  0.23213066  0.21201699  0.86123883  1
  N  N43  1  0.11163076  0.09280850  0.59730738  1
  N  N44  1  0.88633788  0.20748095  0.34425476  1
  N  N45  1  0.77566558  0.09362814  0.11335549  1
  N  N46  1  0.53929993  0.21377665  0.86187882  1
  N  N47  1  0.46463293  0.08291416  0.60378283  1
  N  N48  1  0.22518379  0.53704370  0.35327012  1
  N  N49  1  0.11648740  0.41302558  0.10567578  1
  N  N50  1  0.88451449  0.54298703  0.84772940  1
  N  N51  1  0.76818142  0.44780208  0.60202936  1
  N  N52  1  0.55406515  0.54197243  0.35588272  1
  N  N53  1  0.46327420  0.41837726  0.11013640  1
  N  N54  1  0.22531491  0.53809042  0.85368957  1
  N  N55  1  0.09100583  0.43792099  0.60356519  1
  N  N56  1  0.88529483  0.54414067  0.35980847  1
  N  N57  1  0.76785735  0.42391257  0.11156159  1
  N  N58  1  0.55577262  0.53910480  0.85939850  1
  N  N59  1  0.46737019  0.41631972  0.60408479  1
  N  N60  1  0.22742452  0.86775716  0.34361468  1
  N  N61  1  0.09979639  0.77704635  0.10846573  1
  N  N62  1  0.89644977  0.85416188  0.85875117  1
  N  N63  1  0.77404589  0.76425718  0.60412161  1
  N  N64  1  0.55464346  0.87203731  0.35464329  1
  N  N65  1  0.44873151  0.75864505  0.10569341  1
  N  N66  1  0.23300606  0.85177826  0.86393636  1
  N  N67  1  0.09042661  0.77038943  0.59786042  1
  N  N68  1  0.88565044  0.87182938  0.35198071  1
  N  N69  1  0.76593788  0.78001822  0.10810451  1
  N  N70  1  0.55523093  0.87376428  0.85903236  1
  N  N71  1  0.46447555  0.75247989  0.60894197  1
