# generated using pymatgen
data_Sc2Al7N9
_symmetry_space_group_name_H-M   'P 1'
_cell_length_a   9.71043919
_cell_length_b   9.71622412
_cell_length_c   10.17282936
_cell_angle_alpha   90.02137709
_cell_angle_beta   90.02290831
_cell_angle_gamma   60.17368873
_symmetry_Int_Tables_number   1
_chemical_formula_structural   Sc2Al7N9
_chemical_formula_sum   'Sc8 Al28 N36'
_cell_volume   832.65710229
_cell_formula_units_Z   4
loop_
 _symmetry_equiv_pos_site_id
 _symmetry_equiv_pos_as_xyz
  1  'x, y, z'
loop_
 _atom_site_type_symbol
 _atom_site_label
 _atom_site_symmetry_multiplicity
 _atom_site_fract_x
 _atom_site_fract_y
 _atom_site_fract_z
 _atom_site_occupancy
  Al  Al0  1  0.11244103  0.09345882  0.39889274  1
  Al  Al1  1  0.22758186  0.20209123  0.16936556  1
  Al  Al2  1  0.45106372  0.09004592  0.40803429  1
  Al  Al3  1  0.55803537  0.20356481  0.16460033  1
  Al  Al4  1  0.77340773  0.09009968  0.40934682  1
  Al  Al5  1  0.88272011  0.20728975  0.17286457  1
  Al  Al6  1  0.44267980  0.09668463  0.91296324  1
  Al  Al7  1  0.55795861  0.19983957  0.65617548  1
  Al  Al8  1  0.10566923  0.43225336  0.41219274  1
  Al  Al9  1  0.77166503  0.43093129  0.91028079  1
  Al  Al10  1  0.88005070  0.54796557  0.66244136  1
  Al  Al11  1  0.45128805  0.42469418  0.41118262  1
  Al  Al12  1  0.55795207  0.53487275  0.15996796  1
  Al  Al13  1  0.11237184  0.42551570  0.91319012  1
  Al  Al14  1  0.77272246  0.43722044  0.41172626  1
  Al  Al15  1  0.44764006  0.42643121  0.91090172  1
  Al  Al16  1  0.56070142  0.54082394  0.65971311  1
  Al  Al17  1  0.10644197  0.76177942  0.40813101  1
  Al  Al18  1  0.22337062  0.87187149  0.16725989  1
  Al  Al19  1  0.77496047  0.76418962  0.90690983  1
  Al  Al20  1  0.88382348  0.86744022  0.65664980  1
  Al  Al21  1  0.45131557  0.75735795  0.40674085  1
  Al  Al22  1  0.55375271  0.87671976  0.15907031  1
  Al  Al23  1  0.10957512  0.76053153  0.91547190  1
  Al  Al24  1  0.77598980  0.76171928  0.41396536  1
  Al  Al25  1  0.88301779  0.88016204  0.16455670  1
  Al  Al26  1  0.44753497  0.75721319  0.91329591  1
  Al  Al27  1  0.56162428  0.86879487  0.65862512  1
  Sc  Sc28  1  0.77309670  0.09282848  0.90970652  1
  Sc  Sc29  1  0.88032689  0.21166684  0.64241550  1
  Sc  Sc30  1  0.11135190  0.09514543  0.92216033  1
  Sc  Sc31  1  0.22761569  0.20545014  0.65033750  1
  Sc  Sc32  1  0.22678707  0.53828682  0.15266748  1
  Sc  Sc33  1  0.22369222  0.53922408  0.65888817  1
  Sc  Sc34  1  0.88209196  0.54393048  0.15117526  1
  Sc  Sc35  1  0.22723645  0.86641920  0.65147428  1
  N  N36  1  0.22613586  0.20792042  0.35933475  1
  N  N37  1  0.10989953  0.09548284  0.13307285  1
  N  N38  1  0.88068744  0.22109065  0.85043562  1
  N  N39  1  0.76884128  0.07976614  0.59852561  1
  N  N40  1  0.55415927  0.20600187  0.35212899  1
  N  N41  1  0.44421687  0.09524112  0.10489488  1
  N  N42  1  0.22929566  0.21174337  0.85813671  1
  N  N43  1  0.11289530  0.09264550  0.58444332  1
  N  N44  1  0.88212530  0.21034222  0.36433983  1
  N  N45  1  0.77709077  0.09648627  0.11952191  1
  N  N46  1  0.53612760  0.21459040  0.84469250  1
  N  N47  1  0.46594294  0.08026875  0.59361896  1
  N  N48  1  0.22553277  0.53675865  0.36663759  1
  N  N49  1  0.11897563  0.40747583  0.09930840  1
  N  N50  1  0.88598328  0.54066679  0.85954484  1
  N  N51  1  0.76761027  0.45208867  0.59747429  1
  N  N52  1  0.55599608  0.53855522  0.34836863  1
  N  N53  1  0.46629913  0.41437474  0.09824466  1
  N  N54  1  0.22267444  0.53944777  0.87557023  1
  N  N55  1  0.08873573  0.44136036  0.59826959  1
  N  N56  1  0.88657449  0.54261985  0.35860319  1
  N  N57  1  0.76979307  0.41662436  0.09924587  1
  N  N58  1  0.55430687  0.54064732  0.85092101  1
  N  N59  1  0.46866890  0.41656038  0.59858729  1
  N  N60  1  0.22662479  0.86586244  0.35670860  1
  N  N61  1  0.09730792  0.78432778  0.10349315  1
  N  N62  1  0.89924087  0.85296503  0.84456822  1
  N  N63  1  0.77551191  0.76099789  0.60329594  1
  N  N64  1  0.55762880  0.87101729  0.34828199  1
  N  N65  1  0.44623620  0.75940247  0.10473464  1
  N  N66  1  0.23108373  0.85514123  0.86088729  1
  N  N67  1  0.09100548  0.76895025  0.59188352  1
  N  N68  1  0.88651699  0.87018981  0.35221635  1
  N  N69  1  0.76569189  0.78657851  0.09397747  1
  N  N70  1  0.55241572  0.87431716  0.85133836  1
  N  N71  1  0.46562011  0.75157268  0.59417684  1
