# generated using pymatgen
data_Sc2Al7N9
_symmetry_space_group_name_H-M   'P 1'
_cell_length_a   10.23058317
_cell_length_b   10.21770312
_cell_length_c   8.68999321
_cell_angle_alpha   90.04404460
_cell_angle_beta   90.03118917
_cell_angle_gamma   60.30459969
_symmetry_Int_Tables_number   1
_chemical_formula_structural   Sc2Al7N9
_chemical_formula_sum   'Sc8 Al28 N36'
_cell_volume   789.09344928
_cell_formula_units_Z   4
loop_
 _symmetry_equiv_pos_site_id
 _symmetry_equiv_pos_as_xyz
  1  'x, y, z'
loop_
 _atom_site_type_symbol
 _atom_site_label
 _atom_site_symmetry_multiplicity
 _atom_site_fract_x
 _atom_site_fract_y
 _atom_site_fract_z
 _atom_site_occupancy
  Al  Al0  1  0.11218010  0.09295441  0.34745414  1
  Al  Al1  1  0.22791059  0.20200669  0.11180437  1
  Al  Al2  1  0.45149257  0.08879796  0.35594472  1
  Al  Al3  1  0.55653559  0.20500686  0.11619862  1
  Al  Al4  1  0.77443175  0.09150080  0.35443029  1
  Al  Al5  1  0.88232966  0.20893755  0.11189197  1
  Al  Al6  1  0.44527611  0.09529280  0.86966029  1
  Al  Al7  1  0.55783473  0.20033302  0.60600476  1
  Al  Al8  1  0.10722713  0.42829058  0.35454677  1
  Al  Al9  1  0.77091888  0.43561749  0.86085601  1
  Al  Al10  1  0.87944625  0.54872754  0.60516672  1
  Al  Al11  1  0.45354015  0.42377482  0.36341186  1
  Al  Al12  1  0.55653912  0.53637418  0.11311786  1
  Al  Al13  1  0.10887488  0.42896609  0.85558840  1
  Al  Al14  1  0.77190003  0.43492087  0.35604302  1
  Al  Al15  1  0.45007240  0.42537895  0.85879019  1
  Al  Al16  1  0.56008885  0.54149068  0.61138134  1
  Al  Al17  1  0.10380292  0.76555462  0.35331748  1
  Al  Al18  1  0.22504874  0.86940411  0.11123952  1
  Al  Al19  1  0.77558491  0.76305646  0.85929083  1
  Al  Al20  1  0.88320883  0.86926152  0.60677165  1
  Al  Al21  1  0.45173552  0.75822730  0.35507147  1
  Al  Al22  1  0.55486127  0.87505250  0.11107965  1
  Al  Al23  1  0.10917514  0.75838375  0.86959583  1
  Al  Al24  1  0.77237235  0.76588405  0.36431044  1
  Al  Al25  1  0.88302171  0.87694093  0.11658037  1
  Al  Al26  1  0.44954952  0.75611596  0.86866853  1
  Al  Al27  1  0.56020762  0.86991330  0.61515392  1
  Sc  Sc28  1  0.77312250  0.09085568  0.85681722  1
  Sc  Sc29  1  0.87985342  0.21379877  0.59775229  1
  Sc  Sc30  1  0.11220438  0.09367636  0.86197490  1
  Sc  Sc31  1  0.23027731  0.20557225  0.60062856  1
  Sc  Sc32  1  0.22950108  0.53530107  0.10676383  1
  Sc  Sc33  1  0.22276664  0.53998382  0.60356121  1
  Sc  Sc34  1  0.88381072  0.54417237  0.10494174  1
  Sc  Sc35  1  0.22948880  0.86240136  0.60091361  1
  N  N36  1  0.22587154  0.20450164  0.34409314  1
  N  N37  1  0.11160331  0.09321595  0.11296697  1
  N  N38  1  0.87713455  0.22394328  0.85746456  1
  N  N39  1  0.76996201  0.08363033  0.59283403  1
  N  N40  1  0.55485130  0.20617753  0.34577703  1
  N  N41  1  0.44659550  0.09352827  0.10173556  1
  N  N42  1  0.23179882  0.21221849  0.85815885  1
  N  N43  1  0.11172472  0.09270838  0.59655047  1
  N  N44  1  0.88590540  0.20807868  0.34338242  1
  N  N45  1  0.77565948  0.09402401  0.11020034  1
  N  N46  1  0.53869465  0.21240325  0.84466613  1
  N  N47  1  0.46516166  0.08095316  0.58788232  1
  N  N48  1  0.22737493  0.53500691  0.35246620  1
  N  N49  1  0.11681827  0.41254485  0.10262368  1
  N  N50  1  0.88442337  0.54245458  0.84621514  1
  N  N51  1  0.76789761  0.44839316  0.59258060  1
  N  N52  1  0.55420257  0.54003093  0.34331451  1
  N  N53  1  0.46452557  0.41652722  0.09403992  1
  N  N54  1  0.22384363  0.53933961  0.85384158  1
  N  N55  1  0.09054544  0.43826596  0.60007192  1
  N  N56  1  0.88536870  0.54515848  0.35595978  1
  N  N57  1  0.76826255  0.42368615  0.10267055  1
  N  N58  1  0.55553338  0.54093647  0.84706474  1
  N  N59  1  0.46705912  0.41744926  0.59650202  1
  N  N60  1  0.22731733  0.86824026  0.34164040  1
  N  N61  1  0.09872965  0.77754498  0.10495534  1
  N  N62  1  0.89870006  0.85364310  0.84451186  1
  N  N63  1  0.77305866  0.76420528  0.59787756  1
  N  N64  1  0.55716871  0.87092545  0.33978915  1
  N  N65  1  0.44826920  0.75835222  0.09957090  1
  N  N66  1  0.23294808  0.85118798  0.86049639  1
  N  N67  1  0.09068179  0.77016848  0.58495052  1
  N  N68  1  0.88355613  0.87218197  0.34554420  1
  N  N69  1  0.76653555  0.78139308  0.09171023  1
  N  N70  1  0.55244270  0.87478041  0.84907433  1
  N  N71  1  0.46502429  0.75258743  0.59105331  1
