# generated using pymatgen
data_Sc2Al7N9
_symmetry_space_group_name_H-M   'P 1'
_cell_length_a   9.70771599
_cell_length_b   9.71029543
_cell_length_c   10.17533288
_cell_angle_alpha   89.97089308
_cell_angle_beta   89.82568977
_cell_angle_gamma   60.20865808
_symmetry_Int_Tables_number   1
_chemical_formula_structural   Sc2Al7N9
_chemical_formula_sum   'Sc8 Al28 N36'
_cell_volume   832.40708067
_cell_formula_units_Z   4
loop_
 _symmetry_equiv_pos_site_id
 _symmetry_equiv_pos_as_xyz
  1  'x, y, z'
loop_
 _atom_site_type_symbol
 _atom_site_label
 _atom_site_symmetry_multiplicity
 _atom_site_fract_x
 _atom_site_fract_y
 _atom_site_fract_z
 _atom_site_occupancy
  Al  Al0  1  0.11197949  0.09373015  0.27911627  1
  Al  Al1  1  0.22997480  0.20431620  0.04688705  1
  Al  Al2  1  0.44567272  0.09196391  0.29228560  1
  Al  Al3  1  0.55456177  0.20556387  0.04988446  1
  Al  Al4  1  0.77667981  0.09219387  0.29002422  1
  Al  Al5  1  0.87984615  0.21105019  0.05103557  1
  Al  Al6  1  0.44755591  0.09584348  0.79979647  1
  Al  Al7  1  0.56162554  0.19877441  0.54258260  1
  Al  Al8  1  0.11152223  0.42566241  0.29426540  1
  Al  Al9  1  0.77170721  0.43755656  0.79431437  1
  Al  Al10  1  0.88046015  0.54725742  0.54437244  1
  Al  Al11  1  0.44911918  0.42616124  0.29622097  1
  Al  Al12  1  0.55749094  0.53617267  0.04590094  1
  Al  Al13  1  0.10652889  0.43125068  0.79261883  1
  Al  Al14  1  0.77321940  0.42936206  0.29458742  1
  Al  Al15  1  0.45057568  0.42529484  0.79421221  1
  Al  Al16  1  0.56099336  0.54037083  0.54707961  1
  Al  Al17  1  0.10716589  0.76506144  0.29170814  1
  Al  Al18  1  0.22644604  0.86611874  0.04909237  1
  Al  Al19  1  0.77836019  0.75816474  0.79239486  1
  Al  Al20  1  0.88208353  0.87213069  0.54244942  1
  Al  Al21  1  0.44701914  0.76037237  0.29246804  1
  Al  Al22  1  0.55397655  0.87612729  0.04644046  1
  Al  Al23  1  0.10961841  0.75648444  0.79718106  1
  Al  Al24  1  0.77261633  0.76728743  0.29921985  1
  Al  Al25  1  0.88536167  0.87441703  0.04990816  1
  Al  Al26  1  0.45140971  0.75460531  0.80051821  1
  Al  Al27  1  0.56170101  0.86934056  0.54920002  1
  Sc  Sc28  1  0.77350616  0.09056204  0.80463928  1
  Sc  Sc29  1  0.88323799  0.20987285  0.54320922  1
  Sc  Sc30  1  0.11315554  0.09332530  0.82147922  1
  Sc  Sc31  1  0.22766348  0.20277377  0.54747795  1
  Sc  Sc32  1  0.22783315  0.53810783  0.04556129  1
  Sc  Sc33  1  0.22417627  0.53883996  0.55519908  1
  Sc  Sc34  1  0.88314656  0.54359472  0.05205548  1
  Sc  Sc35  1  0.22625721  0.86913980  0.54640713  1
  N  N36  1  0.22229052  0.20205369  0.33791120  1
  N  N37  1  0.11263986  0.09356220  0.08569189  1
  N  N38  1  0.87113669  0.22975626  0.86304898  1
  N  N39  1  0.77136808  0.08355471  0.59687984  1
  N  N40  1  0.55500021  0.20399227  0.35149400  1
  N  N41  1  0.44600476  0.09264199  0.10436747  1
  N  N42  1  0.23279696  0.21862119  0.85730879  1
  N  N43  1  0.10953121  0.09422011  0.61612146  1
  N  N44  1  0.89082197  0.20334629  0.33249490  1
  N  N45  1  0.77544946  0.09350584  0.09848224  1
  N  N46  1  0.53706903  0.21690128  0.86404277  1
  N  N47  1  0.46513181  0.08394634  0.61144001  1
  N  N48  1  0.22283231  0.54010644  0.33967191  1
  N  N49  1  0.11884090  0.41243983  0.10930070  1
  N  N50  1  0.88638403  0.54138693  0.84425843  1
  N  N51  1  0.76982865  0.44669715  0.60617005  1
  N  N52  1  0.55415139  0.54138373  0.35682722  1
  N  N53  1  0.46346423  0.41855707  0.10999342  1
  N  N54  1  0.22595527  0.53545346  0.83047207  1
  N  N55  1  0.08989917  0.43613343  0.60597455  1
  N  N56  1  0.88629935  0.54105843  0.34926545  1
  N  N57  1  0.76628144  0.42338703  0.11023687  1
  N  N58  1  0.55612866  0.53844927  0.85701153  1
  N  N59  1  0.47165949  0.41325193  0.60581301  1
  N  N60  1  0.22252421  0.87425033  0.33531009  1
  N  N61  1  0.09946960  0.77866383  0.10681154  1
  N  N62  1  0.89823570  0.84870223  0.86364805  1
  N  N63  1  0.77706765  0.76233956  0.60151190  1
  N  N64  1  0.55224164  0.87388943  0.35750060  1
  N  N65  1  0.44880219  0.75846505  0.10323099  1
  N  N66  1  0.23584791  0.84447247  0.86031180  1
  N  N67  1  0.08850893  0.77429144  0.61113288  1
  N  N68  1  0.88806157  0.87291981  0.35264903  1
  N  N69  1  0.76401497  0.78340734  0.11347227  1
  N  N70  1  0.55677972  0.87272666  0.85640527  1
  N  N71  1  0.46323238  0.75261389  0.61194313  1
