# generated using pymatgen
data_Sc2Al7N9
_symmetry_space_group_name_H-M   'P 1'
_cell_length_a   9.71193369
_cell_length_b   9.71521745
_cell_length_c   10.16453178
_cell_angle_alpha   89.97419025
_cell_angle_beta   89.83353095
_cell_angle_gamma   60.20132689
_symmetry_Int_Tables_number   1
_chemical_formula_structural   Sc2Al7N9
_chemical_formula_sum   'Sc8 Al28 N36'
_cell_volume   832.24579717
_cell_formula_units_Z   4
loop_
 _symmetry_equiv_pos_site_id
 _symmetry_equiv_pos_as_xyz
  1  'x, y, z'
loop_
 _atom_site_type_symbol
 _atom_site_label
 _atom_site_symmetry_multiplicity
 _atom_site_fract_x
 _atom_site_fract_y
 _atom_site_fract_z
 _atom_site_occupancy
  Al  Al0  1  0.11189689  0.09376999  0.30300344  1
  Al  Al1  1  0.22995159  0.20433338  0.07054565  1
  Al  Al2  1  0.44554454  0.09200507  0.31616475  1
  Al  Al3  1  0.55435980  0.20562458  0.07368827  1
  Al  Al4  1  0.77663969  0.09222060  0.31373878  1
  Al  Al5  1  0.87969728  0.21114929  0.07471686  1
  Al  Al6  1  0.44745349  0.09586606  0.82344644  1
  Al  Al7  1  0.56154103  0.19872889  0.56637251  1
  Al  Al8  1  0.11156122  0.42557939  0.31810995  1
  Al  Al9  1  0.77160577  0.43772206  0.81808230  1
  Al  Al10  1  0.88030170  0.54736686  0.56795935  1
  Al  Al11  1  0.44913998  0.42615762  0.32003832  1
  Al  Al12  1  0.55742738  0.53618606  0.06964972  1
  Al  Al13  1  0.10630153  0.43142373  0.81650452  1
  Al  Al14  1  0.77314380  0.42928917  0.31845269  1
  Al  Al15  1  0.45051620  0.42530792  0.81799331  1
  Al  Al16  1  0.56090189  0.54042701  0.57081208  1
  Al  Al17  1  0.10709096  0.76517080  0.31561558  1
  Al  Al18  1  0.22642723  0.86607301  0.07284784  1
  Al  Al19  1  0.77827919  0.75813134  0.81620572  1
  Al  Al20  1  0.88191385  0.87214699  0.56630916  1
  Al  Al21  1  0.44694947  0.76041984  0.31627047  1
  Al  Al22  1  0.55387295  0.87619924  0.07017861  1
  Al  Al23  1  0.10954367  0.75642383  0.82094189  1
  Al  Al24  1  0.77247481  0.76746637  0.32296568  1
  Al  Al25  1  0.88535352  0.87436033  0.07367760  1
  Al  Al26  1  0.45136178  0.75462311  0.82424816  1
  Al  Al27  1  0.56157229  0.86937528  0.57290935  1
  Sc  Sc28  1  0.77333682  0.09050882  0.82881305  1
  Sc  Sc29  1  0.88293520  0.20984013  0.56739531  1
  Sc  Sc30  1  0.11299526  0.09333379  0.84551436  1
  Sc  Sc31  1  0.22731872  0.20289086  0.57162242  1
  Sc  Sc32  1  0.22775220  0.53816424  0.06960216  1
  Sc  Sc33  1  0.22412722  0.53878809  0.57904971  1
  Sc  Sc34  1  0.88305573  0.54362013  0.07625961  1
  Sc  Sc35  1  0.22611404  0.86917706  0.57043764  1
  N  N36  1  0.22219987  0.20206177  0.36180882  1
  N  N37  1  0.11257728  0.09358810  0.10925755  1
  N  N38  1  0.87093623  0.22987898  0.88652771  1
  N  N39  1  0.77115275  0.08343627  0.62087203  1
  N  N40  1  0.55500484  0.20397099  0.37511038  1
  N  N41  1  0.44587973  0.09267546  0.12806316  1
  N  N42  1  0.23266689  0.21864310  0.88074270  1
  N  N43  1  0.10928155  0.09423344  0.63997369  1
  N  N44  1  0.89074565  0.20331289  0.35637333  1
  N  N45  1  0.77538864  0.09352550  0.12194519  1
  N  N46  1  0.53680917  0.21696469  0.88769725  1
  N  N47  1  0.46497030  0.08396743  0.63494999  1
  N  N48  1  0.22280658  0.54011793  0.36327128  1
  N  N49  1  0.11889889  0.41232757  0.13295838  1
  N  N50  1  0.88622590  0.54146323  0.86822547  1
  N  N51  1  0.76974796  0.44684245  0.62973804  1
  N  N52  1  0.55408159  0.54143026  0.38045448  1
  N  N53  1  0.46346381  0.41856418  0.13364770  1
  N  N54  1  0.22590123  0.53545154  0.85423209  1
  N  N55  1  0.08962444  0.43637881  0.62963904  1
  N  N56  1  0.88621022  0.54114101  0.37267308  1
  N  N57  1  0.76619160  0.42332551  0.13392985  1
  N  N58  1  0.55604249  0.53850006  0.88063043  1
  N  N59  1  0.47166464  0.41323816  0.62941161  1
  N  N60  1  0.22248226  0.87430407  0.35911369  1
  N  N61  1  0.09940569  0.77877846  0.13053743  1
  N  N62  1  0.89823694  0.84855546  0.88729699  1
  N  N63  1  0.77692217  0.76233967  0.62514012  1
  N  N64  1  0.55217351  0.87391419  0.38111154  1
  N  N65  1  0.44875944  0.75848599  0.12687177  1
  N  N66  1  0.23578936  0.84442738  0.88385085  1
  N  N67  1  0.08841043  0.77419862  0.63470296  1
  N  N68  1  0.88794026  0.87302101  0.37632478  1
  N  N69  1  0.76388461  0.78357321  0.13709291  1
  N  N70  1  0.55665432  0.87280136  0.88001413  1
  N  N71  1  0.46319941  0.75262942  0.63553522  1
