# generated using pymatgen
data_Sc2Al7N9
_symmetry_space_group_name_H-M   'P 1'
_cell_length_a   9.70952038
_cell_length_b   9.71253336
_cell_length_c   10.17151158
_cell_angle_alpha   89.97329611
_cell_angle_beta   89.82942635
_cell_angle_gamma   60.19589787
_symmetry_Int_Tables_number   1
_chemical_formula_structural   Sc2Al7N9
_chemical_formula_sum   'Sc8 Al28 N36'
_cell_volume   832.33493930
_cell_formula_units_Z   4
loop_
 _symmetry_equiv_pos_site_id
 _symmetry_equiv_pos_as_xyz
  1  'x, y, z'
loop_
 _atom_site_type_symbol
 _atom_site_label
 _atom_site_symmetry_multiplicity
 _atom_site_fract_x
 _atom_site_fract_y
 _atom_site_fract_z
 _atom_site_occupancy
  Al  Al0  1  0.11192841  0.09375916  0.29055370  1
  Al  Al1  1  0.22995296  0.20434158  0.05823766  1
  Al  Al2  1  0.44560942  0.09199917  0.30371423  1
  Al  Al3  1  0.55446962  0.20559969  0.06128743  1
  Al  Al4  1  0.77666249  0.09220479  0.30138170  1
  Al  Al5  1  0.87978033  0.21108494  0.06237158  1
  Al  Al6  1  0.44748992  0.09587718  0.81112504  1
  Al  Al7  1  0.56157218  0.19875119  0.55397569  1
  Al  Al8  1  0.11154794  0.42565380  0.30568888  1
  Al  Al9  1  0.77167027  0.43762345  0.80570370  1
  Al  Al10  1  0.88038250  0.54729837  0.55566944  1
  Al  Al11  1  0.44911606  0.42617977  0.30763525  1
  Al  Al12  1  0.55746530  0.53618473  0.05728668  1
  Al  Al13  1  0.10642318  0.43132124  0.80404661  1
  Al  Al14  1  0.77319237  0.42932272  0.30602341  1
  Al  Al15  1  0.45058383  0.42529296  0.80559182  1
  Al  Al16  1  0.56095441  0.54040871  0.55844723  1
  Al  Al17  1  0.10715020  0.76509093  0.30316094  1
  Al  Al18  1  0.22643716  0.86610125  0.06047876  1
  Al  Al19  1  0.77831637  0.75814052  0.80380010  1
  Al  Al20  1  0.88199953  0.87211707  0.55387314  1
  Al  Al21  1  0.44699010  0.76040747  0.30386395  1
  Al  Al22  1  0.55392776  0.87617395  0.05780841  1
  Al  Al23  1  0.10958482  0.75645925  0.80854818  1
  Al  Al24  1  0.77255137  0.76737234  0.31059247  1
  Al  Al25  1  0.88537289  0.87437389  0.06130093  1
  Al  Al26  1  0.45137855  0.75462277  0.81188592  1
  Al  Al27  1  0.56162163  0.86937329  0.56055868  1
  Sc  Sc28  1  0.77344429  0.09050885  0.81621340  1
  Sc  Sc29  1  0.88305511  0.20984218  0.55479389  1
  Sc  Sc30  1  0.11309424  0.09333028  0.83297643  1
  Sc  Sc31  1  0.22746179  0.20281711  0.55899550  1
  Sc  Sc32  1  0.22780336  0.53813359  0.05699438  1
  Sc  Sc33  1  0.22416825  0.53878713  0.56666529  1
  Sc  Sc34  1  0.88310432  0.54359840  0.06363884  1
  Sc  Sc35  1  0.22617567  0.86914739  0.55788720  1
  N  N36  1  0.22222956  0.20206914  0.34934216  1
  N  N37  1  0.11260959  0.09358997  0.09700376  1
  N  N38  1  0.87103913  0.22979235  0.87431677  1
  N  N39  1  0.77125458  0.08347553  0.60839838  1
  N  N40  1  0.55499364  0.20398726  0.36282222  1
  N  N41  1  0.44595385  0.09267564  0.11573260  1
  N  N42  1  0.23272037  0.21864087  0.86858214  1
  N  N43  1  0.10939398  0.09422343  0.62755888  1
  N  N44  1  0.89077435  0.20332306  0.34396180  1
  N  N45  1  0.77543516  0.09351216  0.10974403  1
  N  N46  1  0.53694863  0.21692635  0.87539322  1
  N  N47  1  0.46501340  0.08399519  0.62271609  1
  N  N48  1  0.22282243  0.54011113  0.35104682  1
  N  N49  1  0.11888413  0.41242944  0.12065752  1
  N  N50  1  0.88630830  0.54140736  0.85575252  1
  N  N51  1  0.76980444  0.44676079  0.61748367  1
  N  N52  1  0.55411556  0.54141462  0.36816279  1
  N  N53  1  0.46345616  0.41858680  0.12134505  1
  N  N54  1  0.22594247  0.53543518  0.84180282  1
  N  N55  1  0.08977370  0.43623205  0.61732852  1
  N  N56  1  0.88625313  0.54109533  0.36050169  1
  N  N57  1  0.76625673  0.42335065  0.12161104  1
  N  N58  1  0.55609004  0.53847390  0.86834810  1
  N  N59  1  0.47170732  0.41324370  0.61713310  1
  N  N60  1  0.22249796  0.87427866  0.34671147  1
  N  N61  1  0.09947045  0.77869956  0.11819880  1
  N  N62  1  0.89824181  0.84859634  0.87500506  1
  N  N63  1  0.77699413  0.76233747  0.61284770  1
  N  N64  1  0.55219860  0.87391368  0.36882821  1
  N  N65  1  0.44879733  0.75849211  0.11456924  1
  N  N66  1  0.23580433  0.84444423  0.87162130  1
  N  N67  1  0.08846373  0.77425372  0.62244086  1
  N  N68  1  0.88800522  0.87295645  0.36400421  1
  N  N69  1  0.76396501  0.78348636  0.12480612  1
  N  N70  1  0.55670218  0.87277140  0.86772668  1
  N  N71  1  0.46320294  0.75264570  0.62326383  1
