# generated using pymatgen
data_Sc2Al7N9
_symmetry_space_group_name_H-M   'P 1'
_cell_length_a   9.90300985
_cell_length_b   9.90358088
_cell_length_c   9.63636867
_cell_angle_alpha   90.01426318
_cell_angle_beta   89.90758122
_cell_angle_gamma   60.29117136
_symmetry_Int_Tables_number   1
_chemical_formula_structural   Sc2Al7N9
_chemical_formula_sum   'Sc8 Al28 N36'
_cell_volume   820.86056815
_cell_formula_units_Z   4
loop_
 _symmetry_equiv_pos_site_id
 _symmetry_equiv_pos_as_xyz
  1  'x, y, z'
loop_
 _atom_site_type_symbol
 _atom_site_label
 _atom_site_symmetry_multiplicity
 _atom_site_fract_x
 _atom_site_fract_y
 _atom_site_fract_z
 _atom_site_occupancy
  Al  Al0  1  0.11270099  0.09313288  0.31617864  1
  Al  Al1  1  0.23135950  0.20319794  0.07733988  1
  Al  Al2  1  0.44511985  0.09116065  0.32607424  1
  Al  Al3  1  0.55216486  0.20650912  0.08364122  1
  Al  Al4  1  0.77757392  0.09211974  0.32124422  1
  Al  Al5  1  0.87941379  0.21248974  0.08304346  1
  Al  Al6  1  0.44941372  0.09484477  0.82928434  1
  Al  Al7  1  0.56288729  0.19754622  0.57284915  1
  Al  Al8  1  0.11297093  0.42265923  0.32810504  1
  Al  Al9  1  0.77109822  0.44081657  0.82474747  1
  Al  Al10  1  0.87935901  0.54944143  0.57187797  1
  Al  Al11  1  0.45164621  0.42537809  0.33001600  1
  Al  Al12  1  0.55782841  0.53550731  0.07708800  1
  Al  Al13  1  0.10369688  0.43429132  0.82721246  1
  Al  Al14  1  0.77237397  0.42826772  0.32919083  1
  Al  Al15  1  0.45073533  0.42489970  0.82564141  1
  Al  Al16  1  0.56057818  0.54139572  0.57717040  1
  Al  Al17  1  0.10655602  0.76747649  0.32657433  1
  Al  Al18  1  0.22715494  0.86511165  0.08053654  1
  Al  Al19  1  0.77856903  0.75771081  0.82395234  1
  Al  Al20  1  0.88035235  0.87310908  0.57414578  1
  Al  Al21  1  0.44684165  0.76082511  0.32405443  1
  Al  Al22  1  0.55395312  0.87645056  0.07701203  1
  Al  Al23  1  0.10834908  0.75558598  0.82912875  1
  Al  Al24  1  0.77042760  0.77043881  0.33063036  1
  Al  Al25  1  0.88627874  0.87249650  0.08202947  1
  Al  Al26  1  0.45327079  0.75391217  0.83227240  1
  Al  Al27  1  0.56158578  0.86912479  0.57949543  1
  Sc  Sc28  1  0.77158350  0.09012489  0.84584283  1
  Sc  Sc29  1  0.88100244  0.20962647  0.58560698  1
  Sc  Sc30  1  0.11190153  0.09358938  0.85631270  1
  Sc  Sc31  1  0.22677087  0.20476558  0.58973490  1
  Sc  Sc32  1  0.22810364  0.53802206  0.08834071  1
  Sc  Sc33  1  0.22393634  0.53835723  0.58954232  1
  Sc  Sc34  1  0.88264507  0.54373363  0.09425139  1
  Sc  Sc35  1  0.22763038  0.86707955  0.58763718  1
  N  N36  1  0.22338476  0.20140322  0.36689129  1
  N  N37  1  0.11330611  0.09291480  0.10999886  1
  N  N38  1  0.87102059  0.23095843  0.87965935  1
  N  N39  1  0.76971190  0.08200358  0.62507878  1
  N  N40  1  0.55687295  0.20260299  0.37264759  1
  N  N41  1  0.44521647  0.09205704  0.12852931  1
  N  N42  1  0.23292950  0.21734521  0.87383546  1
  N  N43  1  0.10934716  0.09362127  0.63849675  1
  N  N44  1  0.89062522  0.20270491  0.35995502  1
  N  N45  1  0.77585458  0.09322376  0.11788539  1
  N  N46  1  0.53461673  0.21780048  0.88797801  1
  N  N47  1  0.46693891  0.08258416  0.63172674  1
  N  N48  1  0.22359495  0.53965540  0.36037363  1
  N  N49  1  0.12000940  0.40933881  0.13147511  1
  N  N50  1  0.88469339  0.54303850  0.87350192  1
  N  N51  1  0.76925484  0.44962878  0.62558780  1
  N  N52  1  0.55365732  0.54273882  0.37931667  1
  N  N53  1  0.46507363  0.41802463  0.13407321  1
  N  N54  1  0.22631192  0.53575718  0.85759029  1
  N  N55  1  0.08639248  0.44043105  0.62778316  1
  N  N56  1  0.88588272  0.54250291  0.36709934  1
  N  N57  1  0.76562391  0.42229011  0.13442183  1
  N  N58  1  0.55640336  0.53827629  0.87976192  1
  N  N59  1  0.47194309  0.41299390  0.62640024  1
  N  N60  1  0.22411476  0.87346774  0.36306574  1
  N  N61  1  0.09932408  0.78031039  0.13071637  1
  N  N62  1  0.89855302  0.84740256  0.88646176  1
  N  N63  1  0.77622251  0.76243617  0.62334893  1
  N  N64  1  0.55211066  0.87354464  0.38005592  1
  N  N65  1  0.44867278  0.75840440  0.12541350  1
  N  N66  1  0.23588549  0.84513338  0.87816890  1
  N  N67  1  0.08726709  0.77214524  0.63117947  1
  N  N68  1  0.88687731  0.87443342  0.37495949  1
  N  N69  1  0.76251449  0.78529373  0.13610296  1
  N  N70  1  0.55721164  0.87316397  0.87910061  1
  N  N71  1  0.46626924  0.75146216  0.63476836  1
