# generated using pymatgen
data_Sc2Al7N9
_symmetry_space_group_name_H-M   'P 1'
_cell_length_a   9.71230330
_cell_length_b   9.71862229
_cell_length_c   10.16856122
_cell_angle_alpha   90.02338254
_cell_angle_beta   90.02414355
_cell_angle_gamma   60.16193149
_symmetry_Int_Tables_number   1
_chemical_formula_structural   Sc2Al7N9
_chemical_formula_sum   'Sc8 Al28 N36'
_cell_volume   832.57500812
_cell_formula_units_Z   4
loop_
 _symmetry_equiv_pos_site_id
 _symmetry_equiv_pos_as_xyz
  1  'x, y, z'
loop_
 _atom_site_type_symbol
 _atom_site_label
 _atom_site_symmetry_multiplicity
 _atom_site_fract_x
 _atom_site_fract_y
 _atom_site_fract_z
 _atom_site_occupancy
  Al  Al0  1  0.11245745  0.09344016  0.38751508  1
  Al  Al1  1  0.22761516  0.20204572  0.15803444  1
  Al  Al2  1  0.45115339  0.09002396  0.39664282  1
  Al  Al3  1  0.55810274  0.20352555  0.15318411  1
  Al  Al4  1  0.77344172  0.09004736  0.39801358  1
  Al  Al5  1  0.88274801  0.20723859  0.16147342  1
  Al  Al6  1  0.44271916  0.09670218  0.90156739  1
  Al  Al7  1  0.55800280  0.19983792  0.64482628  1
  Al  Al8  1  0.10566654  0.43231591  0.40076642  1
  Al  Al9  1  0.77170928  0.43089410  0.89890432  1
  Al  Al10  1  0.88008125  0.54799385  0.65111538  1
  Al  Al11  1  0.45135915  0.42467522  0.39977673  1
  Al  Al12  1  0.55798061  0.53486591  0.14860275  1
  Al  Al13  1  0.11246364  0.42545292  0.90178029  1
  Al  Al14  1  0.77275879  0.43727177  0.40030903  1
  Al  Al15  1  0.44774259  0.42640606  0.89954800  1
  Al  Al16  1  0.56076059  0.54085252  0.64833598  1
  Al  Al17  1  0.10648279  0.76172464  0.39670258  1
  Al  Al18  1  0.22341095  0.87185104  0.15588675  1
  Al  Al19  1  0.77497849  0.76421876  0.89556136  1
  Al  Al20  1  0.88389306  0.86735999  0.64527478  1
  Al  Al21  1  0.45138000  0.75735823  0.39536700  1
  Al  Al22  1  0.55377736  0.87671803  0.14768114  1
  Al  Al23  1  0.10964143  0.76052552  0.90409494  1
  Al  Al24  1  0.77602663  0.76169598  0.40255110  1
  Al  Al25  1  0.88304889  0.88015407  0.15315498  1
  Al  Al26  1  0.44756316  0.75721743  0.90189990  1
  Al  Al27  1  0.56166288  0.86881260  0.64726334  1
  Sc  Sc28  1  0.77323647  0.09279855  0.89818876  1
  Sc  Sc29  1  0.88030343  0.21173241  0.63090737  1
  Sc  Sc30  1  0.11145533  0.09515143  0.91064925  1
  Sc  Sc31  1  0.22763990  0.20547478  0.63875967  1
  Sc  Sc32  1  0.22681858  0.53823725  0.14117030  1
  Sc  Sc33  1  0.22378033  0.53917653  0.64750507  1
  Sc  Sc34  1  0.88212413  0.54388793  0.13963420  1
  Sc  Sc35  1  0.22726628  0.86637425  0.63997614  1
  N  N36  1  0.22615786  0.20790328  0.34808651  1
  N  N37  1  0.10995191  0.09545562  0.12170719  1
  N  N38  1  0.88075910  0.22110965  0.83901894  1
  N  N39  1  0.76891402  0.07971005  0.58728148  1
  N  N40  1  0.55422533  0.20596372  0.34078300  1
  N  N41  1  0.44423690  0.09524067  0.09356702  1
  N  N42  1  0.22937815  0.21174744  0.84665084  1
  N  N43  1  0.11289974  0.09264165  0.57314227  1
  N  N44  1  0.88212311  0.21032293  0.35305283  1
  N  N45  1  0.77715329  0.09645045  0.10809229  1
  N  N46  1  0.53619194  0.21457868  0.83340164  1
  N  N47  1  0.46604618  0.08026718  0.58228696  1
  N  N48  1  0.22559455  0.53671564  0.35524047  1
  N  N49  1  0.11905309  0.40738320  0.08796662  1
  N  N50  1  0.88600524  0.54066935  0.84830444  1
  N  N51  1  0.76766602  0.45216701  0.58612639  1
  N  N52  1  0.55602205  0.53856837  0.33704365  1
  N  N53  1  0.46637318  0.41435786  0.08694400  1
  N  N54  1  0.22274526  0.53941568  0.86430394  1
  N  N55  1  0.08873760  0.44145191  0.58692586  1
  N  N56  1  0.88659499  0.54262816  0.34715047  1
  N  N57  1  0.76982335  0.41656853  0.08792725  1
  N  N58  1  0.55435208  0.54064034  0.83959705  1
  N  N59  1  0.46878780  0.41654416  0.58725696  1
  N  N60  1  0.22665658  0.86584334  0.34542301  1
  N  N61  1  0.09737037  0.78431641  0.09218584  1
  N  N62  1  0.89931051  0.85287566  0.83324972  1
  N  N63  1  0.77555282  0.76099553  0.59195509  1
  N  N64  1  0.55765078  0.87101390  0.33694050  1
  N  N65  1  0.44628043  0.75939743  0.09339820  1
  N  N66  1  0.23111664  0.85510573  0.84948330  1
  N  N67  1  0.09105533  0.76887349  0.58053076  1
  N  N68  1  0.88653244  0.87017729  0.34087993  1
  N  N69  1  0.76572132  0.78659055  0.08267121  1
  N  N70  1  0.55244278  0.87432178  0.84002154  1
  N  N71  1  0.46569373  0.75159950  0.58285883  1
