# generated using pymatgen
data_Sc2Al7N9
_symmetry_space_group_name_H-M   'P 1'
_cell_length_a   9.79406496
_cell_length_b   9.80058971
_cell_length_c   9.93999509
_cell_angle_alpha   90.02957090
_cell_angle_beta   90.04217878
_cell_angle_gamma   60.26323198
_symmetry_Int_Tables_number   1
_chemical_formula_structural   Sc2Al7N9
_chemical_formula_sum   'Sc8 Al28 N36'
_cell_volume   828.47180190
_cell_formula_units_Z   4
loop_
 _symmetry_equiv_pos_site_id
 _symmetry_equiv_pos_as_xyz
  1  'x, y, z'
loop_
 _atom_site_type_symbol
 _atom_site_label
 _atom_site_symmetry_multiplicity
 _atom_site_fract_x
 _atom_site_fract_y
 _atom_site_fract_z
 _atom_site_occupancy
  Al  Al0  1  0.11235153  0.09305042  0.37092317  1
  Al  Al1  1  0.22784130  0.20100910  0.14082768  1
  Al  Al2  1  0.45306945  0.08891809  0.37823258  1
  Al  Al3  1  0.55933945  0.20297837  0.13398921  1
  Al  Al4  1  0.77293591  0.08934910  0.38207335  1
  Al  Al5  1  0.88295554  0.20644508  0.14304163  1
  Al  Al6  1  0.44226988  0.09698457  0.88427297  1
  Al  Al7  1  0.55742734  0.20007923  0.62833579  1
  Al  Al8  1  0.10326980  0.43385256  0.38159429  1
  Al  Al9  1  0.77114499  0.43050925  0.88193679  1
  Al  Al10  1  0.87895675  0.54920875  0.63557101  1
  Al  Al11  1  0.45293368  0.42379567  0.38189832  1
  Al  Al12  1  0.55786535  0.53483523  0.13087375  1
  Al  Al13  1  0.11446999  0.42392720  0.88272032  1
  Al  Al14  1  0.77214127  0.43964550  0.38088564  1
  Al  Al15  1  0.44814303  0.42621363  0.88120776  1
  Al  Al16  1  0.56110800  0.54129775  0.63130576  1
  Al  Al17  1  0.10493673  0.76220979  0.37703420  1
  Al  Al18  1  0.22334810  0.87194718  0.13795654  1
  Al  Al19  1  0.77400772  0.76571388  0.87878211  1
  Al  Al20  1  0.88403470  0.86629824  0.62840535  1
  Al  Al21  1  0.45258435  0.75693442  0.37756318  1
  Al  Al22  1  0.55369370  0.87651834  0.12979659  1
  Al  Al23  1  0.11036638  0.75970241  0.88641006  1
  Al  Al24  1  0.77564839  0.76163112  0.38413878  1
  Al  Al25  1  0.88223152  0.88098145  0.13440433  1
  Al  Al26  1  0.44700820  0.75731809  0.88418712  1
  Al  Al27  1  0.56164132  0.86893868  0.63052576  1
  Sc  Sc28  1  0.77452057  0.09279254  0.87448639  1
  Sc  Sc29  1  0.87909754  0.21446307  0.60882297  1
  Sc  Sc30  1  0.11204153  0.09481175  0.88658838  1
  Sc  Sc31  1  0.22866216  0.20638641  0.61534194  1
  Sc  Sc32  1  0.22798756  0.53700287  0.12172902  1
  Sc  Sc33  1  0.22342230  0.53931278  0.62471991  1
  Sc  Sc34  1  0.88318783  0.54361344  0.11586611  1
  Sc  Sc35  1  0.22797840  0.86437906  0.61797064  1
  N  N36  1  0.22614259  0.20756998  0.33583122  1
  N  N37  1  0.11012624  0.09489482  0.10454695  1
  N  N38  1  0.88034665  0.22334107  0.82201012  1
  N  N39  1  0.76894591  0.07956631  0.57657710  1
  N  N40  1  0.55551207  0.20538289  0.32557549  1
  N  N41  1  0.44395899  0.09495557  0.07963397  1
  N  N42  1  0.23069883  0.21174308  0.82858909  1
  N  N43  1  0.11262065  0.09241222  0.56198050  1
  N  N44  1  0.88200715  0.21013059  0.34007577  1
  N  N45  1  0.77768177  0.09616633  0.08958029  1
  N  N46  1  0.53580850  0.21462654  0.82013526  1
  N  N47  1  0.46796517  0.07924776  0.56735734  1
  N  N48  1  0.22621802  0.53613547  0.34151086  1
  N  N49  1  0.12108342  0.40563330  0.07364807  1
  N  N50  1  0.88552817  0.54135354  0.83704889  1
  N  N51  1  0.76681585  0.45474607  0.57068414  1
  N  N52  1  0.55567418  0.53901494  0.32219810  1
  N  N53  1  0.46681923  0.41412359  0.07254223  1
  N  N54  1  0.22344855  0.53912626  0.84815758  1
  N  N55  1  0.08586450  0.44302182  0.57225181  1
  N  N56  1  0.88588924  0.54404853  0.32840759  1
  N  N57  1  0.76956008  0.41608716  0.07467574  1
  N  N58  1  0.55465155  0.54086612  0.82556798  1
  N  N59  1  0.47019934  0.41583854  0.57307160  1
  N  N60  1  0.22682339  0.86618441  0.33242860  1
  N  N61  1  0.09778416  0.78315232  0.07929634  1
  N  N62  1  0.90037815  0.85123904  0.81972451  1
  N  N63  1  0.77502147  0.76113311  0.57751122  1
  N  N64  1  0.55774422  0.87081700  0.32194615  1
  N  N65  1  0.44583489  0.75934592  0.07897047  1
  N  N66  1  0.23174038  0.85338350  0.83278459  1
  N  N67  1  0.08923968  0.76909137  0.56476987  1
  N  N68  1  0.88499019  0.87149903  0.32586549  1
  N  N69  1  0.76470215  0.78745584  0.06882675  1
  N  N70  1  0.55207916  0.87469717  0.82609671  1
  N  N71  1  0.46690764  0.75123064  0.56847474  1
