# generated using pymatgen
data_Sc2Al7N9
_symmetry_space_group_name_H-M   'P 1'
_cell_length_a   9.71499579
_cell_length_b   9.72145017
_cell_length_c   10.16069224
_cell_angle_alpha   90.02475505
_cell_angle_beta   90.02607061
_cell_angle_gamma   60.16923941
_symmetry_Int_Tables_number   1
_chemical_formula_structural   Sc2Al7N9
_chemical_formula_sum   'Sc8 Al28 N36'
_cell_volume   832.46436421
_cell_formula_units_Z   4
loop_
 _symmetry_equiv_pos_site_id
 _symmetry_equiv_pos_as_xyz
  1  'x, y, z'
loop_
 _atom_site_type_symbol
 _atom_site_label
 _atom_site_symmetry_multiplicity
 _atom_site_fract_x
 _atom_site_fract_y
 _atom_site_fract_z
 _atom_site_occupancy
  Al  Al0  1  0.11250415  0.09340395  0.37514401  1
  Al  Al1  1  0.22769339  0.20197671  0.14567948  1
  Al  Al2  1  0.45127874  0.08996918  0.38424981  1
  Al  Al3  1  0.55821307  0.20346768  0.14072646  1
  Al  Al4  1  0.77346493  0.09000146  0.38572007  1
  Al  Al5  1  0.88279394  0.20719292  0.14908426  1
  Al  Al6  1  0.44276196  0.09669093  0.88918646  1
  Al  Al7  1  0.55804471  0.19983115  0.63250941  1
  Al  Al8  1  0.10560100  0.43237705  0.38831727  1
  Al  Al9  1  0.77173925  0.43086216  0.88653080  1
  Al  Al10  1  0.88006923  0.54806154  0.63883535  1
  Al  Al11  1  0.45147810  0.42461299  0.38737992  1
  Al  Al12  1  0.55802721  0.53484658  0.13621922  1
  Al  Al13  1  0.11262281  0.42536393  0.88931632  1
  Al  Al14  1  0.77276897  0.43738621  0.38784634  1
  Al  Al15  1  0.44781146  0.42638311  0.88714404  1
  Al  Al16  1  0.56081526  0.54086633  0.63597573  1
  Al  Al17  1  0.10646624  0.76173099  0.38426600  1
  Al  Al18  1  0.22344996  0.87182335  0.14349111  1
  Al  Al19  1  0.77497743  0.76428050  0.88324251  1
  Al  Al20  1  0.88394130  0.86730523  0.63293686  1
  Al  Al21  1  0.45144817  0.75733581  0.38299714  1
  Al  Al22  1  0.55381278  0.87668749  0.13531006  1
  Al  Al23  1  0.10972325  0.76046722  0.89170489  1
  Al  Al24  1  0.77605661  0.76168003  0.39012377  1
  Al  Al25  1  0.88306730  0.88017289  0.14072797  1
  Al  Al26  1  0.44758795  0.75721029  0.88951618  1
  Al  Al27  1  0.56170883  0.86880596  0.63491908  1
  Sc  Sc28  1  0.77337376  0.09279979  0.88555350  1
  Sc  Sc29  1  0.88031052  0.21186037  0.61829462  1
  Sc  Sc30  1  0.11152882  0.09515145  0.89805382  1
  Sc  Sc31  1  0.22771995  0.20550618  0.62612408  1
  Sc  Sc32  1  0.22692240  0.53816200  0.12873594  1
  Sc  Sc33  1  0.22382895  0.53915862  0.63490918  1
  Sc  Sc34  1  0.88224322  0.54383747  0.12696006  1
  Sc  Sc35  1  0.22731564  0.86631030  0.62746091  1
  N  N36  1  0.22621131  0.20788589  0.33589470  1
  N  N37  1  0.11000044  0.09541328  0.10934910  1
  N  N38  1  0.88082831  0.22120499  0.82657344  1
  N  N39  1  0.76897093  0.07968279  0.57515701  1
  N  N40  1  0.55433518  0.20591349  0.32846256  1
  N  N41  1  0.44427605  0.09519191  0.08129442  1
  N  N42  1  0.22949857  0.21172395  0.83418518  1
  N  N43  1  0.11294655  0.09260529  0.56092653  1
  N  N44  1  0.88214504  0.21032083  0.34085147  1
  N  N45  1  0.77723520  0.09641480  0.09562639  1
  N  N46  1  0.53624498  0.21456548  0.82117835  1
  N  N47  1  0.46618169  0.08021209  0.57000091  1
  N  N48  1  0.22566649  0.53668202  0.34299557  1
  N  N49  1  0.11923113  0.40725302  0.07565425  1
  N  N50  1  0.88603870  0.54069814  0.83617634  1
  N  N51  1  0.76765874  0.45231007  0.57379255  1
  N  N52  1  0.55604623  0.53858318  0.32474652  1
  N  N53  1  0.46644065  0.41432159  0.07466692  1
  N  N54  1  0.22283934  0.53938747  0.85192249  1
  N  N55  1  0.08863482  0.44152360  0.57462223  1
  N  N56  1  0.88661298  0.54268085  0.33464660  1
  N  N57  1  0.76985783  0.41650779  0.07567463  1
  N  N58  1  0.55441262  0.54063826  0.82732841  1
  N  N59  1  0.46891626  0.41647837  0.57497637  1
  N  N60  1  0.22670237  0.86583332  0.33318577  1
  N  N61  1  0.09743292  0.78423073  0.07994838  1
  N  N62  1  0.89939848  0.85279430  0.82101296  1
  N  N63  1  0.77557122  0.76099501  0.57966421  1
  N  N64  1  0.55768268  0.87100029  0.32465565  1
  N  N65  1  0.44630812  0.75936720  0.08111562  1
  N  N66  1  0.23117633  0.85505258  0.83713344  1
  N  N67  1  0.09102291  0.76886757  0.56821590  1
  N  N68  1  0.88652266  0.87022523  0.32857842  1
  N  N69  1  0.76571264  0.78661501  0.07043567  1
  N  N70  1  0.55248671  0.87431726  0.82775942  1
  N  N71  1  0.46575970  0.75158233  0.57059465  1
