# generated using pymatgen
data_Sc2Al7N9
_symmetry_space_group_name_H-M   'P 1'
_cell_length_a   9.73949717
_cell_length_b   9.74645039
_cell_length_c   10.09159013
_cell_angle_alpha   90.02861035
_cell_angle_beta   90.03502417
_cell_angle_gamma   60.21099078
_symmetry_Int_Tables_number   1
_chemical_formula_structural   Sc2Al7N9
_chemical_formula_sum   'Sc8 Al28 N36'
_cell_volume   831.36661403
_cell_formula_units_Z   4
loop_
 _symmetry_equiv_pos_site_id
 _symmetry_equiv_pos_as_xyz
  1  'x, y, z'
loop_
 _atom_site_type_symbol
 _atom_site_label
 _atom_site_symmetry_multiplicity
 _atom_site_fract_x
 _atom_site_fract_y
 _atom_site_fract_z
 _atom_site_occupancy
  Al  Al0  1  0.11247270  0.09324833  0.37130225  1
  Al  Al1  1  0.22782413  0.20158895  0.14178106  1
  Al  Al2  1  0.45191190  0.08961294  0.37996102  1
  Al  Al3  1  0.55864903  0.20322003  0.13606834  1
  Al  Al4  1  0.77327230  0.08975202  0.38225169  1
  Al  Al5  1  0.88282198  0.20693067  0.14480894  1
  Al  Al6  1  0.44262663  0.09676334  0.88514847  1
  Al  Al7  1  0.55789972  0.19990073  0.62885058  1
  Al  Al8  1  0.10474061  0.43294021  0.38371198  1
  Al  Al9  1  0.77155276  0.43070980  0.88259906  1
  Al  Al10  1  0.87963757  0.54856430  0.63550528  1
  Al  Al11  1  0.45200197  0.42428785  0.38318570  1
  Al  Al12  1  0.55799102  0.53482660  0.13210576  1
  Al  Al13  1  0.11337476  0.42479541  0.88469291  1
  Al  Al14  1  0.77252085  0.43827627  0.38315233  1
  Al  Al15  1  0.44794214  0.42631688  0.88286300  1
  Al  Al16  1  0.56090324  0.54103628  0.63207532  1
  Al  Al17  1  0.10594469  0.76187741  0.37959755  1
  Al  Al18  1  0.22339915  0.87180246  0.13929280  1
  Al  Al19  1  0.77460568  0.76482824  0.87952027  1
  Al  Al20  1  0.88395324  0.86694724  0.62911966  1
  Al  Al21  1  0.45176011  0.75721774  0.37890526  1
  Al  Al22  1  0.55373768  0.87661003  0.13118457  1
  Al  Al23  1  0.10996483  0.76016105  0.88752953  1
  Al  Al24  1  0.77592700  0.76164632  0.38570473  1
  Al  Al25  1  0.88280775  0.88045794  0.13624287  1
  Al  Al26  1  0.44739032  0.75724879  0.88537687  1
  Al  Al27  1  0.56170899  0.86884352  0.63110453  1
  Sc  Sc28  1  0.77390112  0.09284537  0.87943455  1
  Sc  Sc29  1  0.87991805  0.21285626  0.61254225  1
  Sc  Sc30  1  0.11171649  0.09511255  0.89200038  1
  Sc  Sc31  1  0.22802106  0.20583146  0.62003797  1
  Sc  Sc32  1  0.22730325  0.53774284  0.12410428  1
  Sc  Sc33  1  0.22374583  0.53916700  0.62915385  1
  Sc  Sc34  1  0.88266288  0.54367594  0.12066676  1
  Sc  Sc35  1  0.22746430  0.86573044  0.62203594  1
  N  N36  1  0.22621751  0.20780663  0.33345623  1
  N  N37  1  0.11002766  0.09521733  0.10535695  1
  N  N38  1  0.88079371  0.22200663  0.82230912  1
  N  N39  1  0.76898581  0.07959586  0.57320727  1
  N  N40  1  0.55478318  0.20568163  0.32499149  1
  N  N41  1  0.44416689  0.09504210  0.07822380  1
  N  N42  1  0.22996764  0.21169231  0.82964798  1
  N  N43  1  0.11287281  0.09248538  0.55855596  1
  N  N44  1  0.88202417  0.21032070  0.33823479  1
  N  N45  1  0.77743821  0.09630690  0.09101327  1
  N  N46  1  0.53614383  0.21459648  0.81840838  1
  N  N47  1  0.46686163  0.07986615  0.56669670  1
  N  N48  1  0.22585085  0.53650833  0.34004430  1
  N  N49  1  0.12006133  0.40651045  0.07239372  1
  N  N50  1  0.88587738  0.54096845  0.83415827  1
  N  N51  1  0.76730291  0.45334571  0.57025384  1
  N  N52  1  0.55589778  0.53876520  0.32143602  1
  N  N53  1  0.46657846  0.41421869  0.07151744  1
  N  N54  1  0.22311056  0.53927449  0.84809726  1
  N  N55  1  0.08754266  0.44213846  0.57131745  1
  N  N56  1  0.88636855  0.54316958  0.32985602  1
  N  N57  1  0.76974147  0.41625099  0.07281163  1
  N  N58  1  0.55449715  0.54071344  0.82426871  1
  N  N59  1  0.46945138  0.41617366  0.57183890  1
  N  N60  1  0.22672196  0.86590878  0.33043155  1
  N  N61  1  0.09754971  0.78380537  0.07715575  1
  N  N62  1  0.89972428  0.85223178  0.81812928  1
  N  N63  1  0.77537254  0.76104751  0.57642830  1
  N  N64  1  0.55764233  0.87096553  0.32133715  1
  N  N65  1  0.44614000  0.75931728  0.07790988  1
  N  N66  1  0.23133340  0.85456837  0.83321350  1
  N  N67  1  0.09038011  0.76892214  0.56465527  1
  N  N68  1  0.88602922  0.87068839  0.32519591  1
  N  N69  1  0.76530325  0.78695508  0.06750866  1
  N  N70  1  0.55239061  0.87442406  0.82472411  1
  N  N71  1  0.46608528  0.75148637  0.56746615  1
