# generated using pymatgen
data_Sc2Al7N9
_symmetry_space_group_name_H-M   'P 1'
_cell_length_a   10.14610883
_cell_length_b   10.13513277
_cell_length_c   8.93224683
_cell_angle_alpha   90.03792798
_cell_angle_beta   89.94208593
_cell_angle_gamma   60.28769568
_symmetry_Int_Tables_number   1
_chemical_formula_structural   Sc2Al7N9
_chemical_formula_sum   'Sc8 Al28 N36'
_cell_volume   797.75848998
_cell_formula_units_Z   4
loop_
 _symmetry_equiv_pos_site_id
 _symmetry_equiv_pos_as_xyz
  1  'x, y, z'
loop_
 _atom_site_type_symbol
 _atom_site_label
 _atom_site_symmetry_multiplicity
 _atom_site_fract_x
 _atom_site_fract_y
 _atom_site_fract_z
 _atom_site_occupancy
  Al  Al0  1  0.11279261  0.09246284  0.33843293  1
  Al  Al1  1  0.22945094  0.20162274  0.09997232  1
  Al  Al2  1  0.44768572  0.08927889  0.33531524  1
  Al  Al3  1  0.55339049  0.20620561  0.09716842  1
  Al  Al4  1  0.77671701  0.09123038  0.33815060  1
  Al  Al5  1  0.88151583  0.21022072  0.10547516  1
  Al  Al6  1  0.44879036  0.09497317  0.84107966  1
  Al  Al7  1  0.56082409  0.19883174  0.57889503  1
  Al  Al8  1  0.10915063  0.42645088  0.34065168  1
  Al  Al9  1  0.77057008  0.43889356  0.83321029  1
  Al  Al10  1  0.87986600  0.54970883  0.58733675  1
  Al  Al11  1  0.45219503  0.42572112  0.34127607  1
  Al  Al12  1  0.55819469  0.53502908  0.08745187  1
  Al  Al13  1  0.10671897  0.43117964  0.84217495  1
  Al  Al14  1  0.77185445  0.43235545  0.34222484  1
  Al  Al15  1  0.45135448  0.42431038  0.83515802  1
  Al  Al16  1  0.55899710  0.54265229  0.58467463  1
  Al  Al17  1  0.10612265  0.76576989  0.33771952  1
  Al  Al18  1  0.22527365  0.86786182  0.09879834  1
  Al  Al19  1  0.77688884  0.76077456  0.83348018  1
  Al  Al20  1  0.88089678  0.87179973  0.58057468  1
  Al  Al21  1  0.44889593  0.75998721  0.33079584  1
  Al  Al22  1  0.55443848  0.87616316  0.08520105  1
  Al  Al23  1  0.10749873  0.75766941  0.84305727  1
  Al  Al24  1  0.77061474  0.76802045  0.34008854  1
  Al  Al25  1  0.88538633  0.87337497  0.09557888  1
  Al  Al26  1  0.45244362  0.75459816  0.84533700  1
  Al  Al27  1  0.56066250  0.86936550  0.58875809  1
  Sc  Sc28  1  0.77180636  0.09091064  0.85417887  1
  Sc  Sc29  1  0.88037788  0.21122508  0.59554674  1
  Sc  Sc30  1  0.11161236  0.09436399  0.86093109  1
  Sc  Sc31  1  0.22894857  0.20590051  0.59794559  1
  Sc  Sc32  1  0.22875642  0.53732094  0.09958795  1
  Sc  Sc33  1  0.22326335  0.53867203  0.59803702  1
  Sc  Sc34  1  0.88220534  0.54347277  0.10045767  1
  Sc  Sc35  1  0.23005651  0.86326784  0.59857150  1
  N  N36  1  0.22527096  0.20310859  0.35172756  1
  N  N37  1  0.11222442  0.09294331  0.11248442  1
  N  N38  1  0.87448752  0.22744944  0.86402001  1
  N  N39  1  0.76970387  0.08298085  0.60597504  1
  N  N40  1  0.55544861  0.20308174  0.35982772  1
  N  N41  1  0.44609208  0.09118340  0.11828222  1
  N  N42  1  0.23244152  0.21391670  0.86436021  1
  N  N43  1  0.11140869  0.09273586  0.60964686  1
  N  N44  1  0.88835139  0.20490890  0.34856194  1
  N  N45  1  0.77602902  0.09319071  0.11491131  1
  N  N46  1  0.53731286  0.21614098  0.87806465  1
  N  N47  1  0.46631106  0.08314310  0.61930722  1
  N  N48  1  0.22394771  0.53884467  0.35490031  1
  N  N49  1  0.11725506  0.41226026  0.11649255  1
  N  N50  1  0.88400518  0.54343445  0.85755898  1
  N  N51  1  0.76812660  0.44898908  0.61013687  1
  N  N52  1  0.55284784  0.54419335  0.36796272  1
  N  N53  1  0.46397465  0.41894122  0.12449622  1
  N  N54  1  0.22654788  0.53664195  0.85379984  1
  N  N55  1  0.08923222  0.43902321  0.61341573  1
  N  N56  1  0.88562354  0.54374616  0.36233639  1
  N  N57  1  0.76693267  0.42319038  0.12450088  1
  N  N58  1  0.55653132  0.53747615  0.86995549  1
  N  N59  1  0.46968920  0.41425269  0.61301717  1
  N  N60  1  0.22698123  0.86932165  0.34988070  1
  N  N61  1  0.10015447  0.77781812  0.11891851  1
  N  N62  1  0.89629668  0.85145735  0.87588042  1
  N  N63  1  0.77495286  0.76418987  0.61264344  1
  N  N64  1  0.55244029  0.87267606  0.36966634  1
  N  N65  1  0.44920516  0.75862813  0.11268762  1
  N  N66  1  0.23351963  0.84994923  0.86790491  1
  N  N67  1  0.08822450  0.77129851  0.61592526  1
  N  N68  1  0.88698024  0.87228232  0.36165951  1
  N  N69  1  0.76350378  0.78207592  0.12467712  1
  N  N70  1  0.55726263  0.87346446  0.86870554  1
  N  N71  1  0.46598090  0.75171010  0.62544055  1
