# generated using pymatgen
data_Sc2Al7N9
_symmetry_space_group_name_H-M   'P 1'
_cell_length_a   9.71216826
_cell_length_b   9.71844837
_cell_length_c   10.16889718
_cell_angle_alpha   90.02322711
_cell_angle_beta   90.02404750
_cell_angle_gamma   60.16254184
_symmetry_Int_Tables_number   1
_chemical_formula_structural   Sc2Al7N9
_chemical_formula_sum   'Sc8 Al28 N36'
_cell_volume   832.58112720
_cell_formula_units_Z   4
loop_
 _symmetry_equiv_pos_site_id
 _symmetry_equiv_pos_as_xyz
  1  'x, y, z'
loop_
 _atom_site_type_symbol
 _atom_site_label
 _atom_site_symmetry_multiplicity
 _atom_site_fract_x
 _atom_site_fract_y
 _atom_site_fract_z
 _atom_site_occupancy
  Al  Al0  1  0.11244381  0.09344542  0.39138438  1
  Al  Al1  1  0.22759953  0.20205133  0.16189318  1
  Al  Al2  1  0.45113337  0.09002952  0.40051227  1
  Al  Al3  1  0.55808478  0.20353181  0.15705411  1
  Al  Al4  1  0.77342695  0.09005425  0.40187699  1
  Al  Al5  1  0.88273370  0.20724471  0.16534182  1
  Al  Al6  1  0.44270377  0.09670496  0.90543379  1
  Al  Al7  1  0.55798703  0.19984278  0.64868935  1
  Al  Al8  1  0.10565581  0.43231368  0.40463052  1
  Al  Al9  1  0.77169288  0.43090065  0.90276770  1
  Al  Al10  1  0.88006747  0.54799416  0.65497527  1
  Al  Al11  1  0.45133957  0.42468134  0.40363987  1
  Al  Al12  1  0.55796514  0.53487012  0.15246524  1
  Al  Al13  1  0.11244207  0.42546157  0.90564684  1
  Al  Al14  1  0.77274401  0.43726992  0.40417397  1
  Al  Al15  1  0.44772328  0.42641165  0.90340858  1
  Al  Al16  1  0.56074410  0.54085414  0.65219725  1
  Al  Al17  1  0.10646789  0.76173009  0.40057425  1
  Al  Al18  1  0.22339494  0.87185615  0.15975448  1
  Al  Al19  1  0.77496421  0.76422004  0.89942778  1
  Al  Al20  1  0.88387556  0.86736934  0.64914351  1
  Al  Al21  1  0.45136326  0.75736191  0.39923326  1
  Al  Al22  1  0.55376227  0.87672228  0.15154955  1
  Al  Al23  1  0.10962336  0.76053119  0.90796369  1
  Al  Al24  1  0.77601174  0.76170061  0.40642132  1
  Al  Al25  1  0.88303395  0.88015769  0.15702599  1
  Al  Al26  1  0.44754784  0.75722114  0.90576573  1
  Al  Al27  1  0.56164814  0.86881508  0.65112926  1
  Sc  Sc28  1  0.77321301  0.09280515  0.90206755  1
  Sc  Sc29  1  0.88029163  0.21173164  0.63478583  1
  Sc  Sc30  1  0.11143560  0.09515371  0.91452621  1
  Sc  Sc31  1  0.22762471  0.20547756  0.64264223  1
  Sc  Sc32  1  0.22680303  0.53824348  0.14503883  1
  Sc  Sc33  1  0.22376188  0.53918214  0.65137355  1
  Sc  Sc34  1  0.88210755  0.54389368  0.14351358  1
  Sc  Sc35  1  0.22725195  0.86638076  0.64384938  1
  N  N36  1  0.22614374  0.20790649  0.35194009  1
  N  N37  1  0.10993536  0.09546012  0.12557087  1
  N  N38  1  0.88074077  0.22111109  0.84288888  1
  N  N39  1  0.76889679  0.07971716  0.59113780  1
  N  N40  1  0.55420744  0.20596952  0.34464726  1
  N  N41  1  0.44422316  0.09524442  0.09742813  1
  N  N42  1  0.22935908  0.21175106  0.85052514  1
  N  N43  1  0.11288596  0.09264685  0.57700552  1
  N  N44  1  0.88211148  0.21032643  0.35691190  1
  N  N45  1  0.77713589  0.09645590  0.11196356  1
  N  N46  1  0.53617431  0.21458357  0.83725942  1
  N  N47  1  0.46602620  0.08027157  0.58615127  1
  N  N48  1  0.22557667  0.53672253  0.35910176  1
  N  N49  1  0.11903225  0.40739313  0.09182766  1
  N  N50  1  0.88599016  0.54067295  0.85215782  1
  N  N51  1  0.76765051  0.45216415  0.58998674  1
  N  N52  1  0.55600717  0.53857126  0.34090288  1
  N  N53  1  0.46635632  0.41436165  0.09080091  1
  N  N54  1  0.22272616  0.53942217  0.86816342  1
  N  N55  1  0.08872611  0.44144922  0.59078545  1
  N  N56  1  0.88658058  0.54263071  0.35102136  1
  N  N57  1  0.76980821  0.41657543  0.09178671  1
  N  N58  1  0.55433583  0.54064472  0.84345508  1
  N  N59  1  0.46876529  0.41655046  0.59111579  1
  N  N60  1  0.22664111  0.86584843  0.34928411  1
  N  N61  1  0.09735272  0.78432206  0.09604800  1
  N  N62  1  0.89929187  0.85288611  0.83711380  1
  N  N63  1  0.77553813  0.76099958  0.59581967  1
  N  N64  1  0.55763660  0.87101800  0.34080463  1
  N  N65  1  0.44626395  0.75940218  0.09726012  1
  N  N66  1  0.23110106  0.85511112  0.85334913  1
  N  N67  1  0.09103884  0.76888125  0.58439689  1
  N  N68  1  0.88651898  0.87018063  0.34474534  1
  N  N69  1  0.76570660  0.78659291  0.08653370  1
  N  N70  1  0.55242823  0.87432517  0.84388309  1
  N  N71  1  0.46567705  0.75160224  0.58671996  1
