# generated using pymatgen
data_Sc2Al7N9
_symmetry_space_group_name_H-M   'P 1'
_cell_length_a   9.95701766
_cell_length_b   9.95736573
_cell_length_c   9.47925486
_cell_angle_alpha   90.03246424
_cell_angle_beta   90.04486262
_cell_angle_gamma   60.31483249
_symmetry_Int_Tables_number   1
_chemical_formula_structural   Sc2Al7N9
_chemical_formula_sum   'Sc8 Al28 N36'
_cell_volume   816.48363481
_cell_formula_units_Z   4
loop_
 _symmetry_equiv_pos_site_id
 _symmetry_equiv_pos_as_xyz
  1  'x, y, z'
loop_
 _atom_site_type_symbol
 _atom_site_label
 _atom_site_symmetry_multiplicity
 _atom_site_fract_x
 _atom_site_fract_y
 _atom_site_fract_z
 _atom_site_occupancy
  Al  Al0  1  0.11210670  0.09288697  0.36656690  1
  Al  Al1  1  0.22742589  0.20055602  0.13545612  1
  Al  Al2  1  0.45459033  0.08769953  0.37207284  1
  Al  Al3  1  0.55969398  0.20363967  0.12960794  1
  Al  Al4  1  0.77275464  0.08941166  0.37744663  1
  Al  Al5  1  0.88330644  0.20601643  0.13588604  1
  Al  Al6  1  0.44217299  0.09719001  0.88246255  1
  Al  Al7  1  0.55655021  0.20012133  0.62477288  1
  Al  Al8  1  0.10189729  0.43408516  0.37557448  1
  Al  Al9  1  0.77049919  0.43125415  0.87990966  1
  Al  Al10  1  0.87831760  0.54929788  0.63190204  1
  Al  Al11  1  0.45436022  0.42331633  0.37895801  1
  Al  Al12  1  0.55726701  0.53485379  0.12711227  1
  Al  Al13  1  0.11473633  0.42384372  0.87752295  1
  Al  Al14  1  0.77154964  0.44058779  0.37433146  1
  Al  Al15  1  0.44873664  0.42583892  0.87514390  1
  Al  Al16  1  0.56143557  0.54183887  0.62848038  1
  Al  Al17  1  0.10336383  0.76334783  0.36827544  1
  Al  Al18  1  0.22378686  0.87214668  0.13215976  1
  Al  Al19  1  0.77385277  0.76626322  0.87419017  1
  Al  Al20  1  0.88459247  0.86599823  0.62476189  1
  Al  Al21  1  0.45414091  0.75655463  0.37225538  1
  Al  Al22  1  0.55450184  0.87588165  0.12513603  1
  Al  Al23  1  0.11065812  0.75897564  0.88427653  1
  Al  Al24  1  0.77450278  0.76238680  0.38100994  1
  Al  Al25  1  0.88083434  0.88105552  0.13028624  1
  Al  Al26  1  0.44683508  0.75720560  0.88160455  1
  Al  Al27  1  0.56067044  0.86948591  0.62858103  1
  Sc  Sc28  1  0.77460479  0.09215384  0.86479488  1
  Sc  Sc29  1  0.87800031  0.21632606  0.60292822  1
  Sc  Sc30  1  0.11251331  0.09392864  0.87248766  1
  Sc  Sc31  1  0.23022522  0.20686958  0.60689410  1
  Sc  Sc32  1  0.22977844  0.53513765  0.11570999  1
  Sc  Sc33  1  0.22225853  0.54022769  0.61407285  1
  Sc  Sc34  1  0.88361667  0.54440930  0.10878219  1
  Sc  Sc35  1  0.22930453  0.86164103  0.60885874  1
  N  N36  1  0.22576712  0.20676750  0.34123230  1
  N  N37  1  0.11045711  0.09430331  0.10581852  1
  N  N38  1  0.87845584  0.22493497  0.82894835  1
  N  N39  1  0.76898958  0.08048130  0.58468712  1
  N  N40  1  0.55605192  0.20579338  0.33032402  1
  N  N41  1  0.44424759  0.09491437  0.08649056  1
  N  N42  1  0.23194814  0.21196395  0.83321831  1
  N  N43  1  0.11218727  0.09245850  0.57572294  1
  N  N44  1  0.88302153  0.20926235  0.34366646  1
  N  N45  1  0.77740202  0.09563943  0.09230148  1
  N  N46  1  0.53573708  0.21381920  0.82610668  1
  N  N47  1  0.46881937  0.07844951  0.57082945  1
  N  N48  1  0.22739068  0.53493966  0.34684217  1
  N  N49  1  0.12079172  0.40656950  0.08061719  1
  N  N50  1  0.88499452  0.54166755  0.84236962  1
  N  N51  1  0.76646284  0.45482268  0.57428707  1
  N  N52  1  0.55500488  0.53914699  0.32656180  1
  N  N53  1  0.46707687  0.41418461  0.07662536  1
  N  N54  1  0.22361484  0.53924128  0.85086672  1
  N  N55  1  0.08499637  0.44285724  0.57784072  1
  N  N56  1  0.88492467  0.54583021  0.33185742  1
  N  N57  1  0.76928328  0.41774046  0.08252404  1
  N  N58  1  0.55520495  0.54140713  0.83120760  1
  N  N59  1  0.47019248  0.41621466  0.57982617  1
  N  N60  1  0.22738015  0.86719719  0.33785548  1
  N  N61  1  0.09819403  0.78115982  0.08913517  1
  N  N62  1  0.90167105  0.85040901  0.82580691  1
  N  N63  1  0.77405908  0.76185677  0.58372775  1
  N  N64  1  0.55857429  0.87016438  0.32534450  1
  N  N65  1  0.44600596  0.75920342  0.08478080  1
  N  N66  1  0.23270433  0.85079664  0.83797863  1
  N  N67  1  0.08814498  0.76978002  0.56689610  1
  N  N68  1  0.88257989  0.87260975  0.33050796  1
  N  N69  1  0.76456986  0.78692482  0.07312688  1
  N  N70  1  0.55108922  0.87538369  0.83238712  1
  N  N71  1  0.46800193  0.75098654  0.57297572  1
