# generated using pymatgen
data_Sc2Al7N9
_symmetry_space_group_name_H-M   'P 1'
_cell_length_a   9.73526240
_cell_length_b   9.73975411
_cell_length_c   10.09963144
_cell_angle_alpha   89.98134311
_cell_angle_beta   89.85456143
_cell_angle_gamma   60.23145592
_symmetry_Int_Tables_number   1
_chemical_formula_structural   Sc2Al7N9
_chemical_formula_sum   'Sc8 Al28 N36'
_cell_volume   831.26280747
_cell_formula_units_Z   4
loop_
 _symmetry_equiv_pos_site_id
 _symmetry_equiv_pos_as_xyz
  1  'x, y, z'
loop_
 _atom_site_type_symbol
 _atom_site_label
 _atom_site_symmetry_multiplicity
 _atom_site_fract_x
 _atom_site_fract_y
 _atom_site_fract_z
 _atom_site_occupancy
  Al  Al0  1  0.11202722  0.09371554  0.30780104  1
  Al  Al1  1  0.23033442  0.20415051  0.07413302  1
  Al  Al2  1  0.44540454  0.09194110  0.32081643  1
  Al  Al3  1  0.55388831  0.20574896  0.07801315  1
  Al  Al4  1  0.77683460  0.09224704  0.31766640  1
  Al  Al5  1  0.87948660  0.21152917  0.07854812  1
  Al  Al6  1  0.44768515  0.09565790  0.82710915  1
  Al  Al7  1  0.56178614  0.19846134  0.57055997  1
  Al  Al8  1  0.11201495  0.42487504  0.32264082  1
  Al  Al9  1  0.77149754  0.43841324  0.82220644  1
  Al  Al10  1  0.88006418  0.54779785  0.57131735  1
  Al  Al11  1  0.44965973  0.42591356  0.32443184  1
  Al  Al12  1  0.55749441  0.53609202  0.07369925  1
  Al  Al13  1  0.10570863  0.43211910  0.82123659  1
  Al  Al14  1  0.77307251  0.42891225  0.32302688  1
  Al  Al15  1  0.45042608  0.42531383  0.82227286  1
  Al  Al16  1  0.56091071  0.54049169  0.57480807  1
  Al  Al17  1  0.10698265  0.76569091  0.32034736  1
  Al  Al18  1  0.22669887  0.86575715  0.07680134  1
  Al  Al19  1  0.77837937  0.75794110  0.82048912  1
  Al  Al20  1  0.88161240  0.87231310  0.57077261  1
  Al  Al21  1  0.44693487  0.76045348  0.32058487  1
  Al  Al22  1  0.55382977  0.87628816  0.07421696  1
  Al  Al23  1  0.10951807  0.75608389  0.82515253  1
  Al  Al24  1  0.77216903  0.76813033  0.32701990  1
  Al  Al25  1  0.88558286  0.87409038  0.07776720  1
  Al  Al26  1  0.45168259  0.75449915  0.82825599  1
  Al  Al27  1  0.56161946  0.86928956  0.57678003  1
  Sc  Sc28  1  0.77293762  0.09039712  0.83473963  1
  Sc  Sc29  1  0.88248434  0.20972093  0.57338371  1
  Sc  Sc30  1  0.11270657  0.09328969  0.85074750  1
  Sc  Sc31  1  0.22680806  0.20331329  0.57776176  1
  Sc  Sc32  1  0.22774457  0.53824160  0.07562274  1
  Sc  Sc33  1  0.22417617  0.53868206  0.58340503  1
  Sc  Sc34  1  0.88304164  0.54365404  0.08244227  1
  Sc  Sc35  1  0.22615155  0.86914396  0.57607092  1
  N  N36  1  0.22235313  0.20187935  0.36648284  1
  N  N37  1  0.11272888  0.09346357  0.11230415  1
  N  N38  1  0.87065458  0.23037996  0.88900815  1
  N  N39  1  0.77080714  0.08305926  0.62554696  1
  N  N40  1  0.55545412  0.20372691  0.37830469  1
  N  N41  1  0.44569462  0.09259055  0.13162754  1
  N  N42  1  0.23269725  0.21853133  0.88291012  1
  N  N43  1  0.10898008  0.09417251  0.64402626  1
  N  N44  1  0.89084699  0.20312528  0.36063820  1
  N  N45  1  0.77543897  0.09352084  0.12444160  1
  N  N46  1  0.53615371  0.21717766  0.89108809  1
  N  N47  1  0.46520963  0.08363734  0.63776608  1
  N  N48  1  0.22300445  0.54006223  0.36607750  1
  N  N49  1  0.11937206  0.41144330  0.13631647  1
  N  N50  1  0.88595492  0.54179032  0.87298803  1
  N  N51  1  0.76970509  0.44741832  0.63268596  1
  N  N52  1  0.55411967  0.54150852  0.38373724  1
  N  N53  1  0.46387550  0.41832750  0.13706902  1
  N  N54  1  0.22595869  0.53547999  0.85851048  1
  N  N55  1  0.08882742  0.43739196  0.63298953  1
  N  N56  1  0.88618501  0.54139764  0.37493040  1
  N  N57  1  0.76604032  0.42300833  0.13743769  1
  N  N58  1  0.55606557  0.53857674  0.88388385  1
  N  N59  1  0.47176241  0.41312903  0.63253967  1
  N  N60  1  0.22270470  0.87435155  0.36335585  1
  N  N61  1  0.09929963  0.77927657  0.13413464  1
  N  N62  1  0.89852466  0.84812618  0.89055084  1
  N  N63  1  0.77678355  0.76226555  0.62836255  1
  N  N64  1  0.55227827  0.87383369  0.38430970  1
  N  N65  1  0.44878387  0.75839231  0.13020368  1
  N  N66  1  0.23600820  0.84425268  0.88646422  1
  N  N67  1  0.08829698  0.77371502  0.63768588  1
  N  N68  1  0.88774498  0.87342025  0.37973673  1
  N  N69  1  0.76360224  0.78414934  0.14031466  1
  N  N70  1  0.55668817  0.87291387  0.88327240  1
  N  N71  1  0.46369321  0.75239569  0.63868570  1
