# generated using pymatgen
data_Zn3MoN4
_symmetry_space_group_name_H-M   'P 1'
_cell_length_a   6.60809207
_cell_length_b   5.73100439
_cell_length_c   5.58922378
_cell_angle_alpha   90.79010813
_cell_angle_beta   89.61304880
_cell_angle_gamma   90.00252255
_symmetry_Int_Tables_number   1
_chemical_formula_structural   Zn3MoN4
_chemical_formula_sum   'Zn6 Mo2 N8'
_cell_volume   211.64456723
_cell_formula_units_Z   2
loop_
 _symmetry_equiv_pos_site_id
 _symmetry_equiv_pos_as_xyz
  1  'x, y, z'
loop_
 _atom_site_type_symbol
 _atom_site_label
 _atom_site_symmetry_multiplicity
 _atom_site_fract_x
 _atom_site_fract_y
 _atom_site_fract_z
 _atom_site_occupancy
  Zn  Zn0  1  -0.24973553  0.81643080  0.16987871  1
  Zn  Zn1  1  -0.74591923  0.81901283  0.10860402  1
  Zn  Zn2  1  -0.99278172  0.64453701  0.55334034  1
  Zn  Zn3  1  -0.75206687  0.15984935  0.54925437  1
  Zn  Zn4  1  -0.24204168  0.16575788  0.56381230  1
  Zn  Zn5  1  -0.49461418  0.33621682  0.16589578  1
  Mo  Mo6  1  -0.99418022  0.31631871  0.04129381  1
  Mo  Mo7  1  -0.49430024  0.66314420  0.68041430  1
  N  N8  1  -0.76145789  0.16133957  0.15323739  1
  N  N9  1  -0.22630865  0.16556758  0.15121321  1
  N  N10  1  -0.99156060  0.62449645  0.16012279  1
  N  N11  1  -0.26225097  0.81744095  0.56637676  1
  N  N12  1  -0.73145627  0.81710293  0.60179796  1
  N  N13  1  -0.99505706  0.32041497  0.69671222  1
  N  N14  1  -0.48830720  0.65664189  0.02830669  1
  N  N15  1  -0.49796177  0.35572801  0.56172208  1
