# generated using pymatgen
data_Zn3MoN4
_symmetry_space_group_name_H-M   'P 1'
_cell_length_a   6.66520626
_cell_length_b   5.74085867
_cell_length_c   5.42700786
_cell_angle_alpha   89.18697405
_cell_angle_beta   90.00002621
_cell_angle_gamma   89.99999498
_symmetry_Int_Tables_number   1
_chemical_formula_structural   Zn3MoN4
_chemical_formula_sum   'Zn6 Mo2 N8'
_cell_volume   207.63816112
_cell_formula_units_Z   2
loop_
 _symmetry_equiv_pos_site_id
 _symmetry_equiv_pos_as_xyz
  1  'x, y, z'
loop_
 _atom_site_type_symbol
 _atom_site_label
 _atom_site_symmetry_multiplicity
 _atom_site_fract_x
 _atom_site_fract_y
 _atom_site_fract_z
 _atom_site_occupancy
  Zn  Zn0  1  -0.23459476  -0.82581312  0.07004932  1
  Zn  Zn1  1  -0.75540519  -0.82581281  0.07004850  1
  Zn  Zn2  1  -0.99500096  -0.65223026  0.54561527  1
  Zn  Zn3  1  -0.74691797  -0.15681598  0.55111023  1
  Zn  Zn4  1  -0.24308243  -0.15681629  0.55110985  1
  Zn  Zn5  1  -0.49500020  -0.32470726  0.14465092  1
  Mo  Mo6  1  -0.99499967  -0.31912043  0.04131910  1
  Mo  Mo7  1  -0.49499993  -0.65938734  0.69713038  1
  N  N8  1  -0.76281223  -0.16390458  0.15661314  1
  N  N9  1  -0.22718728  -0.16390506  0.15661300  1
  N  N10  1  -0.99499974  -0.63077237  0.15748956  1
  N  N11  1  -0.25404613  -0.81819113  0.63279742  1
  N  N12  1  -0.73595405  -0.81819052  0.63279756  1
  N  N13  1  -0.99499987  -0.31959536  0.69434799  1
  N  N14  1  -0.49499971  -0.65552299  0.05876713  1
  N  N15  1  -0.49499996  -0.34921445  0.59139643  1
