# generated using pymatgen
data_Zn3MoN4
_symmetry_space_group_name_H-M   'P 1'
_cell_length_a   5.21208679
_cell_length_b   5.78244698
_cell_length_c   6.71334944
_cell_angle_alpha   90.00002909
_cell_angle_beta   89.99999169
_cell_angle_gamma   90.36712057
_symmetry_Int_Tables_number   1
_chemical_formula_structural   Zn3MoN4
_chemical_formula_sum   'Zn6 Mo2 N8'
_cell_volume   202.32690416
_cell_formula_units_Z   2
loop_
 _symmetry_equiv_pos_site_id
 _symmetry_equiv_pos_as_xyz
  1  'x, y, z'
loop_
 _atom_site_type_symbol
 _atom_site_label
 _atom_site_symmetry_multiplicity
 _atom_site_fract_x
 _atom_site_fract_y
 _atom_site_fract_z
 _atom_site_occupancy
  Zn  Zn0  1  0.16957346  0.82179156  0.24456423  1
  Zn  Zn1  1  0.16957338  0.82179146  0.74543655  1
  Zn  Zn2  1  0.63807255  0.65654526  0.99500047  1
  Zn  Zn3  1  0.64406235  0.15657150  0.74198831  1
  Zn  Zn4  1  0.64406184  0.15657134  0.24801106  1
  Zn  Zn5  1  0.16963865  0.32753640  0.49499957  1
  Mo  Mo6  1  0.08689124  0.32037213  0.99499978  1
  Mo  Mo7  1  0.67480815  0.65927303  0.49500016  1
  N  N8  1  0.08010292  0.16153973  0.75323221  1
  N  N9  1  0.08010293  0.16153961  0.23676709  1
  N  N10  1  0.07769650  0.64118499  0.99500027  1
  N  N11  1  0.56469928  0.81463301  0.26097560  1
  N  N12  1  0.56469932  0.81463284  0.72902491  1
  N  N13  1  0.58899948  0.31761586  0.99499980  1
  N  N14  1  0.03355999  0.66130660  0.49500023  1
  N  N15  1  0.56549123  0.34709465  0.49499982  1
