# generated using pymatgen
data_Zn3MoN4
_symmetry_space_group_name_H-M   'P 1'
_cell_length_a   6.69382628
_cell_length_b   5.76906852
_cell_length_c   5.20382374
_cell_angle_alpha   90.31795304
_cell_angle_beta   90.00001477
_cell_angle_gamma   90.00002673
_symmetry_Int_Tables_number   1
_chemical_formula_structural   Zn3MoN4
_chemical_formula_sum   'Zn6 Mo2 N8'
_cell_volume   200.95370848
_cell_formula_units_Z   2
loop_
 _symmetry_equiv_pos_site_id
 _symmetry_equiv_pos_as_xyz
  1  'x, y, z'
loop_
 _atom_site_type_symbol
 _atom_site_label
 _atom_site_symmetry_multiplicity
 _atom_site_fract_x
 _atom_site_fract_y
 _atom_site_fract_z
 _atom_site_occupancy
  Zn  Zn0  1  -0.24275242  0.82284701  0.06383572  1
  Zn  Zn1  1  -0.74724739  0.82284686  0.06383544  1
  Zn  Zn2  1  -0.99499988  0.65461570  0.55080756  1
  Zn  Zn3  1  -0.74327101  0.15744460  0.55068685  1
  Zn  Zn4  1  -0.24672988  0.15744436  0.55068663  1
  Zn  Zn5  1  -0.49500039  0.32344361  0.06835718  1
  Mo  Mo6  1  -0.99500000  0.32045098  0.04531768  1
  Mo  Mo7  1  -0.49499976  0.65959893  0.56419121  1
  N  N8  1  -0.76015713  0.16512199  0.15597460  1
  N  N9  1  -0.22984304  0.16512221  0.15597447  1
  N  N10  1  -0.99499983  0.63293365  0.15552448  1
  N  N11  1  -0.25638587  0.81680319  0.65246308  1
  N  N12  1  -0.73361344  0.81680332  0.65246302  1
  N  N13  1  -0.99500016  0.31846618  0.68595598  1
  N  N14  1  -0.49499981  0.66212706  0.18166573  1
  N  N15  1  -0.49500005  0.34393030  0.65411607  1
