# generated using pymatgen
data_Zn3MoN4
_symmetry_space_group_name_H-M   'P 1'
_cell_length_a   5.21938554
_cell_length_b   5.76432831
_cell_length_c   6.68716015
_cell_angle_alpha   90.00002927
_cell_angle_beta   89.99999506
_cell_angle_gamma   90.32287793
_symmetry_Int_Tables_number   1
_chemical_formula_structural   Zn3MoN4
_chemical_formula_sum   'Zn6 Mo2 N8'
_cell_volume   201.18838969
_cell_formula_units_Z   2
loop_
 _symmetry_equiv_pos_site_id
 _symmetry_equiv_pos_as_xyz
  1  'x, y, z'
loop_
 _atom_site_type_symbol
 _atom_site_label
 _atom_site_symmetry_multiplicity
 _atom_site_fract_x
 _atom_site_fract_y
 _atom_site_fract_z
 _atom_site_occupancy
  Zn  Zn0  1  0.16860670  0.82248106  0.24341354  1
  Zn  Zn1  1  0.16860628  0.82248098  0.74658773  1
  Zn  Zn2  1  0.65103630  0.65658106  0.99500031  1
  Zn  Zn3  1  0.65577896  0.15713327  0.74270267  1
  Zn  Zn4  1  0.65577870  0.15713310  0.24729690  1
  Zn  Zn5  1  0.16848855  0.32566108  0.49499999  1
  Mo  Mo6  1  0.15648695  0.32034306  0.99499974  1
  Mo  Mo7  1  0.67366227  0.65957202  0.49500001  1
  N  N8  1  0.06620340  0.16323140  0.75645170  1
  N  N9  1  0.06620349  0.16323138  0.23354755  1
  N  N10  1  0.06472050  0.63581001  0.99500021  1
  N  N11  1  0.56238197  0.81488645  0.26017282  1
  N  N12  1  0.56238194  0.81488628  0.72982733  1
  N  N13  1  0.53685851  0.31782430  0.99499971  1
  N  N14  1  0.03204667  0.66158366  0.49500016  1
  N  N15  1  0.56279206  0.34716084  0.49499971  1
