# generated using pymatgen
data_Zn3MoN4
_symmetry_space_group_name_H-M   'P 1'
_cell_length_a   5.30387910
_cell_length_b   5.76732771
_cell_length_c   6.69296962
_cell_angle_alpha   90.00002710
_cell_angle_beta   89.99999841
_cell_angle_gamma   90.36295282
_symmetry_Int_Tables_number   1
_chemical_formula_structural   Zn3MoN4
_chemical_formula_sum   'Zn6 Mo2 N8'
_cell_volume   204.72853812
_cell_formula_units_Z   2
loop_
 _symmetry_equiv_pos_site_id
 _symmetry_equiv_pos_as_xyz
  1  'x, y, z'
loop_
 _atom_site_type_symbol
 _atom_site_label
 _atom_site_symmetry_multiplicity
 _atom_site_fract_x
 _atom_site_fract_y
 _atom_site_fract_z
 _atom_site_occupancy
  Zn  Zn0  1  0.17030694  0.82215139  0.24320848  1
  Zn  Zn1  1  0.17030652  0.82215146  0.74679333  1
  Zn  Zn2  1  0.63657411  0.66336403  0.99500000  1
  Zn  Zn3  1  0.64247632  0.15332211  0.73587635  1
  Zn  Zn4  1  0.64247727  0.15332209  0.25412379  1
  Zn  Zn5  1  0.17020474  0.32669202  0.49499960  1
  Mo  Mo6  1  0.02038537  0.31980442  0.99499964  1
  Mo  Mo7  1  0.67688388  0.65970633  0.49499987  1
  N  N8  1  0.08626389  0.16281470  0.75452536  1
  N  N9  1  0.08626387  0.16281452  0.23547369  1
  N  N10  1  0.08564099  0.63902774  0.99500031  1
  N  N11  1  0.56392273  0.81370525  0.26049159  1
  N  N12  1  0.56392250  0.81370509  0.72950820  1
  N  N13  1  0.64215840  0.31786469  0.99499986  1
  N  N14  1  0.02956992  0.66142517  0.49500021  1
  N  N15  1  0.56467581  0.34812893  0.49499977  1
