# generated using pymatgen
data_Zn3MoN4
_symmetry_space_group_name_H-M   'P 1'
_cell_length_a   5.36757685
_cell_length_b   5.68948056
_cell_length_c   6.57511639
_cell_angle_alpha   90.00001405
_cell_angle_beta   89.99995361
_cell_angle_gamma   90.00056417
_symmetry_Int_Tables_number   1
_chemical_formula_structural   Zn3MoN4
_chemical_formula_sum   'Zn6 Mo2 N8'
_cell_volume   200.79566585
_cell_formula_units_Z   2
loop_
 _symmetry_equiv_pos_site_id
 _symmetry_equiv_pos_as_xyz
  1  'x, y, z'
loop_
 _atom_site_type_symbol
 _atom_site_label
 _atom_site_symmetry_multiplicity
 _atom_site_fract_x
 _atom_site_fract_y
 _atom_site_fract_z
 _atom_site_occupancy
  Zn  Zn0  1  0.01515597  0.82207718  0.24357106  1
  Zn  Zn1  1  0.01515483  0.82207689  0.74642935  1
  Zn  Zn2  1  0.51634982  0.65607942  0.99500139  1
  Zn  Zn3  1  0.51515440  0.15791618  0.74357078  1
  Zn  Zn4  1  0.51515437  0.15791663  0.24642815  1
  Zn  Zn5  1  0.01634842  0.32392239  0.49500126  1
  Mo  Mo6  1  0.01660588  0.31973106  0.99499982  1
  Mo  Mo7  1  0.51660750  0.66026975  0.49499999  1
  N  N8  1  0.13258942  0.16324174  0.75802851  1
  N  N9  1  0.13258885  0.16324250  0.23197126  1
  N  N10  1  0.13309740  0.63286471  0.99499976  1
  N  N11  1  0.63259196  0.81676027  0.25802852  1
  N  N12  1  0.63259195  0.81675938  0.73197167  1
  N  N13  1  0.66706291  0.31859109  0.99499934  1
  N  N14  1  0.16706498  0.66141281  0.49499985  1
  N  N15  1  0.63309497  0.34713793  0.49499941  1
