# generated using pymatgen
data_Zn3MoN4
_symmetry_space_group_name_H-M   'P 1'
_cell_length_a   6.63678433
_cell_length_b   5.73195577
_cell_length_c   5.51143819
_cell_angle_alpha   88.99989657
_cell_angle_beta   90.28216038
_cell_angle_gamma   90.09186073
_symmetry_Int_Tables_number   1
_chemical_formula_structural   Zn3MoN4
_chemical_formula_sum   'Zn6 Mo2 N8'
_cell_volume   209.63005449
_cell_formula_units_Z   2
loop_
 _symmetry_equiv_pos_site_id
 _symmetry_equiv_pos_as_xyz
  1  'x, y, z'
loop_
 _atom_site_type_symbol
 _atom_site_label
 _atom_site_symmetry_multiplicity
 _atom_site_fract_x
 _atom_site_fract_y
 _atom_site_fract_z
 _atom_site_occupancy
  Zn  Zn0  1  -0.25074392  -0.82428990  0.17039643  1
  Zn  Zn1  1  -0.74187753  -0.81849252  0.16054953  1
  Zn  Zn2  1  -0.99555989  -0.64790027  0.55120922  1
  Zn  Zn3  1  -0.74091845  -0.15952223  0.58811840  1
  Zn  Zn4  1  -0.25387972  -0.15444217  0.66240254  1
  Zn  Zn5  1  -0.49222126  -0.33132371  0.17193074  1
  Mo  Mo6  1  -0.99358628  -0.31948440  0.02938836  1
  Mo  Mo7  1  -0.49400073  -0.66205698  0.67753370  1
  N  N8  1  -0.76049271  -0.16394005  0.12570321  1
  N  N9  1  -0.23742173  -0.15981023  0.08182404  1
  N  N10  1  -0.99712994  -0.62758483  0.14800546  1
  N  N11  1  -0.26318717  -0.81890903  0.56323873  1
  N  N12  1  -0.72611186  -0.81438503  0.56360650  1
  N  N13  1  -0.98833483  -0.32710930  0.67627873  1
  N  N14  1  -0.49497839  -0.65955910  0.02261689  1
  N  N15  1  -0.48955565  -0.35119020  0.55922989  1
