# generated using pymatgen
data_Zn3MoN4
_symmetry_space_group_name_H-M   'P 1'
_cell_length_a   5.42700786
_cell_length_b   5.74085867
_cell_length_c   6.66520626
_cell_angle_alpha   89.99999498
_cell_angle_beta   89.99997379
_cell_angle_gamma   90.81302595
_symmetry_Int_Tables_number   1
_chemical_formula_structural   Zn3MoN4
_chemical_formula_sum   'Zn6 Mo2 N8'
_cell_volume   207.63816112
_cell_formula_units_Z   2
loop_
 _symmetry_equiv_pos_site_id
 _symmetry_equiv_pos_as_xyz
  1  'x, y, z'
loop_
 _atom_site_type_symbol
 _atom_site_label
 _atom_site_symmetry_multiplicity
 _atom_site_fract_x
 _atom_site_fract_y
 _atom_site_fract_z
 _atom_site_occupancy
  Zn  Zn0  1  0.07004932  0.82581312  0.23459476  1
  Zn  Zn1  1  0.07004850  0.82581281  0.75540519  1
  Zn  Zn2  1  0.54561527  0.65223026  0.99500096  1
  Zn  Zn3  1  0.55111023  0.15681598  0.74691797  1
  Zn  Zn4  1  0.55110985  0.15681629  0.24308243  1
  Zn  Zn5  1  0.14465092  0.32470726  0.49500020  1
  Mo  Mo6  1  0.04131910  0.31912043  0.99499967  1
  Mo  Mo7  1  0.69713038  0.65938734  0.49499993  1
  N  N8  1  0.15661314  0.16390458  0.76281223  1
  N  N9  1  0.15661300  0.16390506  0.22718728  1
  N  N10  1  0.15748956  0.63077237  0.99499974  1
  N  N11  1  0.63279742  0.81819113  0.25404613  1
  N  N12  1  0.63279756  0.81819052  0.73595405  1
  N  N13  1  0.69434799  0.31959536  0.99499987  1
  N  N14  1  0.05876713  0.65552299  0.49499971  1
  N  N15  1  0.59139643  0.34921445  0.49499996  1
