# generated using pymatgen
data_Zn3MoN4
_symmetry_space_group_name_H-M   'P 1'
_cell_length_a   6.57511639
_cell_length_b   5.68948056
_cell_length_c   5.36757685
_cell_angle_alpha   90.00056417
_cell_angle_beta   90.00004639
_cell_angle_gamma   89.99998595
_symmetry_Int_Tables_number   1
_chemical_formula_structural   Zn3MoN4
_chemical_formula_sum   'Zn6 Mo2 N8'
_cell_volume   200.79566585
_cell_formula_units_Z   2
loop_
 _symmetry_equiv_pos_site_id
 _symmetry_equiv_pos_as_xyz
  1  'x, y, z'
loop_
 _atom_site_type_symbol
 _atom_site_label
 _atom_site_symmetry_multiplicity
 _atom_site_fract_x
 _atom_site_fract_y
 _atom_site_fract_z
 _atom_site_occupancy
  Zn  Zn0  1  -0.24357106  0.82207718  0.01515597  1
  Zn  Zn1  1  -0.74642935  0.82207689  0.01515483  1
  Zn  Zn2  1  -0.99500139  0.65607942  0.51634982  1
  Zn  Zn3  1  -0.74357078  0.15791618  0.51515440  1
  Zn  Zn4  1  -0.24642815  0.15791663  0.51515437  1
  Zn  Zn5  1  -0.49500126  0.32392239  0.01634842  1
  Mo  Mo6  1  -0.99499982  0.31973106  0.01660588  1
  Mo  Mo7  1  -0.49499999  0.66026975  0.51660750  1
  N  N8  1  -0.75802851  0.16324174  0.13258942  1
  N  N9  1  -0.23197126  0.16324250  0.13258885  1
  N  N10  1  -0.99499976  0.63286471  0.13309740  1
  N  N11  1  -0.25802852  0.81676027  0.63259196  1
  N  N12  1  -0.73197167  0.81675938  0.63259195  1
  N  N13  1  -0.99499934  0.31859109  0.66706291  1
  N  N14  1  -0.49499985  0.66141281  0.16706498  1
  N  N15  1  -0.49499941  0.34713793  0.63309497  1
