# generated using pymatgen
data_Zn3MoN4
_symmetry_space_group_name_H-M   'P 1'
_cell_length_a   5.38365052
_cell_length_b   5.68208168
_cell_length_c   6.56332516
_cell_angle_alpha   90.00000420
_cell_angle_beta   90.00002565
_cell_angle_gamma   89.92391527
_symmetry_Int_Tables_number   1
_chemical_formula_structural   Zn3MoN4
_chemical_formula_sum   'Zn6 Mo2 N8'
_cell_volume   200.77418434
_cell_formula_units_Z   2
loop_
 _symmetry_equiv_pos_site_id
 _symmetry_equiv_pos_as_xyz
  1  'x, y, z'
loop_
 _atom_site_type_symbol
 _atom_site_label
 _atom_site_symmetry_multiplicity
 _atom_site_fract_x
 _atom_site_fract_y
 _atom_site_fract_z
 _atom_site_occupancy
  Zn  Zn0  1  0.18213284  0.82187926  0.24379670  1
  Zn  Zn1  1  0.18213225  0.82187888  0.74620353  1
  Zn  Zn2  1  0.68132560  0.65577967  0.99500116  1
  Zn  Zn3  1  0.68248744  0.15797783  0.74374895  1
  Zn  Zn4  1  0.68248705  0.15797785  0.24625022  1
  Zn  Zn5  1  0.18101225  0.32404096  0.49500105  1
  Mo  Mo6  1  0.18040917  0.31963643  0.99499996  1
  Mo  Mo7  1  0.68004487  0.66032444  0.49499998  1
  N  N8  1  0.06373238  0.16315844  0.75795499  1
  N  N9  1  0.06373264  0.16315895  0.23204493  1
  N  N10  1  0.06317566  0.63288752  0.99499988  1
  N  N11  1  0.56358823  0.81700882  0.25785800  1
  N  N12  1  0.56358842  0.81700827  0.73214198  1
  N  N13  1  0.52892611  0.31867825  0.99499947  1
  N  N14  1  0.02865602  0.66138942  0.49499970  1
  N  N15  1  0.56313852  0.34721497  0.49499954  1
