# generated using pymatgen
data_Zn3MoN4
_symmetry_space_group_name_H-M   'P 1'
_cell_length_a   6.57478865
_cell_length_b   5.68974949
_cell_length_c   5.36800938
_cell_angle_alpha   89.99994821
_cell_angle_beta   89.99998712
_cell_angle_gamma   90.00000014
_symmetry_Int_Tables_number   1
_chemical_formula_structural   Zn3MoN4
_chemical_formula_sum   'Zn6 Mo2 N8'
_cell_volume   200.81132816
_cell_formula_units_Z   2
loop_
 _symmetry_equiv_pos_site_id
 _symmetry_equiv_pos_as_xyz
  1  'x, y, z'
loop_
 _atom_site_type_symbol
 _atom_site_label
 _atom_site_symmetry_multiplicity
 _atom_site_fract_x
 _atom_site_fract_y
 _atom_site_fract_z
 _atom_site_occupancy
  Zn  Zn0  1  -0.24356439  0.82209710  0.22688924  1
  Zn  Zn1  1  -0.74643517  0.82209714  0.22689010  1
  Zn  Zn2  1  -0.99500102  0.65599587  0.72570475  1
  Zn  Zn3  1  -0.74356398  0.15789896  0.72689018  1
  Zn  Zn4  1  -0.24643567  0.15789860  0.72689071  1
  Zn  Zn5  1  -0.49500085  0.32400575  0.22570700  1
  Mo  Mo6  1  -0.99499996  0.31971596  0.22545944  1
  Mo  Mo7  1  -0.49499995  0.66028521  0.72545918  1
  N  N8  1  -0.75802079  0.16324950  0.10947252  1
  N  N9  1  -0.23197915  0.16324976  0.10947277  1
  N  N10  1  -0.99499974  0.63283046  0.10897722  1
  N  N11  1  -0.25802081  0.81675133  0.60947139  1
  N  N12  1  -0.73197914  0.81675110  0.60947179  1
  N  N13  1  -0.99499984  0.31854587  0.57498486  1
  N  N14  1  -0.49499981  0.66145599  0.07498437  1
  N  N15  1  -0.49499973  0.34717139  0.60897821  1
