# generated using pymatgen
data_Zn3MoN4
_symmetry_space_group_name_H-M   'P 1'
_cell_length_a   6.69397455
_cell_length_b   5.76811150
_cell_length_c   5.30222796
_cell_angle_alpha   90.35868970
_cell_angle_beta   90.00001275
_cell_angle_gamma   90.00001440
_symmetry_Int_Tables_number   1
_chemical_formula_structural   Zn3MoN4
_chemical_formula_sum   'Zn6 Mo2 N8'
_cell_volume   204.72344859
_cell_formula_units_Z   2
loop_
 _symmetry_equiv_pos_site_id
 _symmetry_equiv_pos_as_xyz
  1  'x, y, z'
loop_
 _atom_site_type_symbol
 _atom_site_label
 _atom_site_symmetry_multiplicity
 _atom_site_fract_x
 _atom_site_fract_y
 _atom_site_fract_z
 _atom_site_occupancy
  Zn  Zn0  1  -0.23568741  0.82676994  0.07647581  1
  Zn  Zn1  1  -0.75431286  0.82677016  0.07647424  1
  Zn  Zn2  1  -0.99499997  0.65347294  0.54887716  1
  Zn  Zn3  1  -0.74307083  0.15779969  0.54873518  1
  Zn  Zn4  1  -0.24693021  0.15779951  0.54873527  1
  Zn  Zn5  1  -0.49499983  0.31636558  0.08211221  1
  Mo  Mo6  1  -0.99499984  0.32029025  0.04202919  1
  Mo  Mo7  1  -0.49499982  0.66020584  0.69943149  1
  N  N8  1  -0.76047376  0.16632186  0.15494232  1
  N  N9  1  -0.22952590  0.16632190  0.15494243  1
  N  N10  1  -0.99499982  0.63184930  0.15419528  1
  N  N11  1  -0.25459079  0.81714497  0.63276393  1
  N  N12  1  -0.73540881  0.81714509  0.63276404  1
  N  N13  1  -0.99500012  0.31857349  0.68925496  1
  N  N14  1  -0.49499997  0.66214387  0.07664574  1
  N  N15  1  -0.49500013  0.34102554  0.63347645  1
