# generated using pymatgen
data_Zn3MoN4
_symmetry_space_group_name_H-M   'P 1'
_cell_length_a   5.19388652
_cell_length_b   5.78622375
_cell_length_c   6.71883089
_cell_angle_alpha   89.99996986
_cell_angle_beta   89.99998581
_cell_angle_gamma   90.35977914
_symmetry_Int_Tables_number   1
_chemical_formula_structural   Zn3MoN4
_chemical_formula_sum   'Zn6 Mo2 N8'
_cell_volume   201.91697334
_cell_formula_units_Z   2
loop_
 _symmetry_equiv_pos_site_id
 _symmetry_equiv_pos_as_xyz
  1  'x, y, z'
loop_
 _atom_site_type_symbol
 _atom_site_label
 _atom_site_symmetry_multiplicity
 _atom_site_fract_x
 _atom_site_fract_y
 _atom_site_fract_z
 _atom_site_occupancy
  Zn  Zn0  1  0.07485906  0.82335289  0.24214176  1
  Zn  Zn1  1  0.07485832  0.82335285  0.74785778  1
  Zn  Zn2  1  0.54967720  0.65289812  0.99499979  1
  Zn  Zn3  1  0.54970952  0.15808470  0.74433582  1
  Zn  Zn4  1  0.54970920  0.15808433  0.24566503  1
  Zn  Zn5  1  0.08040061  0.32357316  0.49500016  1
  Mo  Mo6  1  0.04424449  0.32071818  0.99500006  1
  Mo  Mo7  1  0.63551792  0.65957799  0.49499985  1
  N  N8  1  0.15356832  0.16531023  0.76085379  1
  N  N9  1  0.15356824  0.16531037  0.22914648  1
  N  N10  1  0.15271505  0.63309700  0.99499985  1
  N  N11  1  0.63881820  0.81840462  0.25333920  1
  N  N12  1  0.63881818  0.81840484  0.73666028  1
  N  N13  1  0.68434992  0.31873905  0.99500025  1
  N  N14  1  0.12957703  0.66235082  0.49499984  1
  N  N15  1  0.64146443  0.33874079  0.49500013  1
