# generated using pymatgen
data_Zn3MoN4
_symmetry_space_group_name_H-M   'P 1'
_cell_length_a   6.60813825
_cell_length_b   5.73103312
_cell_length_c   5.58916591
_cell_angle_alpha   90.78875614
_cell_angle_beta   90.38628958
_cell_angle_gamma   89.99758953
_symmetry_Int_Tables_number   1
_chemical_formula_structural   Zn3MoN4
_chemical_formula_sum   'Zn6 Mo2 N8'
_cell_volume   211.64500112
_cell_formula_units_Z   2
loop_
 _symmetry_equiv_pos_site_id
 _symmetry_equiv_pos_as_xyz
  1  'x, y, z'
loop_
 _atom_site_type_symbol
 _atom_site_label
 _atom_site_symmetry_multiplicity
 _atom_site_fract_x
 _atom_site_fract_y
 _atom_site_fract_z
 _atom_site_occupancy
  Zn  Zn0  1  -0.25206207  0.82014034  0.16973860  1
  Zn  Zn1  1  -0.74202459  0.81423085  0.15525417  1
  Zn  Zn2  1  -0.99461907  0.64376923  0.55308087  1
  Zn  Zn3  1  -0.74973216  0.16359176  0.54915674  1
  Zn  Zn4  1  -0.24590487  0.16101593  0.61023030  1
  Zn  Zn5  1  -0.49279408  0.33543882  0.16559149  1
  Mo  Mo6  1  -0.99430080  0.31684973  0.03859468  1
  Mo  Mo7  1  -0.49418401  0.66368692  0.67770194  1
  N  N8  1  -0.76225055  0.16255519  0.15262193  1
  N  N9  1  -0.23144086  0.16290255  0.11730152  1
  N  N10  1  -0.99795550  0.62426807  0.15726743  1
  N  N11  1  -0.26145979  0.81865960  0.56576717  1
  N  N12  1  -0.72631552  0.81444017  0.56777798  1
  N  N13  1  -0.98832749  0.32334949  0.69069830  1
  N  N14  1  -0.49505613  0.65958693  0.02229056  1
  N  N15  1  -0.49157257  0.35551437  0.55888163  1
