# generated using pymatgen
data_Zn2PN3
_symmetry_space_group_name_H-M   'P 1'
_cell_length_a   4.98728859
_cell_length_b   5.50258637
_cell_length_c   5.50261377
_cell_angle_alpha   60.38719371
_cell_angle_beta   88.95297419
_cell_angle_gamma   91.43409285
_symmetry_Int_Tables_number   1
_chemical_formula_structural   Zn2PN3
_chemical_formula_sum   'Zn4 P2 N6'
_cell_volume   131.16144441
_cell_formula_units_Z   2
loop_
 _symmetry_equiv_pos_site_id
 _symmetry_equiv_pos_as_xyz
  1  'x, y, z'
loop_
 _atom_site_type_symbol
 _atom_site_label
 _atom_site_symmetry_multiplicity
 _atom_site_fract_x
 _atom_site_fract_y
 _atom_site_fract_z
 _atom_site_occupancy
  P  P0  1  0.91208996  0.81222242  0.18767660  1
  P  P1  1  0.35444950  0.13841442  0.86180434  1
  Zn  Zn2  1  0.89857003  0.48028116  0.85564855  1
  Zn  Zn3  1  0.89880949  0.14435429  0.51946151  1
  Zn  Zn4  1  0.42085848  0.47168077  0.20121415  1
  Zn  Zn5  1  0.42135944  0.79929548  0.52868397  1
  N  N6  1  0.81359044  0.09423748  0.90542017  1
  N  N7  1  0.26286615  0.84272856  0.15743490  1
  N  N8  1  0.82519961  0.52170881  0.19217780  1
  N  N9  1  0.82548444  0.80748735  0.47788081  1
  N  N10  1  0.32712951  0.13049036  0.57653311  1
  N  N11  1  0.32740314  0.42369237  0.86946111  1
