# generated using pymatgen
data_Zn2PN3
_symmetry_space_group_name_H-M   'P 1'
_cell_length_a   4.98519436
_cell_length_b   5.45511957
_cell_length_c   5.45518010
_cell_angle_alpha   60.58872861
_cell_angle_beta   89.99991053
_cell_angle_gamma   89.99997819
_symmetry_Int_Tables_number   1
_chemical_formula_structural   Zn2PN3
_chemical_formula_sum   'Zn4 P2 N6'
_cell_volume   129.23259427
_cell_formula_units_Z   2
loop_
 _symmetry_equiv_pos_site_id
 _symmetry_equiv_pos_as_xyz
  1  'x, y, z'
loop_
 _atom_site_type_symbol
 _atom_site_label
 _atom_site_symmetry_multiplicity
 _atom_site_fract_x
 _atom_site_fract_y
 _atom_site_fract_z
 _atom_site_occupancy
  P  P0  1  0.79384276  0.81284727  0.18715548  1
  P  P1  1  0.29384208  0.13157257  0.86842106  1
  Zn  Zn2  1  0.77998301  0.47793180  0.85156728  1
  Zn  Zn3  1  0.77998390  0.14842889  0.52206635  1
  Zn  Zn4  1  0.27998415  0.46648851  0.20400848  1
  Zn  Zn5  1  0.27998384  0.79599040  0.53351077  1
  N  N6  1  0.94836428  0.09041267  0.90958360  1
  N  N7  1  0.44836474  0.85400736  0.14599398  1
  N  N8  1  0.87614995  0.52415172  0.18716611  1
  N  N9  1  0.87615021  0.81283252  0.47584535  1
  N  N10  1  0.37614914  0.13158754  0.57973218  1
  N  N11  1  0.37615035  0.42026901  0.86841008  1
