# generated using pymatgen
data_Zn2PN3
_symmetry_space_group_name_H-M   'P 1'
_cell_length_a   4.98731723
_cell_length_b   5.51512813
_cell_length_c   5.51491673
_cell_angle_alpha   60.43559799
_cell_angle_beta   88.85787078
_cell_angle_gamma   91.44355260
_symmetry_Int_Tables_number   1
_chemical_formula_structural   Zn2PN3
_chemical_formula_sum   'Zn4 P2 N6'
_cell_volume   131.80835124
_cell_formula_units_Z   2
loop_
 _symmetry_equiv_pos_site_id
 _symmetry_equiv_pos_as_xyz
  1  'x, y, z'
loop_
 _atom_site_type_symbol
 _atom_site_label
 _atom_site_symmetry_multiplicity
 _atom_site_fract_x
 _atom_site_fract_y
 _atom_site_fract_z
 _atom_site_occupancy
  P  P0  1  0.92038775  0.80571435  0.19414392  1
  P  P1  1  0.28139238  0.14176205  0.85841121  1
  Zn  Zn2  1  0.89205656  0.48613642  0.85539873  1
  Zn  Zn3  1  0.89240917  0.14456598  0.51340888  1
  Zn  Zn4  1  0.41996414  0.47089807  0.20181611  1
  Zn  Zn5  1  0.42041324  0.79870147  0.52946980  1
  N  N6  1  0.87342921  0.09889840  0.90077632  1
  N  N7  1  0.27029764  0.83606911  0.16411784  1
  N  N8  1  0.82491351  0.52258647  0.19199094  1
  N  N9  1  0.82517871  0.80770857  0.47699684  1
  N  N10  1  0.33356565  0.12997465  0.57683400  1
  N  N11  1  0.33380224  0.42357795  0.87003244  1
