# generated using pymatgen
data_Zn2PN3
_symmetry_space_group_name_H-M   'P 1'
_cell_length_a   4.98640872
_cell_length_b   5.46109470
_cell_length_c   5.46214843
_cell_angle_alpha   60.48727983
_cell_angle_beta   89.47489507
_cell_angle_gamma   91.09126660
_symmetry_Int_Tables_number   1
_chemical_formula_structural   Zn2PN3
_chemical_formula_sum   'Zn4 P2 N6'
_cell_volume   129.38854454
_cell_formula_units_Z   2
loop_
 _symmetry_equiv_pos_site_id
 _symmetry_equiv_pos_as_xyz
  1  'x, y, z'
loop_
 _atom_site_type_symbol
 _atom_site_label
 _atom_site_symmetry_multiplicity
 _atom_site_fract_x
 _atom_site_fract_y
 _atom_site_fract_z
 _atom_site_occupancy
  P  P0  1  0.80781037  0.81238080  0.18746189  1
  P  P1  1  0.30915451  0.13153925  0.86840352  1
  Zn  Zn2  1  0.79652573  0.47656916  0.85330408  1
  Zn  Zn3  1  0.79576915  0.14625301  0.52332397  1
  Zn  Zn4  1  0.29518154  0.46554413  0.20451837  1
  Zn  Zn5  1  0.29580401  0.79519216  0.53425005  1
  N  N6  1  0.96265361  0.09194161  0.90795883  1
  N  N7  1  0.46108136  0.85430299  0.14579943  1
  N  N8  1  0.88991967  0.52540605  0.18679117  1
  N  N9  1  0.89048262  0.81361961  0.47463236  1
  N  N10  1  0.39145808  0.13263288  0.57911161  1
  N  N11  1  0.39196956  0.42121182  0.86784174  1
