# generated using pymatgen
data_Zn2PN3
_symmetry_space_group_name_H-M   'P 1'
_cell_length_a   4.98834108
_cell_length_b   5.52731479
_cell_length_c   5.52872921
_cell_angle_alpha   60.64605657
_cell_angle_beta   88.50219133
_cell_angle_gamma   91.75612679
_symmetry_Int_Tables_number   1
_chemical_formula_structural   Zn2PN3
_chemical_formula_sum   'Zn4 P2 N6'
_cell_volume   132.65622701
_cell_formula_units_Z   2
loop_
 _symmetry_equiv_pos_site_id
 _symmetry_equiv_pos_as_xyz
  1  'x, y, z'
loop_
 _atom_site_type_symbol
 _atom_site_label
 _atom_site_symmetry_multiplicity
 _atom_site_fract_x
 _atom_site_fract_y
 _atom_site_fract_z
 _atom_site_occupancy
  P  P0  1  0.93342991  0.80252828  0.19739628  1
  P  P1  1  0.27609412  0.14200465  0.85842880  1
  Zn  Zn2  1  0.82647649  0.48121797  0.84942583  1
  Zn  Zn3  1  0.83554966  0.15062006  0.51599837  1
  Zn  Zn4  1  0.40248508  0.46587633  0.20739179  1
  Zn  Zn5  1  0.40200938  0.79410479  0.53452530  1
  N  N6  1  0.92749278  0.11044774  0.89006231  1
  N  N7  1  0.27856409  0.83203180  0.16825431  1
  N  N8  1  0.82591481  0.53183316  0.18251218  1
  N  N9  1  0.82595327  0.81718073  0.46778598  1
  N  N10  1  0.37505335  0.12582586  0.58693465  1
  N  N11  1  0.37878724  0.41292210  0.87468122  1
