# generated using pymatgen
data_Zn2PN3
_symmetry_space_group_name_H-M   'P 1'
_cell_length_a   4.98835437
_cell_length_b   5.52723712
_cell_length_c   5.52880851
_cell_angle_alpha   60.64610123
_cell_angle_beta   88.51798430
_cell_angle_gamma   91.75960816
_symmetry_Int_Tables_number   1
_chemical_formula_structural   Zn2PN3
_chemical_formula_sum   'Zn4 P2 N6'
_cell_volume   132.65819635
_cell_formula_units_Z   2
loop_
 _symmetry_equiv_pos_site_id
 _symmetry_equiv_pos_as_xyz
  1  'x, y, z'
loop_
 _atom_site_type_symbol
 _atom_site_label
 _atom_site_symmetry_multiplicity
 _atom_site_fract_x
 _atom_site_fract_y
 _atom_site_fract_z
 _atom_site_occupancy
  P  P0  1  0.93867651  0.80240644  0.19713315  1
  P  P1  1  0.28120345  0.14193199  0.85815031  1
  Zn  Zn2  1  0.81203628  0.47854572  0.84812700  1
  Zn  Zn3  1  0.81262753  0.15020831  0.52100742  1
  Zn  Zn4  1  0.38829552  0.46327254  0.20610638  1
  Zn  Zn5  1  0.37806136  0.79383975  0.53982681  1
  N  N6  1  0.93607826  0.11237454  0.88731355  1
  N  N7  1  0.28732563  0.83402759  0.16538630  1
  N  N8  1  0.83593793  0.53143705  0.18090149  1
  N  N9  1  0.84017614  0.81852861  0.46872011  1
  N  N10  1  0.38867772  0.12734198  0.58773082  1
  N  N11  1  0.38871387  0.41267894  0.87299370  1
