# generated using pymatgen
data_Zn2PN3
_symmetry_space_group_name_H-M   'P 1'
_cell_length_a   4.98732111
_cell_length_b   5.51507320
_cell_length_c   5.51485667
_cell_angle_alpha   60.43516158
_cell_angle_beta   88.85879248
_cell_angle_gamma   91.44469027
_symmetry_Int_Tables_number   1
_chemical_formula_structural   Zn2PN3
_chemical_formula_sum   'Zn4 P2 N6'
_cell_volume   131.80510394
_cell_formula_units_Z   2
loop_
 _symmetry_equiv_pos_site_id
 _symmetry_equiv_pos_as_xyz
  1  'x, y, z'
loop_
 _atom_site_type_symbol
 _atom_site_label
 _atom_site_symmetry_multiplicity
 _atom_site_fract_x
 _atom_site_fract_y
 _atom_site_fract_z
 _atom_site_occupancy
  P  P0  1  0.93294901  0.80269154  0.19713659  1
  P  P1  1  0.29431539  0.13865123  0.86148942  1
  Zn  Zn2  1  0.79465298  0.47353367  0.85374343  1
  Zn  Zn3  1  0.79419284  0.14573401  0.52609479  1
  Zn  Zn4  1  0.32251847  0.45832410  0.20017334  1
  Zn  Zn5  1  0.32216577  0.79985963  0.54213060  1
  N  N6  1  0.94436670  0.10834864  0.89146137  1
  N  N7  1  0.34151437  0.84555973  0.15476630  1
  N  N8  1  0.88086025  0.52084827  0.18552348  1
  N  N9  1  0.88109874  0.81446875  0.47873270  1
  N  N10  1  0.38945289  0.13672291  0.57856668  1
  N  N11  1  0.38972279  0.42185098  0.86357833  1
