# generated using pymatgen
data_Zn2PN3
_symmetry_space_group_name_H-M   'P 1'
_cell_length_a   4.98524252
_cell_length_b   5.45405293
_cell_length_c   5.45416409
_cell_angle_alpha   60.58301009
_cell_angle_beta   89.92144202
_cell_angle_gamma   90.21727314
_symmetry_Int_Tables_number   1
_chemical_formula_structural   Zn2PN3
_chemical_formula_sum   'Zn4 P2 N6'
_cell_volume   129.17542072
_cell_formula_units_Z   2
loop_
 _symmetry_equiv_pos_site_id
 _symmetry_equiv_pos_as_xyz
  1  'x, y, z'
loop_
 _atom_site_type_symbol
 _atom_site_label
 _atom_site_symmetry_multiplicity
 _atom_site_fract_x
 _atom_site_fract_y
 _atom_site_fract_z
 _atom_site_occupancy
  P  P0  1  0.80745422  0.81286660  0.18709041  1
  P  P1  1  0.30792100  0.13154322  0.86842130  1
  Zn  Zn2  1  0.79415408  0.47774308  0.85182283  1
  Zn  Zn3  1  0.79394859  0.14805847  0.52221471  1
  Zn  Zn4  1  0.29348022  0.46624205  0.20425890  1
  Zn  Zn5  1  0.29368193  0.79563231  0.53369794  1
  N  N6  1  0.96235089  0.09059782  0.90937794  1
  N  N7  1  0.46217217  0.85421498  0.14576966  1
  N  N8  1  0.88973974  0.52441565  0.18710977  1
  N  N9  1  0.88989000  0.81299705  0.47559932  1
  N  N10  1  0.39011411  0.13173169  0.57957508  1
  N  N11  1  0.39026041  0.42045865  0.86837686  1
