# generated using pymatgen
data_Zn2PN3
_symmetry_space_group_name_H-M   'P 1'
_cell_length_a   4.98524494
_cell_length_b   5.45412919
_cell_length_c   5.45423454
_cell_angle_alpha   60.58293155
_cell_angle_beta   89.91950075
_cell_angle_gamma   90.22266688
_symmetry_Int_Tables_number   1
_chemical_formula_structural   Zn2PN3
_chemical_formula_sum   'Zn4 P2 N6'
_cell_volume   129.17876712
_cell_formula_units_Z   2
loop_
 _symmetry_equiv_pos_site_id
 _symmetry_equiv_pos_as_xyz
  1  'x, y, z'
loop_
 _atom_site_type_symbol
 _atom_site_label
 _atom_site_symmetry_multiplicity
 _atom_site_fract_x
 _atom_site_fract_y
 _atom_site_fract_z
 _atom_site_occupancy
  P  P0  1  0.90668953  0.81288835  0.18714723  1
  P  P1  1  0.40716534  0.13156830  0.86847384  1
  Zn  Zn2  1  0.92112057  0.47819089  0.85130248  1
  Zn  Zn3  1  0.92091804  0.14880599  0.52186737  1
  Zn  Zn4  1  0.42044176  0.46669673  0.20373512  1
  Zn  Zn5  1  0.42064746  0.79638412  0.53334480  1
  N  N6  1  0.75244628  0.09021187  0.90980160  1
  N  N7  1  0.25226468  0.85383016  0.14619246  1
  N  N8  1  0.82434751  0.52396848  0.18719117  1
  N  N9  1  0.82449546  0.81269619  0.47599364  1
  N  N10  1  0.32472413  0.13143275  0.57997186  1
  N  N11  1  0.32487626  0.42001028  0.86845673  1
