# generated using pymatgen
data_Al31B5N36
_symmetry_space_group_name_H-M   'P 1'
_cell_length_a   9.29434300
_cell_length_b   9.20266764
_cell_length_c   10.01992878
_cell_angle_alpha   89.94328401
_cell_angle_beta   90.36501634
_cell_angle_gamma   60.04397651
_symmetry_Int_Tables_number   1
_chemical_formula_structural   Al31B5N36
_chemical_formula_sum   'Al31 B5 N36'
_cell_volume   742.51654391
_cell_formula_units_Z   1
loop_
 _symmetry_equiv_pos_site_id
 _symmetry_equiv_pos_as_xyz
  1  'x, y, z'
loop_
 _atom_site_type_symbol
 _atom_site_label
 _atom_site_symmetry_multiplicity
 _atom_site_fract_x
 _atom_site_fract_y
 _atom_site_fract_z
 _atom_site_occupancy
  Al  Al0  1  0.09721629  0.09661408  0.32642203  1
  Al  Al1  1  0.22341414  0.20692698  0.07264791  1
  Al  Al2  1  0.78566978  0.09653982  0.80557978  1
  Al  Al3  1  0.45119938  0.10084718  0.40120903  1
  Al  Al4  1  0.10659373  0.10124739  0.81410690  1
  Al  Al5  1  0.88449053  0.20605727  0.07713724  1
  Al  Al6  1  0.45796061  0.09278869  0.88926764  1
  Al  Al7  1  0.10645358  0.42948060  0.32309117  1
  Al  Al8  1  0.22158173  0.53420699  0.07331866  1
  Al  Al9  1  0.78725899  0.41891250  0.82058631  1
  Al  Al10  1  0.88426264  0.53515382  0.56787873  1
  Al  Al11  1  0.45545941  0.41180166  0.38828840  1
  Al  Al12  1  0.55207137  0.53061491  0.13913262  1
  Al  Al13  1  0.11822512  0.41723975  0.81679298  1
  Al  Al14  1  0.21632718  0.53156397  0.56778139  1
  Al  Al15  1  0.77990725  0.41907564  0.32584435  1
  Al  Al16  1  0.88763538  0.53858097  0.07005629  1
  Al  Al17  1  0.45586244  0.41643817  0.89018318  1
  Al  Al18  1  0.55569576  0.52241266  0.63153540  1
  Al  Al19  1  0.10354695  0.76748544  0.31712923  1
  Al  Al20  1  0.21931298  0.87551534  0.06626216  1
  Al  Al21  1  0.78890143  0.75693616  0.82066677  1
  Al  Al22  1  0.88903442  0.88738105  0.56154778  1
  Al  Al23  1  0.43277342  0.76793195  0.32661154  1
  Al  Al24  1  0.55146138  0.88523029  0.13787401  1
  Al  Al25  1  0.10899768  0.76090702  0.81710691  1
  Al  Al26  1  0.21715751  0.87960290  0.56795424  1
  Al  Al27  1  0.77767724  0.76757216  0.32254457  1
  Al  Al28  1  0.88156580  0.88005430  0.07187551  1
  Al  Al29  1  0.43869737  0.76410887  0.81981142  1
  Al  Al30  1  0.55825400  0.88384884  0.63565977  1
  B  B31  1  0.88796087  0.20525506  0.57723844  1
  B  B32  1  0.55774819  0.20372490  0.15078941  1
  B  B33  1  0.15753295  0.23712469  0.55447221  1
  B  B34  1  0.77751654  0.09579799  0.31061084  1
  B  B35  1  0.50559115  0.22811193  0.65063847  1
  N  N36  1  0.20228904  0.21367736  0.40640116  1
  N  N37  1  0.11282623  0.09576230  0.13621207  1
  N  N38  1  0.88960226  0.20330648  0.88872611  1
  N  N39  1  0.83247333  0.09387938  0.62883329  1
  N  N40  1  0.56343322  0.19910950  0.31051129  1
  N  N41  1  0.46580535  0.10912549  0.08275182  1
  N  N42  1  0.22386201  0.20037730  0.88333599  1
  N  N43  1  0.10024171  0.12337026  0.61582869  1
  N  N44  1  0.87020178  0.19326892  0.37652350  1
  N  N45  1  0.76639997  0.10142717  0.14592304  1
  N  N46  1  0.54648501  0.21086930  0.80118900  1
  N  N47  1  0.48454239  0.10173182  0.58344928  1
  N  N48  1  0.21611534  0.54172081  0.37818403  1
  N  N49  1  0.11104638  0.42534506  0.13557635  1
  N  N50  1  0.89518677  0.53360913  0.87829024  1
  N  N51  1  0.79381400  0.39833758  0.62121533  1
  N  N52  1  0.54913067  0.53698809  0.33861604  1
  N  N53  1  0.46417026  0.39483779  0.08361979  1
  N  N54  1  0.22017827  0.53710988  0.87912861  1
  N  N55  1  0.11581861  0.40152892  0.62237959  1
  N  N56  1  0.88384258  0.54176904  0.38100891  1
  N  N57  1  0.78153922  0.42714488  0.13237243  1
  N  N58  1  0.55643503  0.53231814  0.82883570  1
  N  N59  1  0.45330296  0.39628531  0.58301676  1
  N  N60  1  0.21485320  0.87459607  0.38151884  1
  N  N61  1  0.11035163  0.76154860  0.12760020  1
  N  N62  1  0.88619136  0.87889597  0.88167887  1
  N  N63  1  0.79288182  0.75673386  0.62695105  1
  N  N64  1  0.54565313  0.88500178  0.33602617  1
  N  N65  1  0.43811311  0.76457468  0.12373512  1
  N  N66  1  0.21791615  0.87630288  0.87432031  1
  N  N67  1  0.11604717  0.75369024  0.62714030  1
  N  N68  1  0.87243793  0.90158243  0.36994494  1
  N  N69  1  0.78236509  0.75892496  0.12988282  1
  N  N70  1  0.55831353  0.87430742  0.83340754  1
  N  N71  1  0.44222858  0.76357773  0.62015993  1
