# generated using pymatgen
data_Al31B5N36
_symmetry_space_group_name_H-M   'P 1'
_cell_length_a   9.29255226
_cell_length_b   9.17395535
_cell_length_c   9.76943569
_cell_angle_alpha   90.01057405
_cell_angle_beta   89.31093744
_cell_angle_gamma   60.09705049
_symmetry_Int_Tables_number   1
_chemical_formula_structural   Al31B5N36
_chemical_formula_sum   'Al31 B5 N36'
_cell_volume   721.89358801
_cell_formula_units_Z   1
loop_
 _symmetry_equiv_pos_site_id
 _symmetry_equiv_pos_as_xyz
  1  'x, y, z'
loop_
 _atom_site_type_symbol
 _atom_site_label
 _atom_site_symmetry_multiplicity
 _atom_site_fract_x
 _atom_site_fract_y
 _atom_site_fract_z
 _atom_site_occupancy
  Al  Al0  1  0.09768078  0.09820033  0.32456689  1
  Al  Al1  1  0.22769840  0.20477958  0.06287727  1
  Al  Al2  1  0.77487381  0.10073862  0.80968214  1
  Al  Al3  1  0.44555200  0.10106557  0.32397310  1
  Al  Al4  1  0.11788839  0.09726502  0.80260367  1
  Al  Al5  1  0.88305411  0.20423522  0.06570043  1
  Al  Al6  1  0.45571375  0.09715876  0.80798568  1
  Al  Al7  1  0.10785495  0.42942370  0.31037778  1
  Al  Al8  1  0.22546168  0.53327963  0.05798278  1
  Al  Al9  1  0.78215363  0.41657970  0.80386326  1
  Al  Al10  1  0.89102450  0.52768095  0.55599992  1
  Al  Al11  1  0.45062352  0.41739617  0.31034196  1
  Al  Al12  1  0.55611996  0.53314222  0.05823352  1
  Al  Al13  1  0.11660580  0.41702097  0.80488682  1
  Al  Al14  1  0.22887846  0.52439730  0.55859180  1
  Al  Al15  1  0.77068629  0.42867778  0.31032056  1
  Al  Al16  1  0.88837148  0.53742854  0.05681362  1
  Al  Al17  1  0.45060379  0.41581489  0.81134290  1
  Al  Al18  1  0.55298641  0.53244958  0.55796111  1
  Al  Al19  1  0.10489780  0.76701103  0.30961321  1
  Al  Al20  1  0.21909152  0.87658323  0.05986266  1
  Al  Al21  1  0.78055441  0.76015360  0.80766359  1
  Al  Al22  1  0.88417083  0.88549926  0.55499755  1
  Al  Al23  1  0.44013119  0.76476475  0.30882612  1
  Al  Al24  1  0.55487318  0.88060457  0.06086213  1
  Al  Al25  1  0.11058633  0.76210834  0.80830467  1
  Al  Al26  1  0.22817327  0.87609637  0.56022147  1
  Al  Al27  1  0.77231817  0.76892955  0.30896855  1
  Al  Al28  1  0.87972523  0.88260995  0.06509765  1
  Al  Al29  1  0.44729830  0.76019852  0.81061333  1
  Al  Al30  1  0.56103802  0.87879391  0.56220353  1
  B  B31  1  0.82578220  0.23009014  0.53777908  1
  B  B32  1  0.55196405  0.20929816  0.06725613  1
  B  B33  1  0.17600964  0.22480368  0.54471549  1
  B  B34  1  0.76228465  0.09898127  0.31443305  1
  B  B35  1  0.56303655  0.20231083  0.55638719  1
  N  N36  1  0.21297573  0.21026984  0.38861956  1
  N  N37  1  0.10585086  0.09994768  0.12900436  1
  N  N38  1  0.89665941  0.19871406  0.87155930  1
  N  N39  1  0.76996224  0.12178717  0.61041255  1
  N  N40  1  0.57712831  0.19509847  0.38577691  1
  N  N41  1  0.45297679  0.11168356  0.12445237  1
  N  N42  1  0.23299460  0.19968598  0.87154211  1
  N  N43  1  0.14334330  0.10211141  0.61116049  1
  N  N44  1  0.86130612  0.20165438  0.38232382  1
  N  N45  1  0.75060239  0.11055037  0.14118601  1
  N  N46  1  0.56318691  0.20227698  0.89966522  1
  N  N47  1  0.49598448  0.09705400  0.61952237  1
  N  N48  1  0.22242795  0.53787763  0.36580424  1
  N  N49  1  0.10825174  0.42864485  0.11858724  1
  N  N50  1  0.89152434  0.53252557  0.86065884  1
  N  N51  1  0.78435609  0.39870546  0.60365859  1
  N  N52  1  0.54930872  0.54127239  0.36584791  1
  N  N53  1  0.45387132  0.40465189  0.11511545  1
  N  N54  1  0.22390052  0.53490854  0.86205847  1
  N  N55  1  0.11859564  0.39975737  0.60836307  1
  N  N56  1  0.88478727  0.54057418  0.36516925  1
  N  N57  1  0.77512825  0.42872829  0.11891275  1
  N  N58  1  0.55914777  0.53328397  0.86372155  1
  N  N59  1  0.45764540  0.39941179  0.61291988  1
  N  N60  1  0.21926560  0.87297383  0.36897287  1
  N  N61  1  0.10821272  0.76213710  0.11583250  1
  N  N62  1  0.88744175  0.87639664  0.86806502  1
  N  N63  1  0.78858723  0.75292029  0.61385324  1
  N  N64  1  0.55152973  0.87473591  0.36883167  1
  N  N65  1  0.44218053  0.76321157  0.11505284  1
  N  N66  1  0.22289771  0.87343444  0.86532548  1
  N  N67  1  0.11163774  0.76079730  0.61380087  1
  N  N68  1  0.87168054  0.90117177  0.35985094  1
  N  N69  1  0.77593389  0.76168821  0.11636867  1
  N  N70  1  0.55826927  0.87210140  0.86741873  1
  N  N71  1  0.45236508  0.75690793  0.61775170  1
