# generated using pymatgen
data_Al31B5N36
_symmetry_space_group_name_H-M   'P 1'
_cell_length_a   9.32248317
_cell_length_b   9.20474878
_cell_length_c   9.98107111
_cell_angle_alpha   89.97531481
_cell_angle_beta   90.12302980
_cell_angle_gamma   60.12641896
_symmetry_Int_Tables_number   1
_chemical_formula_structural   Al31B5N36
_chemical_formula_sum   'Al31 B5 N36'
_cell_volume   742.67962468
_cell_formula_units_Z   1
loop_
 _symmetry_equiv_pos_site_id
 _symmetry_equiv_pos_as_xyz
  1  'x, y, z'
loop_
 _atom_site_type_symbol
 _atom_site_label
 _atom_site_symmetry_multiplicity
 _atom_site_fract_x
 _atom_site_fract_y
 _atom_site_fract_z
 _atom_site_occupancy
  Al  Al0  1  0.09661388  0.09968992  0.33302709  1
  Al  Al1  1  0.22358688  0.20735532  0.07639877  1
  Al  Al2  1  0.78682633  0.09722459  0.80239120  1
  Al  Al3  1  0.45071554  0.10037780  0.40133715  1
  Al  Al4  1  0.11588759  0.09842309  0.81284501  1
  Al  Al5  1  0.88566571  0.20582871  0.07452489  1
  Al  Al6  1  0.45801624  0.09372164  0.89025316  1
  Al  Al7  1  0.10703615  0.42955689  0.32415442  1
  Al  Al8  1  0.22143010  0.53464022  0.07374361  1
  Al  Al9  1  0.78939268  0.41483582  0.81522245  1
  Al  Al10  1  0.88610562  0.53081384  0.56716942  1
  Al  Al11  1  0.45276195  0.41377143  0.38827233  1
  Al  Al12  1  0.55193517  0.53106772  0.13863409  1
  Al  Al13  1  0.11906842  0.41661112  0.81772732  1
  Al  Al14  1  0.21425570  0.53293093  0.56971601  1
  Al  Al15  1  0.77644957  0.42547367  0.32608419  1
  Al  Al16  1  0.88805730  0.53752011  0.06926956  1
  Al  Al17  1  0.45608433  0.41651116  0.89019977  1
  Al  Al18  1  0.55228000  0.52420848  0.63159770  1
  Al  Al19  1  0.10314775  0.76859607  0.31755299  1
  Al  Al20  1  0.21882498  0.87665489  0.06831324  1
  Al  Al21  1  0.78863881  0.75654847  0.82011086  1
  Al  Al22  1  0.88899637  0.88377296  0.56088351  1
  Al  Al23  1  0.43125116  0.76957562  0.32728884  1
  Al  Al24  1  0.55223176  0.88473140  0.13729971  1
  Al  Al25  1  0.11022492  0.76124588  0.81848879  1
  Al  Al26  1  0.22257484  0.87948662  0.57061280  1
  Al  Al27  1  0.77743098  0.76746363  0.32198348  1
  Al  Al28  1  0.88211017  0.88037901  0.07146220  1
  Al  Al29  1  0.44032636  0.76297511  0.82127155  1
  Al  Al30  1  0.55758171  0.88348791  0.63535320  1
  B  B31  1  0.83563693  0.22158017  0.54607820  1
  B  B32  1  0.55683763  0.20488051  0.15113371  1
  B  B33  1  0.16811296  0.22874740  0.55988809  1
  B  B34  1  0.77107839  0.09453398  0.31038726  1
  B  B35  1  0.50445130  0.22849890  0.65075898  1
  N  N36  1  0.20520493  0.21422996  0.40598516  1
  N  N37  1  0.10942000  0.09794470  0.14077140  1
  N  N38  1  0.89412632  0.20047092  0.88497676  1
  N  N39  1  0.82547279  0.09625324  0.62142263  1
  N  N40  1  0.56424869  0.19892646  0.31159800  1
  N  N41  1  0.46687694  0.10929288  0.08488791  1
  N  N42  1  0.22529362  0.20215340  0.88847458  1
  N  N43  1  0.14837276  0.10182223  0.62677521  1
  N  N44  1  0.86081307  0.20137452  0.38927834  1
  N  N45  1  0.76776088  0.10226145  0.14749095  1
  N  N46  1  0.54809892  0.21069352  0.80137536  1
  N  N47  1  0.49046992  0.09989754  0.58258287  1
  N  N48  1  0.21519047  0.54331866  0.37872400  1
  N  N49  1  0.11005896  0.42697014  0.13602035  1
  N  N50  1  0.89443921  0.53209068  0.87616033  1
  N  N51  1  0.78748289  0.39628990  0.61187377  1
  N  N52  1  0.54695653  0.53853609  0.33807650  1
  N  N53  1  0.46395364  0.39496855  0.08456118  1
  N  N54  1  0.22095678  0.53732918  0.87932620  1
  N  N55  1  0.11487600  0.40233865  0.62382796  1
  N  N56  1  0.88450485  0.54251249  0.37999729  1
  N  N57  1  0.78200298  0.42583755  0.13351888  1
  N  N58  1  0.55912957  0.53042438  0.82958156  1
  N  N59  1  0.45072267  0.39778343  0.58361918  1
  N  N60  1  0.21305597  0.87639643  0.38256775  1
  N  N61  1  0.10972576  0.76215870  0.12770481  1
  N  N62  1  0.88608207  0.87999999  0.87976912  1
  N  N63  1  0.79256723  0.75405460  0.62609139  1
  N  N64  1  0.54659802  0.88402777  0.33623152  1
  N  N65  1  0.43776431  0.76533634  0.12385981  1
  N  N66  1  0.22006504  0.87475654  0.87687023  1
  N  N67  1  0.11449647  0.75692642  0.62771207  1
  N  N68  1  0.87104179  0.90254829  0.36881960  1
  N  N69  1  0.78248315  0.75883342  0.12826711  1
  N  N70  1  0.55842342  0.87471997  0.83436126  1
  N  N71  1  0.44673626  0.75853462  0.61989421  1
