# generated using pymatgen
data_Al31B5N36
_symmetry_space_group_name_H-M   'P 1'
_cell_length_a   9.32235366
_cell_length_b   9.23611244
_cell_length_c   10.05433732
_cell_angle_alpha   89.51648355
_cell_angle_beta   90.26464799
_cell_angle_gamma   59.78186509
_symmetry_Int_Tables_number   1
_chemical_formula_structural   Al31B5N36
_chemical_formula_sum   'Al31 B5 N36'
_cell_volume   748.00022448
_cell_formula_units_Z   1
loop_
 _symmetry_equiv_pos_site_id
 _symmetry_equiv_pos_as_xyz
  1  'x, y, z'
loop_
 _atom_site_type_symbol
 _atom_site_label
 _atom_site_symmetry_multiplicity
 _atom_site_fract_x
 _atom_site_fract_y
 _atom_site_fract_z
 _atom_site_occupancy
  Al  Al0  1  0.10153198  0.09426732  0.32042632  1
  Al  Al1  1  0.22493518  0.20687729  0.07034093  1
  Al  Al2  1  0.78540279  0.09913318  0.80679724  1
  Al  Al3  1  0.44929315  0.10253467  0.40097458  1
  Al  Al4  1  0.10492717  0.10213155  0.82168944  1
  Al  Al5  1  0.88511287  0.20128662  0.10084074  1
  Al  Al6  1  0.45616057  0.09351805  0.88774811  1
  Al  Al7  1  0.10600937  0.42967069  0.32291191  1
  Al  Al8  1  0.22185288  0.53536241  0.07213508  1
  Al  Al9  1  0.77384166  0.42533695  0.89698342  1
  Al  Al10  1  0.88869090  0.53717334  0.56730624  1
  Al  Al11  1  0.45275392  0.41143897  0.38683434  1
  Al  Al12  1  0.55647985  0.52658827  0.14430397  1
  Al  Al13  1  0.11553307  0.41898275  0.81542905  1
  Al  Al14  1  0.21698738  0.53393889  0.56743507  1
  Al  Al15  1  0.77585184  0.40863410  0.38166891  1
  Al  Al16  1  0.89324200  0.53845467  0.07843655  1
  Al  Al17  1  0.45404981  0.41601923  0.88947317  1
  Al  Al18  1  0.56584338  0.51436535  0.63557110  1
  Al  Al19  1  0.10256521  0.76936139  0.31536968  1
  Al  Al20  1  0.22429462  0.87294102  0.06446065  1
  Al  Al21  1  0.78051355  0.75999367  0.86113123  1
  Al  Al22  1  0.89095024  0.89422515  0.55893569  1
  Al  Al23  1  0.43354055  0.76612369  0.32543483  1
  Al  Al24  1  0.55406205  0.88416997  0.14067843  1
  Al  Al25  1  0.10861296  0.76109565  0.81512129  1
  Al  Al26  1  0.22116595  0.87742103  0.56836085  1
  Al  Al27  1  0.77177693  0.77188252  0.35550585  1
  Al  Al28  1  0.88285497  0.88145810  0.06907475  1
  Al  Al29  1  0.44013634  0.76127909  0.81526634  1
  Al  Al30  1  0.56455413  0.88205490  0.63586758  1
  B  B31  1  0.90144970  0.20688167  0.60466860  1
  B  B32  1  0.55287168  0.20326382  0.14625218  1
  B  B33  1  0.15701777  0.23971879  0.55487399  1
  B  B34  1  0.77549254  0.09425059  0.29541782  1
  B  B35  1  0.50296661  0.22957097  0.65021496  1
  N  N36  1  0.20013425  0.21342664  0.40795352  1
  N  N37  1  0.12243550  0.09157843  0.13287977  1
  N  N38  1  0.89273695  0.19492189  0.89441791  1
  N  N39  1  0.83521838  0.09925528  0.62903133  1
  N  N40  1  0.55851863  0.20062280  0.30693714  1
  N  N41  1  0.46298959  0.10881510  0.08054388  1
  N  N42  1  0.22321802  0.20188172  0.88158241  1
  N  N43  1  0.09668556  0.12779485  0.61921287  1
  N  N44  1  0.87037252  0.19166607  0.32357969  1
  N  N45  1  0.75548733  0.09781589  0.13634218  1
  N  N46  1  0.54568820  0.21069745  0.80010824  1
  N  N47  1  0.48219047  0.10375099  0.58345374  1
  N  N48  1  0.21376861  0.54329126  0.37829488  1
  N  N49  1  0.11494844  0.42351928  0.13683792  1
  N  N50  1  0.89790430  0.53204886  0.87741083  1
  N  N51  1  0.79445600  0.39519776  0.58133769  1
  N  N52  1  0.55189768  0.53282393  0.33748448  1
  N  N53  1  0.46232456  0.39676686  0.08264381  1
  N  N54  1  0.21897280  0.53723313  0.87768151  1
  N  N55  1  0.11661954  0.40287405  0.62147671  1
  N  N56  1  0.88374588  0.53785873  0.37436822  1
  N  N57  1  0.77025032  0.43427578  0.08765051  1
  N  N58  1  0.56030498  0.52722387  0.82606558  1
  N  N59  1  0.45418849  0.39711407  0.58266481  1
  N  N60  1  0.21554519  0.87413789  0.38247996  1
  N  N61  1  0.11085325  0.76305242  0.12629362  1
  N  N62  1  0.88769677  0.87946819  0.87769530  1
  N  N63  1  0.78843571  0.76421438  0.59465253  1
  N  N64  1  0.54306221  0.88680935  0.33512122  1
  N  N65  1  0.44058412  0.76211016  0.12704410  1
  N  N66  1  0.22121480  0.87291598  0.87271648  1
  N  N67  1  0.11655905  0.75571235  0.62596083  1
  N  N68  1  0.87224299  0.90589075  0.36521333  1
  N  N69  1  0.77812477  0.76263485  0.10818139  1
  N  N70  1  0.55687494  0.87477140  0.82990858  1
  N  N71  1  0.44741694  0.76021426  0.61945885  1
