# generated using pymatgen
data_Al31B5N36
_symmetry_space_group_name_H-M   'P 1'
_cell_length_a   9.29123182
_cell_length_b   9.19586162
_cell_length_c   10.10758509
_cell_angle_alpha   89.47360882
_cell_angle_beta   90.14226130
_cell_angle_gamma   59.83068050
_symmetry_Int_Tables_number   1
_chemical_formula_structural   Al31B5N36
_chemical_formula_sum   'Al31 B5 N36'
_cell_volume   746.56439078
_cell_formula_units_Z   1
loop_
 _symmetry_equiv_pos_site_id
 _symmetry_equiv_pos_as_xyz
  1  'x, y, z'
loop_
 _atom_site_type_symbol
 _atom_site_label
 _atom_site_symmetry_multiplicity
 _atom_site_fract_x
 _atom_site_fract_y
 _atom_site_fract_z
 _atom_site_occupancy
  Al  Al0  1  0.10065924  0.09444735  0.31977733  1
  Al  Al1  1  0.22445590  0.20725758  0.07151419  1
  Al  Al2  1  0.78445909  0.09879869  0.80736082  1
  Al  Al3  1  0.45224049  0.10079460  0.40086924  1
  Al  Al4  1  0.10279323  0.10370943  0.82218803  1
  Al  Al5  1  0.88413923  0.20266668  0.09800229  1
  Al  Al6  1  0.45757854  0.09193780  0.88903293  1
  Al  Al7  1  0.11331847  0.42645195  0.32599534  1
  Al  Al8  1  0.22105677  0.53513192  0.07292928  1
  Al  Al9  1  0.77724994  0.42989584  0.89692438  1
  Al  Al10  1  0.88298242  0.53693294  0.63495775  1
  Al  Al11  1  0.45512770  0.41108450  0.38701796  1
  Al  Al12  1  0.55461958  0.53182944  0.14391538  1
  Al  Al13  1  0.12244545  0.41596209  0.81631341  1
  Al  Al14  1  0.21707096  0.53425443  0.56656924  1
  Al  Al15  1  0.77932460  0.41102498  0.38606888  1
  Al  Al16  1  0.88045554  0.54200934  0.14542438  1
  Al  Al17  1  0.45518436  0.41620460  0.89112084  1
  Al  Al18  1  0.56442241  0.51561656  0.63642475  1
  Al  Al19  1  0.10164262  0.77047414  0.31549009  1
  Al  Al20  1  0.22412043  0.87307736  0.06446100  1
  Al  Al21  1  0.77744490  0.75400602  0.89029799  1
  Al  Al22  1  0.89116459  0.89584388  0.55872651  1
  Al  Al23  1  0.44025975  0.76311040  0.35883050  1
  Al  Al24  1  0.55494387  0.88005490  0.14184238  1
  Al  Al25  1  0.10520873  0.76165274  0.81553453  1
  Al  Al26  1  0.21663498  0.88087012  0.57210627  1
  Al  Al27  1  0.77175727  0.76679526  0.38661551  1
  Al  Al28  1  0.88387119  0.88157658  0.06788398  1
  Al  Al29  1  0.44170210  0.76099445  0.82853075  1
  Al  Al30  1  0.56752457  0.88055365  0.63850586  1
  B  B31  1  0.90087054  0.20814158  0.60413555  1
  B  B32  1  0.55306406  0.20315642  0.14629150  1
  B  B33  1  0.15513386  0.24206044  0.55436847  1
  B  B34  1  0.77564171  0.09409425  0.29608224  1
  B  B35  1  0.50472674  0.22898092  0.64965225  1
  N  N36  1  0.20133455  0.21192862  0.40923155  1
  N  N37  1  0.12089482  0.09180887  0.13336810  1
  N  N38  1  0.89044093  0.19723973  0.89455171  1
  N  N39  1  0.83351267  0.10121431  0.62976621  1
  N  N40  1  0.55816652  0.20103335  0.30630370  1
  N  N41  1  0.46442295  0.10690495  0.08110497  1
  N  N42  1  0.22308417  0.20114154  0.88368711  1
  N  N43  1  0.09488888  0.13014913  0.62035233  1
  N  N44  1  0.86883798  0.19378802  0.32561583  1
  N  N45  1  0.75667626  0.09666200  0.13750534  1
  N  N46  1  0.54386215  0.21188604  0.79966794  1
  N  N47  1  0.48860145  0.10053202  0.58210313  1
  N  N48  1  0.21558128  0.54452260  0.37957923  1
  N  N49  1  0.11669068  0.42263923  0.13845039  1
  N  N50  1  0.88728028  0.53593981  0.82371655  1
  N  N51  1  0.79512185  0.39846005  0.57937550  1
  N  N52  1  0.55420942  0.53328466  0.33673780  1
  N  N53  1  0.46345471  0.39695491  0.08308034  1
  N  N54  1  0.21848457  0.53802322  0.88015286  1
  N  N55  1  0.12168113  0.40108161  0.62050876  1
  N  N56  1  0.87896146  0.54020037  0.33505869  1
  N  N57  1  0.77138712  0.43721161  0.08297377  1
  N  N58  1  0.56084096  0.52764284  0.82483195  1
  N  N59  1  0.45529355  0.39718433  0.58195004  1
  N  N60  1  0.21338519  0.87572158  0.38565597  1
  N  N61  1  0.10989989  0.76323558  0.12751079  1
  N  N62  1  0.88519202  0.87889765  0.87664442  1
  N  N63  1  0.78715884  0.75880207  0.57549547  1
  N  N64  1  0.54808892  0.88334191  0.33319693  1
  N  N65  1  0.44442146  0.76112982  0.10930822  1
  N  N66  1  0.21762971  0.87457874  0.87066627  1
  N  N67  1  0.11442192  0.75556307  0.62755632  1
  N  N68  1  0.87105752  0.90535325  0.36551616  1
  N  N69  1  0.77500795  0.75827185  0.07995515  1
  N  N70  1  0.55970491  0.87351609  0.82674735  1
  N  N71  1  0.44979439  0.75970273  0.60768135  1
