# generated using pymatgen
data_Al31B5N36
_symmetry_space_group_name_H-M   'P 1'
_cell_length_a   9.29347037
_cell_length_b   9.17469186
_cell_length_c   9.76720983
_cell_angle_alpha   90.01449502
_cell_angle_beta   89.30613656
_cell_angle_gamma   60.09919036
_symmetry_Int_Tables_number   1
_chemical_formula_structural   Al31B5N36
_chemical_formula_sum   'Al31 B5 N36'
_cell_volume   721.87248559
_cell_formula_units_Z   1
loop_
 _symmetry_equiv_pos_site_id
 _symmetry_equiv_pos_as_xyz
  1  'x, y, z'
loop_
 _atom_site_type_symbol
 _atom_site_label
 _atom_site_symmetry_multiplicity
 _atom_site_fract_x
 _atom_site_fract_y
 _atom_site_fract_z
 _atom_site_occupancy
  Al  Al0  1  0.09809240  0.09811933  0.31314160  1
  Al  Al1  1  0.22803438  0.20475379  0.05140965  1
  Al  Al2  1  0.77527191  0.10069825  0.79824033  1
  Al  Al3  1  0.44596875  0.10099761  0.31248943  1
  Al  Al4  1  0.11825029  0.09723122  0.79113668  1
  Al  Al5  1  0.88341916  0.20421068  0.05428100  1
  Al  Al6  1  0.45610524  0.09709523  0.79650001  1
  Al  Al7  1  0.10825219  0.42936446  0.29891527  1
  Al  Al8  1  0.22579415  0.53326659  0.04651485  1
  Al  Al9  1  0.78253415  0.41652985  0.79243502  1
  Al  Al10  1  0.89144986  0.52761308  0.54458114  1
  Al  Al11  1  0.45103264  0.41731501  0.29886120  1
  Al  Al12  1  0.55646909  0.53311224  0.04677133  1
  Al  Al13  1  0.11698668  0.41696163  0.79343334  1
  Al  Al14  1  0.22930853  0.52431597  0.54713465  1
  Al  Al15  1  0.77109101  0.42861754  0.29888633  1
  Al  Al16  1  0.88871047  0.53741666  0.04536938  1
  Al  Al17  1  0.45098108  0.41575639  0.79986022  1
  Al  Al18  1  0.55341911  0.53236102  0.54651842  1
  Al  Al19  1  0.10530183  0.76693918  0.29818639  1
  Al  Al20  1  0.21943664  0.87656203  0.04842096  1
  Al  Al21  1  0.78093618  0.76011778  0.79622734  1
  Al  Al22  1  0.88460352  0.88544697  0.54357096  1
  Al  Al23  1  0.44053836  0.76468141  0.29737681  1
  Al  Al24  1  0.55522681  0.88057614  0.04942567  1
  Al  Al25  1  0.11095559  0.76206460  0.79686130  1
  Al  Al26  1  0.22861187  0.87601127  0.54878465  1
  Al  Al27  1  0.77273293  0.76885935  0.29754798  1
  Al  Al28  1  0.88007948  0.88259521  0.05368610  1
  Al  Al29  1  0.44767526  0.76015301  0.79916905  1
  Al  Al30  1  0.56149186  0.87870141  0.55073982  1
  B  B31  1  0.82622021  0.23001666  0.52632918  1
  B  B32  1  0.55224607  0.20930990  0.05571003  1
  B  B33  1  0.17639489  0.22475161  0.53320875  1
  B  B34  1  0.76268761  0.09892822  0.30293495  1
  B  B35  1  0.56344561  0.20223855  0.54485967  1
  N  N36  1  0.21340334  0.21020283  0.37710271  1
  N  N37  1  0.10620491  0.09992471  0.11754383  1
  N  N38  1  0.89703837  0.19868250  0.86011284  1
  N  N39  1  0.77045197  0.12170897  0.59897120  1
  N  N40  1  0.57755703  0.19502421  0.37429139  1
  N  N41  1  0.45330998  0.11168353  0.11294382  1
  N  N42  1  0.23338220  0.19963144  0.86003929  1
  N  N43  1  0.14374465  0.10205579  0.59965103  1
  N  N44  1  0.86172383  0.20159452  0.37084329  1
  N  N45  1  0.75098509  0.11052109  0.12973105  1
  N  N46  1  0.56355220  0.20223826  0.88816733  1
  N  N47  1  0.49648711  0.09694256  0.60802471  1
  N  N48  1  0.22284571  0.53779705  0.35430838  1
  N  N49  1  0.10858718  0.42862613  0.10708553  1
  N  N50  1  0.89189839  0.53249050  0.84917443  1
  N  N51  1  0.78476985  0.39864905  0.59220225  1
  N  N52  1  0.54971054  0.54119249  0.35436281  1
  N  N53  1  0.45420301  0.40462698  0.10359825  1
  N  N54  1  0.22427642  0.53486119  0.85055039  1
  N  N55  1  0.11901485  0.39968221  0.59687485  1
  N  N56  1  0.88519634  0.54050657  0.35370837  1
  N  N57  1  0.77546292  0.42871887  0.10743625  1
  N  N58  1  0.55951089  0.53323662  0.85222115  1
  N  N59  1  0.45807123  0.39931510  0.60141483  1
  N  N60  1  0.21967927  0.87289790  0.35749812  1
  N  N61  1  0.10856367  0.76210855  0.10436003  1
  N  N62  1  0.88781074  0.87637263  0.85660928  1
  N  N63  1  0.78901749  0.75286038  0.60237695  1
  N  N64  1  0.55192806  0.87467781  0.35732900  1
  N  N65  1  0.44252370  0.76318156  0.10356143  1
  N  N66  1  0.22326145  0.87340697  0.85383361  1
  N  N67  1  0.11206797  0.76071340  0.60231884  1
  N  N68  1  0.87208668  0.90111489  0.34838748  1
  N  N69  1  0.77627802  0.76167354  0.10490419  1
  N  N70  1  0.55864389  0.87206082  0.85593935  1
  N  N71  1  0.45279275  0.75683862  0.60626395  1
