# generated using pymatgen
data_Al31B5N36
_symmetry_space_group_name_H-M   'P 1'
_cell_length_a   9.29688825
_cell_length_b   9.21692873
_cell_length_c   10.09708126
_cell_angle_alpha   89.49678439
_cell_angle_beta   90.27119114
_cell_angle_gamma   59.78243702
_symmetry_Int_Tables_number   1
_chemical_formula_structural   Al31B5N36
_chemical_formula_sum   'Al31 B5 N36'
_cell_volume   747.57180966
_cell_formula_units_Z   1
loop_
 _symmetry_equiv_pos_site_id
 _symmetry_equiv_pos_as_xyz
  1  'x, y, z'
loop_
 _atom_site_type_symbol
 _atom_site_label
 _atom_site_symmetry_multiplicity
 _atom_site_fract_x
 _atom_site_fract_y
 _atom_site_fract_z
 _atom_site_occupancy
  Al  Al0  1  0.10092040  0.09419849  0.32033294  1
  Al  Al1  1  0.22314624  0.20840734  0.07119434  1
  Al  Al2  1  0.78492894  0.09864794  0.80799794  1
  Al  Al3  1  0.45108245  0.10111251  0.40145642  1
  Al  Al4  1  0.10418437  0.10214158  0.82284437  1
  Al  Al5  1  0.88469338  0.20171074  0.09873319  1
  Al  Al6  1  0.45616565  0.09325482  0.88884813  1
  Al  Al7  1  0.11235568  0.42688002  0.32744103  1
  Al  Al8  1  0.21982957  0.53533332  0.07232840  1
  Al  Al9  1  0.77782541  0.42923709  0.89630831  1
  Al  Al10  1  0.88445741  0.53680019  0.62327944  1
  Al  Al11  1  0.45454911  0.41124790  0.38782163  1
  Al  Al12  1  0.55632976  0.52597783  0.14413693  1
  Al  Al13  1  0.11848576  0.41777807  0.81515847  1
  Al  Al14  1  0.21806262  0.53427578  0.56745264  1
  Al  Al15  1  0.77740178  0.41051807  0.38528763  1
  Al  Al16  1  0.88088069  0.54202027  0.14377434  1
  Al  Al17  1  0.45418268  0.41608103  0.89073706  1
  Al  Al18  1  0.56588633  0.51400518  0.63767017  1
  Al  Al19  1  0.10165463  0.76995639  0.31595500  1
  Al  Al20  1  0.22473231  0.87270764  0.06491461  1
  Al  Al21  1  0.77786241  0.75415516  0.88924220  1
  Al  Al22  1  0.89328253  0.89620030  0.55891442  1
  Al  Al23  1  0.43437953  0.76605430  0.32475798  1
  Al  Al24  1  0.55678563  0.88393127  0.14193385  1
  Al  Al25  1  0.10664220  0.76173935  0.81591808  1
  Al  Al26  1  0.22322236  0.87695545  0.56887378  1
  Al  Al27  1  0.76927112  0.77010395  0.38635043  1
  Al  Al28  1  0.88429695  0.88212205  0.06774990  1
  Al  Al29  1  0.44074664  0.76129387  0.81618365  1
  Al  Al30  1  0.56758692  0.88186567  0.64034421  1
  B  B31  1  0.90275082  0.20657280  0.60443851  1
  B  B32  1  0.55199409  0.20357610  0.14690298  1
  B  B33  1  0.15759820  0.23985658  0.55432967  1
  B  B34  1  0.77573347  0.09384787  0.29610168  1
  B  B35  1  0.50375685  0.22927309  0.65072178  1
  N  N36  1  0.20151685  0.21139803  0.40873114  1
  N  N37  1  0.12181194  0.09143083  0.13349569  1
  N  N38  1  0.89160053  0.19623070  0.89548976  1
  N  N39  1  0.83476908  0.10067296  0.63058824  1
  N  N40  1  0.55781379  0.20113111  0.30707158  1
  N  N41  1  0.46275562  0.10877297  0.08109507  1
  N  N42  1  0.22178059  0.20283028  0.88322768  1
  N  N43  1  0.09706671  0.12813596  0.61989069  1
  N  N44  1  0.86929406  0.19318540  0.32456389  1
  N  N45  1  0.75567974  0.09691435  0.13738944  1
  N  N46  1  0.54431624  0.21146236  0.80040815  1
  N  N47  1  0.48528625  0.10211660  0.58351775  1
  N  N48  1  0.21516654  0.54445745  0.38013965  1
  N  N49  1  0.11582142  0.42317715  0.13928229  1
  N  N50  1  0.88598444  0.53656262  0.82350402  1
  N  N51  1  0.79542650  0.39638571  0.57881841  1
  N  N52  1  0.55312210  0.53247660  0.33683061  1
  N  N53  1  0.46193312  0.39665388  0.08294153  1
  N  N54  1  0.21748675  0.53769797  0.87933744  1
  N  N55  1  0.12214211  0.40065554  0.61912801  1
  N  N56  1  0.87892119  0.54049703  0.34062059  1
  N  N57  1  0.77139649  0.43663402  0.08373442  1
  N  N58  1  0.56054816  0.52678484  0.82742928  1
  N  N59  1  0.45569368  0.39670728  0.58299964  1
  N  N60  1  0.21624243  0.87400153  0.38349614  1
  N  N61  1  0.11042949  0.76288838  0.12752121  1
  N  N62  1  0.88627519  0.87865695  0.87679815  1
  N  N63  1  0.78618715  0.76279377  0.57572373  1
  N  N64  1  0.54675080  0.88541313  0.33314466  1
  N  N65  1  0.44130193  0.76226455  0.12792461  1
  N  N66  1  0.22112734  0.87265061  0.87376488  1
  N  N67  1  0.11685549  0.75586486  0.62721371  1
  N  N68  1  0.87149801  0.90594923  0.36531384  1
  N  N69  1  0.77515596  0.75914621  0.08081185  1
  N  N70  1  0.55879447  0.87454851  0.83007043  1
  N  N71  1  0.44935262  0.75990162  0.62093252  1
