# generated using pymatgen
data_Al31B5N36
_symmetry_space_group_name_H-M   'P 1'
_cell_length_a   9.27888570
_cell_length_b   9.15445840
_cell_length_c   9.92986844
_cell_angle_alpha   89.97810889
_cell_angle_beta   89.51067703
_cell_angle_gamma   60.14700405
_symmetry_Int_Tables_number   1
_chemical_formula_structural   Al31B5N36
_chemical_formula_sum   'Al31 B5 N36'
_cell_volume   731.51606419
_cell_formula_units_Z   1
loop_
 _symmetry_equiv_pos_site_id
 _symmetry_equiv_pos_as_xyz
  1  'x, y, z'
loop_
 _atom_site_type_symbol
 _atom_site_label
 _atom_site_symmetry_multiplicity
 _atom_site_fract_x
 _atom_site_fract_y
 _atom_site_fract_z
 _atom_site_occupancy
  Al  Al0  1  0.09761588  0.09865789  0.32211568  1
  Al  Al1  1  0.23148274  0.20400342  0.06241529  1
  Al  Al2  1  0.77878904  0.09908634  0.80841324  1
  Al  Al3  1  0.44071109  0.09794351  0.32978706  1
  Al  Al4  1  0.11941501  0.09667701  0.80237210  1
  Al  Al5  1  0.88614363  0.20363795  0.06186281  1
  Al  Al6  1  0.45258040  0.09732088  0.80454200  1
  Al  Al7  1  0.10704034  0.42956786  0.30945080  1
  Al  Al8  1  0.22923743  0.52995517  0.05723596  1
  Al  Al9  1  0.78142915  0.41715887  0.80298870  1
  Al  Al10  1  0.89001758  0.52787340  0.55409937  1
  Al  Al11  1  0.44358180  0.43054773  0.31149903  1
  Al  Al12  1  0.55722198  0.53064783  0.05754752  1
  Al  Al13  1  0.11617122  0.41776629  0.80520461  1
  Al  Al14  1  0.22591467  0.52517378  0.55830020  1
  Al  Al15  1  0.77032021  0.42873724  0.30871015  1
  Al  Al16  1  0.88915346  0.53691907  0.05593608  1
  Al  Al17  1  0.44843327  0.42147957  0.81200210  1
  Al  Al18  1  0.55263590  0.53437853  0.55746443  1
  Al  Al19  1  0.10462264  0.76764337  0.30762232  1
  Al  Al20  1  0.22106296  0.87532211  0.05907833  1
  Al  Al21  1  0.78059766  0.76044130  0.80702800  1
  Al  Al22  1  0.88265246  0.88522715  0.55233332  1
  Al  Al23  1  0.44035551  0.76591881  0.30707520  1
  Al  Al24  1  0.55556436  0.88184316  0.05927167  1
  Al  Al25  1  0.11154910  0.76219766  0.80710764  1
  Al  Al26  1  0.22759824  0.87690678  0.55890723  1
  Al  Al27  1  0.77209930  0.76946284  0.30664547  1
  Al  Al28  1  0.88364832  0.87913146  0.06063128  1
  Al  Al29  1  0.44740615  0.76116587  0.81061384  1
  Al  Al30  1  0.56148105  0.87689557  0.56171345  1
  B  B31  1  0.81965286  0.23250636  0.53414711  1
  B  B32  1  0.55874887  0.20267269  0.15367077  1
  B  B33  1  0.17466352  0.22503748  0.54662151  1
  B  B34  1  0.77342223  0.09312076  0.30574644  1
  B  B35  1  0.56135748  0.20640572  0.61348705  1
  N  N36  1  0.20945775  0.21182546  0.39180232  1
  N  N37  1  0.10809471  0.09912812  0.12868668  1
  N  N38  1  0.89859844  0.19900764  0.86986486  1
  N  N39  1  0.76111094  0.12388954  0.60588149  1
  N  N40  1  0.57680093  0.19592927  0.32029543  1
  N  N41  1  0.45193375  0.10635164  0.13173570  1
  N  N42  1  0.23223687  0.20039800  0.87272061  1
  N  N43  1  0.14413739  0.10125100  0.61319599  1
  N  N44  1  0.86128852  0.20130089  0.38257497  1
  N  N45  1  0.76648346  0.10169694  0.14036013  1
  N  N46  1  0.56381869  0.20359553  0.85523653  1
  N  N47  1  0.48625333  0.09910455  0.61266156  1
  N  N48  1  0.21899164  0.54019531  0.36860179  1
  N  N49  1  0.10951230  0.42790315  0.11969063  1
  N  N50  1  0.89128997  0.53282224  0.86162948  1
  N  N51  1  0.78301390  0.39790981  0.60288870  1
  N  N52  1  0.55012254  0.54390962  0.36876767  1
  N  N53  1  0.45408674  0.40667748  0.12030791  1
  N  N54  1  0.22284618  0.53645660  0.86330538  1
  N  N55  1  0.11673945  0.40056503  0.60999701  1
  N  N56  1  0.88430872  0.54101809  0.36535837  1
  N  N57  1  0.77651853  0.42720890  0.11946891  1
  N  N58  1  0.55971110  0.53551246  0.86531439  1
  N  N59  1  0.45546080  0.40279631  0.61262572  1
  N  N60  1  0.21955183  0.87338188  0.36936146  1
  N  N61  1  0.11097528  0.75986345  0.11633607  1
  N  N62  1  0.88991119  0.87458281  0.86711715  1
  N  N63  1  0.78790336  0.75310453  0.61502422  1
  N  N64  1  0.55360323  0.87172175  0.37208466  1
  N  N65  1  0.44428295  0.76207839  0.11574792  1
  N  N66  1  0.22371509  0.87314648  0.86665877  1
  N  N67  1  0.11043334  0.76238246  0.61443663  1
  N  N68  1  0.87298953  0.90006102  0.36009980  1
  N  N69  1  0.77701703  0.76164978  0.11622558  1
  N  N70  1  0.55854741  0.87294268  0.86744971  1
  N  N71  1  0.45134352  0.75731483  0.61972110  1
