# generated using pymatgen
data_Al31B5N36
_symmetry_space_group_name_H-M   'P 1'
_cell_length_a   9.29603886
_cell_length_b   9.15754139
_cell_length_c   9.97839959
_cell_angle_alpha   90.32923135
_cell_angle_beta   89.89262005
_cell_angle_gamma   60.42858020
_symmetry_Int_Tables_number   1
_chemical_formula_structural   Al31B5N36
_chemical_formula_sum   'Al31 B5 N36'
_cell_volume   738.77845526
_cell_formula_units_Z   1
loop_
 _symmetry_equiv_pos_site_id
 _symmetry_equiv_pos_as_xyz
  1  'x, y, z'
loop_
 _atom_site_type_symbol
 _atom_site_label
 _atom_site_symmetry_multiplicity
 _atom_site_fract_x
 _atom_site_fract_y
 _atom_site_fract_z
 _atom_site_occupancy
  Al  Al0  1  0.09694831  0.09857296  0.32345335  1
  Al  Al1  1  0.22571680  0.20635392  0.06739943  1
  Al  Al2  1  0.79141583  0.09455640  0.79332744  1
  Al  Al3  1  0.44669139  0.10907032  0.39391556  1
  Al  Al4  1  0.11894188  0.09727908  0.80248864  1
  Al  Al5  1  0.88704747  0.20426336  0.06289672  1
  Al  Al6  1  0.45613165  0.10004662  0.87956811  1
  Al  Al7  1  0.10343675  0.43104653  0.31156737  1
  Al  Al8  1  0.22748845  0.53128491  0.05864812  1
  Al  Al9  1  0.78214117  0.41738779  0.80216446  1
  Al  Al10  1  0.88692298  0.52895923  0.55526925  1
  Al  Al11  1  0.44206202  0.42913287  0.30484677  1
  Al  Al12  1  0.55827290  0.53113670  0.05825887  1
  Al  Al13  1  0.11518355  0.41796580  0.80528479  1
  Al  Al14  1  0.22050241  0.52947120  0.55491310  1
  Al  Al15  1  0.76842449  0.42872425  0.30960807  1
  Al  Al16  1  0.89039455  0.53558672  0.05709753  1
  Al  Al17  1  0.44076175  0.43579916  0.80904706  1
  Al  Al18  1  0.55275665  0.52792371  0.55587251  1
  Al  Al19  1  0.10346428  0.76851626  0.30651770  1
  Al  Al20  1  0.22147464  0.87510405  0.05932896  1
  Al  Al21  1  0.78205740  0.75995906  0.80765659  1
  Al  Al22  1  0.89079426  0.88182126  0.54976457  1
  Al  Al23  1  0.43824674  0.76765893  0.31020061  1
  Al  Al24  1  0.56232667  0.86942012  0.06375982  1
  Al  Al25  1  0.10962886  0.76270498  0.80730824  1
  Al  Al26  1  0.22675246  0.87660079  0.56042100  1
  Al  Al27  1  0.76888249  0.77162525  0.30882198  1
  Al  Al28  1  0.88452997  0.87861016  0.06156012  1
  Al  Al29  1  0.44678502  0.76151482  0.80942760  1
  Al  Al30  1  0.56360908  0.87090146  0.56760216  1
  B  B31  1  0.83260279  0.22189186  0.53485043  1
  B  B32  1  0.55957781  0.19726327  0.14583282  1
  B  B33  1  0.16916827  0.22842472  0.54868942  1
  B  B34  1  0.77269416  0.09389563  0.30201504  1
  B  B35  1  0.50782608  0.22415096  0.64810317  1
  N  N36  1  0.20437978  0.21577328  0.39380292  1
  N  N37  1  0.10921998  0.09774821  0.13067172  1
  N  N38  1  0.89667684  0.20149130  0.87290269  1
  N  N39  1  0.82418354  0.09590125  0.61033852  1
  N  N40  1  0.57011820  0.19213551  0.30636219  1
  N  N41  1  0.46662771  0.10903542  0.07846748  1
  N  N42  1  0.22597923  0.20435489  0.87789793  1
  N  N43  1  0.15199818  0.09965853  0.61588140  1
  N  N44  1  0.85935561  0.20244708  0.37767197  1
  N  N45  1  0.76820050  0.10134013  0.13704407  1
  N  N46  1  0.55816599  0.20277297  0.79709688  1
  N  N47  1  0.48547324  0.10296328  0.57757047  1
  N  N48  1  0.21846535  0.54049808  0.36570619  1
  N  N49  1  0.10955364  0.42814002  0.12317317  1
  N  N50  1  0.89186781  0.53349865  0.86325632  1
  N  N51  1  0.78167878  0.39845523  0.60317993  1
  N  N52  1  0.54757582  0.54237955  0.36754478  1
  N  N53  1  0.45468168  0.40658112  0.11349636  1
  N  N54  1  0.22111935  0.53713583  0.86665846  1
  N  N55  1  0.11375616  0.40342950  0.61116189  1
  N  N56  1  0.88147843  0.54314043  0.36721248  1
  N  N57  1  0.77653973  0.42791472  0.12039604  1
  N  N58  1  0.56080595  0.53555285  0.86683946  1
  N  N59  1  0.44148046  0.41119152  0.61477325  1
  N  N60  1  0.21796198  0.87393922  0.37117978  1
  N  N61  1  0.11125634  0.76039110  0.11623034  1
  N  N62  1  0.88744933  0.87785393  0.86918687  1
  N  N63  1  0.78874635  0.75478675  0.61693349  1
  N  N64  1  0.55069851  0.87463375  0.37293596  1
  N  N65  1  0.44350429  0.76111902  0.11848882  1
  N  N66  1  0.22387775  0.87328477  0.86702258  1
  N  N67  1  0.11508087  0.75602346  0.61559053  1
  N  N68  1  0.87221482  0.90034797  0.35756538  1
  N  N69  1  0.78044506  0.75876812  0.11904321  1
  N  N70  1  0.56243996  0.86666622  0.86968613  1
  N  N71  1  0.45201171  0.75238991  0.62000470  1
