# generated using pymatgen
data_Al31B5N36
_symmetry_space_group_name_H-M   'P 1'
_cell_length_a   9.29347178
_cell_length_b   9.17469046
_cell_length_c   9.76720615
_cell_angle_alpha   90.01450055
_cell_angle_beta   89.30612352
_cell_angle_gamma   60.09918326
_symmetry_Int_Tables_number   1
_chemical_formula_structural   Al31B5N36
_chemical_formula_sum   'Al31 B5 N36'
_cell_volume   721.87215761
_cell_formula_units_Z   1
loop_
 _symmetry_equiv_pos_site_id
 _symmetry_equiv_pos_as_xyz
  1  'x, y, z'
loop_
 _atom_site_type_symbol
 _atom_site_label
 _atom_site_symmetry_multiplicity
 _atom_site_fract_x
 _atom_site_fract_y
 _atom_site_fract_z
 _atom_site_occupancy
  Al  Al0  1  0.09813121  0.09810539  0.31135484  1
  Al  Al1  1  0.22807357  0.20473906  0.04962488  1
  Al  Al2  1  0.77531107  0.10068403  0.79645271  1
  Al  Al3  1  0.44600780  0.10098355  0.31070489  1
  Al  Al4  1  0.11828892  0.09721761  0.78934748  1
  Al  Al5  1  0.88345843  0.20419646  0.05249400  1
  Al  Al6  1  0.45614330  0.09708180  0.79471173  1
  Al  Al7  1  0.10829056  0.42935092  0.29712626  1
  Al  Al8  1  0.22583328  0.53325270  0.04472684  1
  Al  Al9  1  0.78257330  0.41651559  0.79064612  1
  Al  Al10  1  0.89148902  0.52759926  0.54279511  1
  Al  Al11  1  0.45107198  0.41730070  0.29707019  1
  Al  Al12  1  0.55650799  0.53309850  0.04498097  1
  Al  Al13  1  0.11702577  0.41694744  0.79164821  1
  Al  Al14  1  0.22934716  0.52430179  0.54534442  1
  Al  Al15  1  0.77113003  0.42860357  0.29709721  1
  Al  Al16  1  0.88874899  0.53740276  0.04358343  1
  Al  Al17  1  0.45101990  0.41574223  0.79806992  1
  Al  Al18  1  0.55345817  0.53234674  0.54472772  1
  Al  Al19  1  0.10534080  0.76692546  0.29639554  1
  Al  Al20  1  0.21947541  0.87654881  0.04662904  1
  Al  Al21  1  0.78097576  0.76010351  0.79444127  1
  Al  Al22  1  0.88464284  0.88543238  0.54178428  1
  Al  Al23  1  0.44057751  0.76466758  0.29558553  1
  Al  Al24  1  0.55526502  0.88056323  0.04763533  1
  Al  Al25  1  0.11099437  0.76205020  0.79507246  1
  Al  Al26  1  0.22865115  0.87599669  0.54699383  1
  Al  Al27  1  0.77277138  0.76884556  0.29575885  1
  Al  Al28  1  0.88011818  0.88258200  0.05190048  1
  Al  Al29  1  0.44771429  0.76013857  0.79737747  1
  Al  Al30  1  0.56153163  0.87868678  0.54895224  1
  B  B31  1  0.82625919  0.23000249  0.52454144  1
  B  B32  1  0.55228440  0.20929608  0.05392201  1
  B  B33  1  0.17643364  0.22473829  0.53142123  1
  B  B34  1  0.76272659  0.09891432  0.30114769  1
  B  B35  1  0.56348396  0.20222531  0.54307134  1
  N  N36  1  0.21344184  0.21018976  0.37531509  1
  N  N37  1  0.10624374  0.09991027  0.11575695  1
  N  N38  1  0.89707735  0.19866848  0.85832544  1
  N  N39  1  0.77049105  0.12169477  0.59718357  1
  N  N40  1  0.57759619  0.19501070  0.37250348  1
  N  N41  1  0.45334912  0.11166962  0.11115769  1
  N  N42  1  0.23342105  0.19961660  0.85825357  1
  N  N43  1  0.14378371  0.10204140  0.59786199  1
  N  N44  1  0.86176267  0.20158047  0.36905561  1
  N  N45  1  0.75102403  0.11050754  0.12794403  1
  N  N46  1  0.56359087  0.20222402  0.88637910  1
  N  N47  1  0.49652508  0.09692924  0.60623597  1
  N  N48  1  0.22288482  0.53778303  0.35251821  1
  N  N49  1  0.10862590  0.42861254  0.10529717  1
  N  N50  1  0.89193708  0.53247628  0.84738814  1
  N  N51  1  0.78480859  0.39863509  0.59041390  1
  N  N52  1  0.54974930  0.54117851  0.35257242  1
  N  N53  1  0.45424210  0.40461317  0.10180830  1
  N  N54  1  0.22431583  0.53484709  0.84876284  1
  N  N55  1  0.11905406  0.39966806  0.59508850  1
  N  N56  1  0.88523509  0.54049274  0.35192122  1
  N  N57  1  0.77550129  0.42870505  0.10564754  1
  N  N58  1  0.55954970  0.53322252  0.85043111  1
  N  N59  1  0.45810990  0.39930136  0.59962509  1
  N  N60  1  0.21971867  0.87288331  0.35570790  1
  N  N61  1  0.10860301  0.76209502  0.10257009  1
  N  N62  1  0.88784996  0.87635877  0.85482281  1
  N  N63  1  0.78905665  0.75284644  0.60059072  1
  N  N64  1  0.55196716  0.87466311  0.35554109  1
  N  N65  1  0.44256236  0.76316806  0.10177049  1
  N  N66  1  0.22330056  0.87339290  0.85204257  1
  N  N67  1  0.11210742  0.76069883  0.60052992  1
  N  N68  1  0.87212583  0.90110046  0.34659969  1
  N  N69  1  0.77631602  0.76166020  0.10311558  1
  N  N70  1  0.55868226  0.87204691  0.85414935  1
  N  N71  1  0.45283182  0.75682410  0.60447316  1
