# generated using pymatgen
data_Al31B5N36
_symmetry_space_group_name_H-M   'P 1'
_cell_length_a   9.28603866
_cell_length_b   9.15618483
_cell_length_c   10.18913047
_cell_angle_alpha   89.36860413
_cell_angle_beta   90.22321733
_cell_angle_gamma   59.93703243
_symmetry_Int_Tables_number   1
_chemical_formula_structural   Al31B5N36
_chemical_formula_sum   'Al31 B5 N36'
_cell_volume   749.69532522
_cell_formula_units_Z   1
loop_
 _symmetry_equiv_pos_site_id
 _symmetry_equiv_pos_as_xyz
  1  'x, y, z'
loop_
 _atom_site_type_symbol
 _atom_site_label
 _atom_site_symmetry_multiplicity
 _atom_site_fract_x
 _atom_site_fract_y
 _atom_site_fract_z
 _atom_site_occupancy
  Al  Al0  1  0.10829896  0.09075103  0.32838415  1
  Al  Al1  1  0.22268837  0.20848718  0.07238088  1
  Al  Al2  1  0.77952172  0.09074447  0.79776047  1
  Al  Al3  1  0.45352499  0.09745790  0.40006419  1
  Al  Al4  1  0.12020417  0.09918190  0.80506156  1
  Al  Al5  1  0.87988656  0.20871313  0.14094134  1
  Al  Al6  1  0.45509519  0.09444079  0.88907247  1
  Al  Al7  1  0.11274704  0.42510241  0.32642679  1
  Al  Al8  1  0.22075711  0.53489026  0.07191024  1
  Al  Al9  1  0.77993534  0.43069639  0.88806408  1
  Al  Al10  1  0.88354787  0.53666997  0.63591873  1
  Al  Al11  1  0.45538755  0.41184704  0.38717214  1
  Al  Al12  1  0.55545175  0.53166268  0.14058298  1
  Al  Al13  1  0.12269225  0.41830446  0.81511177  1
  Al  Al14  1  0.21565826  0.53410038  0.56673333  1
  Al  Al15  1  0.77765973  0.40877132  0.39608102  1
  Al  Al16  1  0.88133727  0.53869175  0.14331611  1
  Al  Al17  1  0.45428595  0.41798782  0.89028390  1
  Al  Al18  1  0.55532836  0.52833204  0.64213615  1
  Al  Al19  1  0.10338294  0.76800235  0.31552839  1
  Al  Al20  1  0.21465126  0.87876338  0.06631323  1
  Al  Al21  1  0.77673272  0.75815553  0.88953841  1
  Al  Al22  1  0.88889454  0.89575605  0.55378660  1
  Al  Al23  1  0.44985821  0.75529031  0.39026288  1
  Al  Al24  1  0.55444425  0.87882567  0.14158530  1
  Al  Al25  1  0.10710184  0.76434873  0.81521418  1
  Al  Al26  1  0.22047572  0.87990723  0.57087130  1
  Al  Al27  1  0.77007287  0.76327188  0.38544251  1
  Al  Al28  1  0.88401374  0.88102624  0.06971388  1
  Al  Al29  1  0.44804325  0.76033061  0.88668459  1
  Al  Al30  1  0.56261283  0.87847846  0.63947789  1
  B  B31  1  0.85264856  0.23312853  0.65507281  1
  B  B32  1  0.55186506  0.20390931  0.14551654  1
  B  B33  1  0.16987765  0.22898963  0.55727184  1
  B  B34  1  0.77115857  0.08995321  0.29872373  1
  B  B35  1  0.50535379  0.22927905  0.64644573  1
  N  N36  1  0.20686399  0.21097772  0.40737470  1
  N  N37  1  0.11726473  0.09416095  0.13789316  1
  N  N38  1  0.88412391  0.22243261  0.80947315  1
  N  N39  1  0.81906267  0.10194946  0.61948542  1
  N  N40  1  0.56086002  0.19878126  0.30607573  1
  N  N41  1  0.46427515  0.10639979  0.08110593  1
  N  N42  1  0.22093685  0.20513729  0.88788570  1
  N  N43  1  0.14797587  0.10158228  0.62335315  1
  N  N44  1  0.86970807  0.19303405  0.32700072  1
  N  N45  1  0.75611427  0.09719082  0.13668962  1
  N  N46  1  0.54139264  0.21369784  0.79835996  1
  N  N47  1  0.49212913  0.09867636  0.58008861  1
  N  N48  1  0.21539182  0.54300713  0.38055904  1
  N  N49  1  0.11640301  0.42334537  0.13958487  1
  N  N50  1  0.88806436  0.54268508  0.82354899  1
  N  N51  1  0.78563034  0.40438125  0.58559313  1
  N  N52  1  0.55526756  0.53360870  0.32923296  1
  N  N53  1  0.46342953  0.39646603  0.08206707  1
  N  N54  1  0.21823364  0.54054557  0.88125436  1
  N  N55  1  0.12183693  0.39955398  0.62149025  1
  N  N56  1  0.87731966  0.53559028  0.33294538  1
  N  N57  1  0.77742153  0.42583961  0.07346033  1
  N  N58  1  0.55501260  0.53756259  0.82826348  1
  N  N59  1  0.45475140  0.40071413  0.58189488  1
  N  N60  1  0.21673800  0.87009279  0.38360300  1
  N  N61  1  0.10982617  0.76206120  0.12922515  1
  N  N62  1  0.88686865  0.88256404  0.88073525  1
  N  N63  1  0.78475624  0.75876139  0.57318194  1
  N  N64  1  0.54628341  0.87914912  0.32806573  1
  N  N65  1  0.44916825  0.75862938  0.07763832  1
  N  N66  1  0.21331790  0.88011283  0.87551507  1
  N  N67  1  0.11294931  0.75822657  0.62795281  1
  N  N68  1  0.87031528  0.90191036  0.36189603  1
  N  N69  1  0.77419101  0.75681600  0.07870646  1
  N  N70  1  0.55649311  0.87404566  0.82649328  1
  N  N71  1  0.45907230  0.75313131  0.57973819  1
