# generated using pymatgen
data_Al31B5N36
_symmetry_space_group_name_H-M   'P 1'
_cell_length_a   9.31471162
_cell_length_b   9.21252024
_cell_length_c   10.08095473
_cell_angle_alpha   89.49958552
_cell_angle_beta   90.20758418
_cell_angle_gamma   59.75421007
_symmetry_Int_Tables_number   1
_chemical_formula_structural   Al31B5N36
_chemical_formula_sum   'Al31 B5 N36'
_cell_volume   747.24651693
_cell_formula_units_Z   1
loop_
 _symmetry_equiv_pos_site_id
 _symmetry_equiv_pos_as_xyz
  1  'x, y, z'
loop_
 _atom_site_type_symbol
 _atom_site_label
 _atom_site_symmetry_multiplicity
 _atom_site_fract_x
 _atom_site_fract_y
 _atom_site_fract_z
 _atom_site_occupancy
  Al  Al0  1  0.10124851  0.09457653  0.32037310  1
  Al  Al1  1  0.22391251  0.20796121  0.07019859  1
  Al  Al2  1  0.78579348  0.09869889  0.80762135  1
  Al  Al3  1  0.45073644  0.10120183  0.40062096  1
  Al  Al4  1  0.10507611  0.10213983  0.82189397  1
  Al  Al5  1  0.88499108  0.20180099  0.10086031  1
  Al  Al6  1  0.45772628  0.09147406  0.88806144  1
  Al  Al7  1  0.10505936  0.43041294  0.32336451  1
  Al  Al8  1  0.22192749  0.53537178  0.07256932  1
  Al  Al9  1  0.77394540  0.42694830  0.89715371  1
  Al  Al10  1  0.88765211  0.54004179  0.56754029  1
  Al  Al11  1  0.45303908  0.41136098  0.38708928  1
  Al  Al12  1  0.55733707  0.52600306  0.14491366  1
  Al  Al13  1  0.11596873  0.41877974  0.81625340  1
  Al  Al14  1  0.21726128  0.53346676  0.56744609  1
  Al  Al15  1  0.77607881  0.40974954  0.38337296  1
  Al  Al16  1  0.89140798  0.54364976  0.07399200  1
  Al  Al17  1  0.45463700  0.41551474  0.88986137  1
  Al  Al18  1  0.56583904  0.51397939  0.63614387  1
  Al  Al19  1  0.10192225  0.76971650  0.31585557  1
  Al  Al20  1  0.22303525  0.87302582  0.06468926  1
  Al  Al21  1  0.78903417  0.75684449  0.81918983  1
  Al  Al22  1  0.88889037  0.89276123  0.55972768  1
  Al  Al23  1  0.43367569  0.76623503  0.32636506  1
  Al  Al24  1  0.54989098  0.88539954  0.13897595  1
  Al  Al25  1  0.10911727  0.76112702  0.81601276  1
  Al  Al26  1  0.21965923  0.87761467  0.56825421  1
  Al  Al27  1  0.77665292  0.76916796  0.32273561  1
  Al  Al28  1  0.88025407  0.87953034  0.06687871  1
  Al  Al29  1  0.44070518  0.76133398  0.81635393  1
  Al  Al30  1  0.55866273  0.88415030  0.63480021  1
  B  B31  1  0.90122343  0.20658589  0.60530973  1
  B  B32  1  0.55341489  0.20323140  0.14636669  1
  B  B33  1  0.15599298  0.24027727  0.55505101  1
  B  B34  1  0.77451276  0.09459002  0.29624483  1
  B  B35  1  0.50381329  0.22927801  0.65025973  1
  N  N36  1  0.19946874  0.21386676  0.40846192  1
  N  N37  1  0.12226992  0.09183604  0.13327347  1
  N  N38  1  0.89266195  0.19543625  0.89461442  1
  N  N39  1  0.83500454  0.09853639  0.62976520  1
  N  N40  1  0.55909823  0.20037219  0.30675998  1
  N  N41  1  0.46293106  0.10909114  0.08033896  1
  N  N42  1  0.22364520  0.20149146  0.88206751  1
  N  N43  1  0.09653316  0.12751635  0.61963991  1
  N  N44  1  0.86981970  0.19222407  0.32403327  1
  N  N45  1  0.75620592  0.09671341  0.13669672  1
  N  N46  1  0.54575648  0.21021025  0.79984511  1
  N  N47  1  0.48347077  0.10344940  0.58239648  1
  N  N48  1  0.21427961  0.54292713  0.37859385  1
  N  N49  1  0.11300525  0.42500616  0.13714419  1
  N  N50  1  0.89724385  0.53622244  0.87916739  1
  N  N51  1  0.79455763  0.39563029  0.58186509  1
  N  N52  1  0.55250312  0.53255401  0.33749748  1
  N  N53  1  0.46294565  0.39644609  0.08280792  1
  N  N54  1  0.21970976  0.53687832  0.87845262  1
  N  N55  1  0.11623229  0.40305703  0.62220693  1
  N  N56  1  0.88266288  0.54263575  0.37898062  1
  N  N57  1  0.77067514  0.43590001  0.08719324  1
  N  N58  1  0.56073259  0.52677651  0.82582434  1
  N  N59  1  0.45455879  0.39693693  0.58260282  1
  N  N60  1  0.21509919  0.87419765  0.38278102  1
  N  N61  1  0.10911011  0.76359655  0.12658391  1
  N  N62  1  0.88643634  0.87750213  0.87849552  1
  N  N63  1  0.79314032  0.76059957  0.62507156  1
  N  N64  1  0.54405769  0.88545097  0.33659852  1
  N  N65  1  0.43952750  0.76187952  0.12722857  1
  N  N66  1  0.22128804  0.87280567  0.87337333  1
  N  N67  1  0.11595069  0.75540180  0.62662585  1
  N  N68  1  0.87092409  0.90385211  0.36838401  1
  N  N69  1  0.78123129  0.76151165  0.13142888  1
  N  N70  1  0.55799144  0.87326357  0.83116140  1
  N  N71  1  0.44614286  0.76002948  0.61937340  1
