# generated using pymatgen
data_Al31B5N36
_symmetry_space_group_name_H-M   'P 1'
_cell_length_a   9.29347071
_cell_length_b   9.17468882
_cell_length_c   9.76720831
_cell_angle_alpha   90.01450857
_cell_angle_beta   89.30614296
_cell_angle_gamma   60.09919251
_symmetry_Int_Tables_number   1
_chemical_formula_structural   Al31B5N36
_chemical_formula_sum   'Al31 B5 N36'
_cell_volume   721.87217544
_cell_formula_units_Z   1
loop_
 _symmetry_equiv_pos_site_id
 _symmetry_equiv_pos_as_xyz
  1  'x, y, z'
loop_
 _atom_site_type_symbol
 _atom_site_label
 _atom_site_symmetry_multiplicity
 _atom_site_fract_x
 _atom_site_fract_y
 _atom_site_fract_z
 _atom_site_occupancy
  Al  Al0  1  0.09795748  0.09816780  0.31934670  1
  Al  Al1  1  0.22789975  0.20480133  0.05761632  1
  Al  Al2  1  0.77513739  0.10074639  0.80444435  1
  Al  Al3  1  0.44583405  0.10104593  0.31869649  1
  Al  Al4  1  0.11811495  0.09728008  0.79733827  1
  Al  Al5  1  0.88328483  0.20425879  0.06048577  1
  Al  Al6  1  0.45596932  0.09714429  0.80270298  1
  Al  Al7  1  0.10811669  0.42941335  0.30511722  1
  Al  Al8  1  0.22565964  0.53331502  0.05271837  1
  Al  Al9  1  0.78239956  0.41657794  0.79863722  1
  Al  Al10  1  0.89131512  0.52766184  0.55078682  1
  Al  Al11  1  0.45089835  0.41736296  0.30506107  1
  Al  Al12  1  0.55633420  0.53316100  0.05297214  1
  Al  Al13  1  0.11685196  0.41700990  0.79963963  1
  Al  Al14  1  0.22917324  0.52436433  0.55333554  1
  Al  Al15  1  0.77095633  0.42866595  0.30508817  1
  Al  Al16  1  0.88857523  0.53746517  0.05157496  1
  Al  Al17  1  0.45084614  0.41580463  0.80606086  1
  Al  Al18  1  0.55328440  0.53240906  0.55271880  1
  Al  Al19  1  0.10516712  0.76698778  0.30438636  1
  Al  Al20  1  0.21930176  0.87661135  0.05461984  1
  Al  Al21  1  0.78080207  0.76016595  0.80243316  1
  Al  Al22  1  0.88446921  0.88549460  0.54977569  1
  Al  Al23  1  0.44040384  0.76472985  0.30357655  1
  Al  Al24  1  0.55509112  0.88062572  0.05562601  1
  Al  Al25  1  0.11082062  0.76211251  0.80306412  1
  Al  Al26  1  0.22847733  0.87605899  0.55498456  1
  Al  Al27  1  0.77259761  0.76890790  0.30374991  1
  Al  Al28  1  0.87994443  0.88264452  0.05989231  1
  Al  Al29  1  0.44754047  0.76020093  0.80536786  1
  Al  Al30  1  0.56135799  0.87874915  0.55694321  1
  B  B31  1  0.82608542  0.23006482  0.53253283  1
  B  B32  1  0.55211048  0.20935850  0.06191326  1
  B  B33  1  0.17625992  0.22480085  0.53941257  1
  B  B34  1  0.76255289  0.09897673  0.30913914  1
  B  B35  1  0.56330997  0.20228780  0.55106260  1
  N  N36  1  0.21326812  0.21025235  0.38330652  1
  N  N37  1  0.10607008  0.09997256  0.12374868  1
  N  N38  1  0.89690364  0.19873094  0.86631708  1
  N  N39  1  0.77031742  0.12175704  0.60517505  1
  N  N40  1  0.57742247  0.19507310  0.38049481  1
  N  N41  1  0.45317535  0.11173199  0.11914903  1
  N  N42  1  0.23324713  0.19967894  0.86624495  1
  N  N43  1  0.14360983  0.10210383  0.60585288  1
  N  N44  1  0.86158889  0.20164284  0.37704697  1
  N  N45  1  0.75085034  0.11056998  0.13593558  1
  N  N46  1  0.56341704  0.20228639  0.89437034  1
  N  N47  1  0.49635095  0.09699179  0.61422710  1
  N  N48  1  0.22271110  0.53784539  0.36050924  1
  N  N49  1  0.10845212  0.42867491  0.11328834  1
  N  N50  1  0.89176331  0.53253867  0.85537967  1
  N  N51  1  0.78463476  0.39869750  0.59840516  1
  N  N52  1  0.54957566  0.54124075  0.36056348  1
  N  N53  1  0.45406843  0.40467552  0.10979940  1
  N  N54  1  0.22414221  0.53490938  0.85675439  1
  N  N55  1  0.11888023  0.39973057  0.60307994  1
  N  N56  1  0.88506135  0.54055516  0.35991270  1
  N  N57  1  0.77532750  0.42876750  0.11363870  1
  N  N58  1  0.55937590  0.53328501  0.85842224  1
  N  N59  1  0.45793602  0.39936380  0.60761620  1
  N  N60  1  0.21954501  0.87294551  0.36369885  1
  N  N61  1  0.10842942  0.76215744  0.11056110  1
  N  N62  1  0.88767627  0.87642122  0.86281463  1
  N  N63  1  0.78888279  0.75290897  0.60858251  1
  N  N64  1  0.55179349  0.87472539  0.36353218  1
  N  N65  1  0.44238862  0.76323050  0.10976157  1
  N  N66  1  0.22312690  0.87345538  0.86003346  1
  N  N67  1  0.11193373  0.76076116  0.60852148  1
  N  N68  1  0.87195220  0.90116270  0.35459099  1
  N  N69  1  0.77614210  0.76172269  0.11110672  1
  N  N70  1  0.55850834  0.87210932  0.86214025  1
  N  N71  1  0.45265800  0.75688651  0.61246379  1
