# generated using pymatgen
data_Al31B5N36
_symmetry_space_group_name_H-M   'P 1'
_cell_length_a   9.26706477
_cell_length_b   9.14880462
_cell_length_c   9.91474705
_cell_angle_alpha   89.97530957
_cell_angle_beta   89.46613162
_cell_angle_gamma   60.10635756
_symmetry_Int_Tables_number   1
_chemical_formula_structural   Al31B5N36
_chemical_formula_sum   'Al31 B5 N36'
_cell_volume   728.71765229
_cell_formula_units_Z   1
loop_
 _symmetry_equiv_pos_site_id
 _symmetry_equiv_pos_as_xyz
  1  'x, y, z'
loop_
 _atom_site_type_symbol
 _atom_site_label
 _atom_site_symmetry_multiplicity
 _atom_site_fract_x
 _atom_site_fract_y
 _atom_site_fract_z
 _atom_site_occupancy
  Al  Al0  1  0.09762517  0.09885591  0.32296617  1
  Al  Al1  1  0.22953178  0.20469321  0.06222127  1
  Al  Al2  1  0.77569385  0.10033481  0.80859435  1
  Al  Al3  1  0.44491107  0.10013774  0.32903190  1
  Al  Al4  1  0.11927282  0.09665761  0.80215449  1
  Al  Al5  1  0.88444520  0.20406661  0.06230686  1
  Al  Al6  1  0.45482932  0.09813838  0.80670441  1
  Al  Al7  1  0.10786056  0.42932598  0.30991055  1
  Al  Al8  1  0.22741106  0.53129517  0.05700706  1
  Al  Al9  1  0.78164566  0.41689126  0.80292007  1
  Al  Al10  1  0.89036356  0.52787712  0.55417404  1
  Al  Al11  1  0.44897444  0.42204538  0.31292759  1
  Al  Al12  1  0.55750129  0.53168800  0.05733881  1
  Al  Al13  1  0.11670543  0.41739071  0.80482770  1
  Al  Al14  1  0.22683642  0.52493407  0.55789688  1
  Al  Al15  1  0.77082286  0.42859789  0.30914604  1
  Al  Al16  1  0.88909960  0.53692252  0.05582381  1
  Al  Al17  1  0.45050272  0.41755214  0.81203078  1
  Al  Al18  1  0.55280010  0.53383779  0.55699069  1
  Al  Al19  1  0.10495468  0.76723838  0.30801086  1
  Al  Al20  1  0.22038431  0.87577261  0.05875141  1
  Al  Al21  1  0.78070211  0.76033324  0.80677811  1
  Al  Al22  1  0.88270126  0.88550452  0.55205724  1
  Al  Al23  1  0.44018493  0.76577059  0.30764058  1
  Al  Al24  1  0.55610010  0.88064426  0.05904805  1
  Al  Al25  1  0.11148707  0.76206137  0.80699107  1
  Al  Al26  1  0.22768313  0.87675810  0.55880805  1
  Al  Al27  1  0.77224137  0.76939327  0.30718427  1
  Al  Al28  1  0.88181605  0.88030543  0.06119427  1
  Al  Al29  1  0.44742184  0.76081821  0.81023883  1
  Al  Al30  1  0.56104377  0.87771573  0.56169992  1
  B  B31  1  0.82140916  0.23249372  0.53441029  1
  B  B32  1  0.55488352  0.20598738  0.11591186  1
  B  B33  1  0.17578563  0.22465925  0.54611373  1
  B  B34  1  0.76374806  0.09704479  0.30962288  1
  B  B35  1  0.56215122  0.20534061  0.59052303  1
  N  N36  1  0.21159992  0.21104277  0.39105979  1
  N  N37  1  0.10706811  0.09933196  0.12889703  1
  N  N38  1  0.89808236  0.19856627  0.87021038  1
  N  N39  1  0.76174596  0.12431691  0.60682109  1
  N  N40  1  0.57918983  0.19491573  0.35420498  1
  N  N41  1  0.45402829  0.10927765  0.12952423  1
  N  N42  1  0.23259153  0.20001295  0.87295606  1
  N  N43  1  0.14418433  0.10142344  0.61280217  1
  N  N44  1  0.86253574  0.20222897  0.38289818  1
  N  N45  1  0.75577351  0.10705969  0.14095104  1
  N  N46  1  0.56401056  0.20279513  0.87422097  1
  N  N47  1  0.48855447  0.09853591  0.61703764  1
  N  N48  1  0.22129557  0.53880955  0.36765875  1
  N  N49  1  0.10939583  0.42805401  0.11984889  1
  N  N50  1  0.89156468  0.53257473  0.86156228  1
  N  N51  1  0.78346551  0.39831418  0.60329078  1
  N  N52  1  0.54993301  0.54338915  0.36773589  1
  N  N53  1  0.45539060  0.40390596  0.11946842  1
  N  N54  1  0.22363201  0.53585158  0.86343353  1
  N  N55  1  0.11750558  0.40030735  0.60962610  1
  N  N56  1  0.88475095  0.54097754  0.36533799  1
  N  N57  1  0.77628986  0.42751105  0.11951131  1
  N  N58  1  0.55943084  0.53488568  0.86538696  1
  N  N59  1  0.45639315  0.40139260  0.61367201  1
  N  N60  1  0.21939198  0.87337799  0.36936150  1
  N  N61  1  0.10995703  0.76084083  0.11625122  1
  N  N62  1  0.88943909  0.87493612  0.86740397  1
  N  N63  1  0.78803016  0.75307805  0.61481718  1
  N  N64  1  0.55274451  0.87292688  0.37121450  1
  N  N65  1  0.44358926  0.76263912  0.11587817  1
  N  N66  1  0.22359514  0.87311158  0.86646184  1
  N  N67  1  0.11067205  0.76202602  0.61426645  1
  N  N68  1  0.87307383  0.89966741  0.35948167  1
  N  N69  1  0.77681248  0.76145561  0.11645019  1
  N  N70  1  0.55853569  0.87247459  0.86786209  1
  N  N71  1  0.45168337  0.75701634  0.61935989  1
