# generated using pymatgen
data_Al31B5N36
_symmetry_space_group_name_H-M   'P 1'
_cell_length_a   9.42499274
_cell_length_b   9.14725294
_cell_length_c   9.98847573
_cell_angle_alpha   90.12299884
_cell_angle_beta   90.54179788
_cell_angle_gamma   61.00371114
_symmetry_Int_Tables_number   1
_chemical_formula_structural   Al31B5N36
_chemical_formula_sum   'Al31 B5 N36'
_cell_volume   753.15554506
_cell_formula_units_Z   1
loop_
 _symmetry_equiv_pos_site_id
 _symmetry_equiv_pos_as_xyz
  1  'x, y, z'
loop_
 _atom_site_type_symbol
 _atom_site_label
 _atom_site_symmetry_multiplicity
 _atom_site_fract_x
 _atom_site_fract_y
 _atom_site_fract_z
 _atom_site_occupancy
  Al  Al0  1  0.12191033  0.08672820  0.33470469  1
  Al  Al1  1  0.21767053  0.20696854  0.08325401  1
  Al  Al2  1  0.77497179  0.09552722  0.88647727  1
  Al  Al3  1  0.45241243  0.09785808  0.41086974  1
  Al  Al4  1  0.11357314  0.10339641  0.81193905  1
  Al  Al5  1  0.88051247  0.20264121  0.15088689  1
  Al  Al6  1  0.44498210  0.09903455  0.89596069  1
  Al  Al7  1  0.10120017  0.43542606  0.40234500  1
  Al  Al8  1  0.21847102  0.53856110  0.15849013  1
  Al  Al9  1  0.77432650  0.42393635  0.89899326  1
  Al  Al10  1  0.88739827  0.52802437  0.65490852  1
  Al  Al11  1  0.44398884  0.41801069  0.40173385  1
  Al  Al12  1  0.55379963  0.53061076  0.15167574  1
  Al  Al13  1  0.10009347  0.43937982  0.90437274  1
  Al  Al14  1  0.22597812  0.51778236  0.64921707  1
  Al  Al15  1  0.77716662  0.41547806  0.40420658  1
  Al  Al16  1  0.88202996  0.54341644  0.15356049  1
  Al  Al17  1  0.44025135  0.42286435  0.90304158  1
  Al  Al18  1  0.55504951  0.52605424  0.65545576  1
  Al  Al19  1  0.11031335  0.76632281  0.36609714  1
  Al  Al20  1  0.21235487  0.87833697  0.08108889  1
  Al  Al21  1  0.77606966  0.76583343  0.90441682  1
  Al  Al22  1  0.89057773  0.87604546  0.63882790  1
  Al  Al23  1  0.45847880  0.75240519  0.40103582  1
  Al  Al24  1  0.55322807  0.88294461  0.15346049  1
  Al  Al25  1  0.10975477  0.76555669  0.83625241  1
  Al  Al26  1  0.23222852  0.87418500  0.58425238  1
  Al  Al27  1  0.77453233  0.77130926  0.40388126  1
  Al  Al28  1  0.88056166  0.89074235  0.15176640  1
  Al  Al29  1  0.44709314  0.76085564  0.90054349  1
  Al  Al30  1  0.56637664  0.87359130  0.65417727  1
  B  B31  1  0.84092478  0.22752660  0.65167515  1
  B  B32  1  0.48717049  0.23743491  0.16537817  1
  B  B33  1  0.17022298  0.22207864  0.56089331  1
  B  B34  1  0.85362661  0.07148530  0.42527689  1
  B  B35  1  0.50798336  0.22388433  0.66498060  1
  N  N36  1  0.21741525  0.20187014  0.41225643  1
  N  N37  1  0.11544332  0.09655626  0.14789346  1
  N  N38  1  0.87475652  0.21142475  0.80346976  1
  N  N39  1  0.83886072  0.09150035  0.57155124  1
  N  N40  1  0.51061812  0.22483929  0.30741326  1
  N  N41  1  0.44965759  0.11224787  0.09198912  1
  N  N42  1  0.21620059  0.20759232  0.89365890  1
  N  N43  1  0.15783392  0.09537045  0.63249263  1
  N  N44  1  0.88632018  0.18996188  0.34531833  1
  N  N45  1  0.79072160  0.09284642  0.06822344  1
  N  N46  1  0.54778441  0.21078658  0.81663309  1
  N  N47  1  0.50043877  0.09199176  0.59455960  1
  N  N48  1  0.21969539  0.53746077  0.35289393  1
  N  N49  1  0.09862491  0.43920484  0.09855513  1
  N  N50  1  0.88312978  0.54027296  0.84450963  1
  N  N51  1  0.77925918  0.40289975  0.59622152  1
  N  N52  1  0.55843345  0.52920574  0.34378157  1
  N  N53  1  0.43984542  0.40964600  0.09534937  1
  N  N54  1  0.22315251  0.53296401  0.84120651  1
  N  N55  1  0.10535963  0.40806466  0.59599892  1
  N  N56  1  0.88272449  0.54028801  0.34518385  1
  N  N57  1  0.77437963  0.42628903  0.09095709  1
  N  N58  1  0.55214280  0.53562118  0.84544424  1
  N  N59  1  0.45063959  0.39784592  0.59767317  1
  N  N60  1  0.23126669  0.86976266  0.39322714  1
  N  N61  1  0.10662662  0.76579920  0.13626508  1
  N  N62  1  0.88323331  0.87336008  0.82938699  1
  N  N63  1  0.78516241  0.75115144  0.59121191  1
  N  N64  1  0.55656408  0.87618382  0.34369606  1
  N  N65  1  0.44613737  0.76009462  0.09387059  1
  N  N66  1  0.21546586  0.88264110  0.88450653  1
  N  N67  1  0.12123670  0.75205910  0.62083765  1
  N  N68  1  0.87967379  0.90561535  0.35963419  1
  N  N69  1  0.77354927  0.76913393  0.09718372  1
  N  N70  1  0.55660901  0.87403454  0.84443830  1
  N  N71  1  0.46357714  0.74798863  0.59467417  1
