# generated using pymatgen
data_Al31B5N36
_symmetry_space_group_name_H-M   'P 1'
_cell_length_a   9.29627645
_cell_length_b   9.20107956
_cell_length_c   10.06145565
_cell_angle_alpha   89.83605560
_cell_angle_beta   90.24626876
_cell_angle_gamma   60.01003400
_symmetry_Int_Tables_number   1
_chemical_formula_structural   Al31B5N36
_chemical_formula_sum   'Al31 B5 N36'
_cell_volume   745.36996779
_cell_formula_units_Z   1
loop_
 _symmetry_equiv_pos_site_id
 _symmetry_equiv_pos_as_xyz
  1  'x, y, z'
loop_
 _atom_site_type_symbol
 _atom_site_label
 _atom_site_symmetry_multiplicity
 _atom_site_fract_x
 _atom_site_fract_y
 _atom_site_fract_z
 _atom_site_occupancy
  Al  Al0  1  0.09585548  0.09595107  0.32402122  1
  Al  Al1  1  0.22347579  0.20714137  0.07222538  1
  Al  Al2  1  0.78508376  0.09656913  0.80811576  1
  Al  Al3  1  0.45150029  0.10074912  0.40071803  1
  Al  Al4  1  0.10746167  0.10072722  0.81892544  1
  Al  Al5  1  0.88380942  0.20545317  0.08108393  1
  Al  Al6  1  0.45812113  0.09240737  0.88940943  1
  Al  Al7  1  0.10629011  0.42912008  0.32330801  1
  Al  Al8  1  0.22105883  0.53445995  0.07315844  1
  Al  Al9  1  0.78636934  0.42055728  0.82636403  1
  Al  Al10  1  0.88458188  0.53581962  0.56777532  1
  Al  Al11  1  0.45618204  0.41100587  0.38771541  1
  Al  Al12  1  0.55101569  0.53090673  0.13847570  1
  Al  Al13  1  0.11814305  0.41787004  0.81651089  1
  Al  Al14  1  0.21673276  0.53207516  0.56701788  1
  Al  Al15  1  0.77997928  0.41725532  0.32224745  1
  Al  Al16  1  0.88766068  0.53930240  0.06991315  1
  Al  Al17  1  0.45518372  0.41643212  0.89042219  1
  Al  Al18  1  0.55700573  0.52098756  0.63324823  1
  Al  Al19  1  0.10295353  0.76767132  0.31697320  1
  Al  Al20  1  0.21972601  0.87493247  0.06613961  1
  Al  Al21  1  0.78915058  0.75708536  0.81972052  1
  Al  Al22  1  0.88933035  0.88964643  0.56068095  1
  Al  Al23  1  0.43249757  0.76762428  0.32598827  1
  Al  Al24  1  0.55112207  0.88532998  0.13852310  1
  Al  Al25  1  0.10907994  0.76078447  0.81660361  1
  Al  Al26  1  0.21758326  0.87887610  0.56773909  1
  Al  Al27  1  0.77761331  0.76709684  0.32251979  1
  Al  Al28  1  0.88100626  0.87918190  0.07073795  1
  Al  Al29  1  0.43878371  0.76422051  0.81935063  1
  Al  Al30  1  0.55879185  0.88392618  0.63544831  1
  B  B31  1  0.89808405  0.20607434  0.60240038  1
  B  B32  1  0.55656962  0.20296537  0.14912461  1
  B  B33  1  0.15629335  0.23916454  0.55446999  1
  B  B34  1  0.77844765  0.09641046  0.30454217  1
  B  B35  1  0.50522951  0.22849822  0.65045624  1
  N  N36  1  0.20083592  0.21304389  0.40772142  1
  N  N37  1  0.11500303  0.09467159  0.13436393  1
  N  N38  1  0.88953597  0.20301762  0.89100238  1
  N  N39  1  0.83566738  0.09488557  0.63186744  1
  N  N40  1  0.56110397  0.19974019  0.30819741  1
  N  N41  1  0.46466772  0.10874648  0.08176662  1
  N  N42  1  0.22399501  0.20126330  0.88325928  1
  N  N43  1  0.09765598  0.12571465  0.61866917  1
  N  N44  1  0.86888324  0.19052971  0.35501925  1
  N  N45  1  0.76243035  0.09977240  0.14092626  1
  N  N46  1  0.54597943  0.21100362  0.80065302  1
  N  N47  1  0.48564042  0.10182073  0.58263334  1
  N  N48  1  0.21593456  0.54144837  0.37842771  1
  N  N49  1  0.11085917  0.42529339  0.13616895  1
  N  N50  1  0.89575230  0.53457387  0.87887598  1
  N  N51  1  0.79689938  0.39793235  0.62687074  1
  N  N52  1  0.54921098  0.53659804  0.33764471  1
  N  N53  1  0.46311528  0.39530386  0.08253861  1
  N  N54  1  0.21973716  0.53737500  0.87914998  1
  N  N55  1  0.11623502  0.40203128  0.62231202  1
  N  N56  1  0.88300320  0.54021510  0.38134162  1
  N  N57  1  0.77943429  0.42973516  0.12871632  1
  N  N58  1  0.55577097  0.53243111  0.82907832  1
  N  N59  1  0.45412790  0.39626319  0.58274833  1
  N  N60  1  0.21470884  0.87452062  0.38211717  1
  N  N61  1  0.10978198  0.76187700  0.12767909  1
  N  N62  1  0.88659770  0.87798004  0.88124304  1
  N  N63  1  0.79353988  0.75746878  0.62661219  1
  N  N64  1  0.54518789  0.88485583  0.33590213  1
  N  N65  1  0.43776659  0.76475854  0.12409560  1
  N  N66  1  0.21846941  0.87532655  0.87460293  1
  N  N67  1  0.11627893  0.75389663  0.62719516  1
  N  N68  1  0.87223894  0.90098976  0.36962999  1
  N  N69  1  0.78212343  0.75871678  0.13048904  1
  N  N70  1  0.55836110  0.87441310  0.83226081  1
  N  N71  1  0.44279411  0.76324084  0.62049786  1
