# generated using pymatgen
data_Al31B5N36
_symmetry_space_group_name_H-M   'P 1'
_cell_length_a   9.38445949
_cell_length_b   9.15001137
_cell_length_c   9.92831264
_cell_angle_alpha   89.96820958
_cell_angle_beta   90.54042105
_cell_angle_gamma   60.65782439
_symmetry_Int_Tables_number   1
_chemical_formula_structural   Al31B5N36
_chemical_formula_sum   'Al31 B5 N36'
_cell_volume   743.10604526
_cell_formula_units_Z   1
loop_
 _symmetry_equiv_pos_site_id
 _symmetry_equiv_pos_as_xyz
  1  'x, y, z'
loop_
 _atom_site_type_symbol
 _atom_site_label
 _atom_site_symmetry_multiplicity
 _atom_site_fract_x
 _atom_site_fract_y
 _atom_site_fract_z
 _atom_site_occupancy
  Al  Al0  1  0.11502396  0.09405127  0.34066784  1
  Al  Al1  1  0.21601099  0.20571502  0.09295475  1
  Al  Al2  1  0.77170732  0.09611493  0.88593601  1
  Al  Al3  1  0.44823055  0.10145869  0.39707983  1
  Al  Al4  1  0.11160214  0.10813616  0.80827060  1
  Al  Al5  1  0.87692947  0.20164245  0.14950388  1
  Al  Al6  1  0.44290484  0.09760976  0.89999436  1
  Al  Al7  1  0.10701633  0.43070542  0.40082323  1
  Al  Al8  1  0.21759470  0.53927401  0.15474294  1
  Al  Al9  1  0.77507747  0.42399921  0.89774938  1
  Al  Al10  1  0.89382600  0.52440648  0.65035370  1
  Al  Al11  1  0.44368128  0.42002347  0.39821087  1
  Al  Al12  1  0.55568686  0.52926968  0.15092377  1
  Al  Al13  1  0.10167009  0.43683544  0.90467378  1
  Al  Al14  1  0.22162157  0.52971138  0.65355395  1
  Al  Al15  1  0.77686082  0.41625967  0.40381251  1
  Al  Al16  1  0.88290407  0.54167794  0.15537874  1
  Al  Al17  1  0.43958514  0.42374172  0.90197017  1
  Al  Al18  1  0.55764861  0.52442161  0.65495021  1
  Al  Al19  1  0.11448254  0.76274592  0.40369259  1
  Al  Al20  1  0.22651951  0.86560965  0.15114582  1
  Al  Al21  1  0.77585853  0.76329762  0.90165676  1
  Al  Al22  1  0.89884518  0.87273273  0.64627951  1
  Al  Al23  1  0.45280437  0.75598646  0.40154347  1
  Al  Al24  1  0.55608238  0.88120669  0.15350292  1
  Al  Al25  1  0.10673931  0.76831921  0.90027040  1
  Al  Al26  1  0.23828526  0.86614924  0.64118773  1
  Al  Al27  1  0.77741433  0.77143325  0.40399640  1
  Al  Al28  1  0.88151233  0.88944065  0.15030584  1
  Al  Al29  1  0.43908293  0.76443088  0.90049218  1
  Al  Al30  1  0.55560730  0.87966754  0.65204651  1
  B  B31  1  0.84078297  0.22548490  0.65001678  1
  B  B32  1  0.50124624  0.23217659  0.16453434  1
  B  B33  1  0.22421827  0.20587138  0.57714226  1
  B  B34  1  0.84867331  0.07123453  0.42307157  1
  B  B35  1  0.48898512  0.23561901  0.66443981  1
  N  N36  1  0.22429990  0.20461493  0.38190603  1
  N  N37  1  0.10648007  0.09713276  0.14391049  1
  N  N38  1  0.87305228  0.21029065  0.80312148  1
  N  N39  1  0.83190447  0.09049812  0.57169335  1
  N  N40  1  0.52711130  0.22116382  0.30894403  1
  N  N41  1  0.45181790  0.11149455  0.09534302  1
  N  N42  1  0.21534017  0.20511514  0.89753953  1
  N  N43  1  0.16301458  0.09586158  0.62405720  1
  N  N44  1  0.88136121  0.19117486  0.34593441  1
  N  N45  1  0.77678073  0.09767293  0.07031143  1
  N  N46  1  0.54227288  0.20966643  0.81196861  1
  N  N47  1  0.43871978  0.12036164  0.59630462  1
  N  N48  1  0.21788419  0.54268601  0.34524763  1
  N  N49  1  0.09806469  0.43958816  0.09806204  1
  N  N50  1  0.88481738  0.53801556  0.84090790  1
  N  N51  1  0.78124754  0.40157819  0.59532810  1
  N  N52  1  0.55800764  0.53190740  0.34353069  1
  N  N53  1  0.44269899  0.40825948  0.09461930  1
  N  N54  1  0.21925555  0.53997459  0.84366971  1
  N  N55  1  0.12019128  0.40453721  0.59564095  1
  N  N56  1  0.88391776  0.54004850  0.34857704  1
  N  N57  1  0.77502765  0.42613146  0.09048961  1
  N  N58  1  0.55194405  0.53585947  0.84542427  1
  N  N59  1  0.44833622  0.40065218  0.59703205  1
  N  N60  1  0.23443385  0.86106457  0.34666106  1
  N  N61  1  0.10761573  0.76277540  0.09300125  1
  N  N62  1  0.88819593  0.87103212  0.83489227  1
  N  N63  1  0.78084970  0.76004841  0.59366115  1
  N  N64  1  0.55825859  0.87529207  0.34532556  1
  N  N65  1  0.44531189  0.76115704  0.09294174  1
  N  N66  1  0.22147029  0.87237758  0.83638544  1
  N  N67  1  0.12123840  0.75221325  0.59242318  1
  N  N68  1  0.88566740  0.90198338  0.35409085  1
  N  N69  1  0.77533977  0.76665346  0.09626005  1
  N  N70  1  0.55432149  0.87430994  0.84340597  1
  N  N71  1  0.46042171  0.74732256  0.59214709  1
