# generated using pymatgen
data_Al31B5N36
_symmetry_space_group_name_H-M   'P 1'
_cell_length_a   9.27568493
_cell_length_b   9.16784967
_cell_length_c   10.12845660
_cell_angle_alpha   89.59146474
_cell_angle_beta   90.21138837
_cell_angle_gamma   59.91433565
_symmetry_Int_Tables_number   1
_chemical_formula_structural   Al31B5N36
_chemical_formula_sum   'Al31 B5 N36'
_cell_volume   745.22170536
_cell_formula_units_Z   1
loop_
 _symmetry_equiv_pos_site_id
 _symmetry_equiv_pos_as_xyz
  1  'x, y, z'
loop_
 _atom_site_type_symbol
 _atom_site_label
 _atom_site_symmetry_multiplicity
 _atom_site_fract_x
 _atom_site_fract_y
 _atom_site_fract_z
 _atom_site_occupancy
  Al  Al0  1  0.11116280  0.09026844  0.32644236  1
  Al  Al1  1  0.22058776  0.21030686  0.07283387  1
  Al  Al2  1  0.76963816  0.09892390  0.84297942  1
  Al  Al3  1  0.46099288  0.09457102  0.39879007  1
  Al  Al4  1  0.11999609  0.09850349  0.80207175  1
  Al  Al5  1  0.87282236  0.20644359  0.13500947  1
  Al  Al6  1  0.45179883  0.09621869  0.88657659  1
  Al  Al7  1  0.11477490  0.42426444  0.32706912  1
  Al  Al8  1  0.21773111  0.53800059  0.07268169  1
  Al  Al9  1  0.77952941  0.42946568  0.88884743  1
  Al  Al10  1  0.88644234  0.52895002  0.63610520  1
  Al  Al11  1  0.45904296  0.41116233  0.38495267  1
  Al  Al12  1  0.55388467  0.53458428  0.13860023  1
  Al  Al13  1  0.12419351  0.41647792  0.81498113  1
  Al  Al14  1  0.22191788  0.52971158  0.56820805  1
  Al  Al15  1  0.77590262  0.41034460  0.39531228  1
  Al  Al16  1  0.88049517  0.54035039  0.14400017  1
  Al  Al17  1  0.45172275  0.41905717  0.88954769  1
  Al  Al18  1  0.55176629  0.53188748  0.64093789  1
  Al  Al19  1  0.10314022  0.76926231  0.31898513  1
  Al  Al20  1  0.21192093  0.88119027  0.06749235  1
  Al  Al21  1  0.77692362  0.75442465  0.88639586  1
  Al  Al22  1  0.87922027  0.89797501  0.57254096  1
  Al  Al23  1  0.45213649  0.75518509  0.38720111  1
  Al  Al24  1  0.55440139  0.88118585  0.14022956  1
  Al  Al25  1  0.11004127  0.76210531  0.81394012  1
  Al  Al26  1  0.22459870  0.87790363  0.56855397  1
  Al  Al27  1  0.77073279  0.76273487  0.39037634  1
  Al  Al28  1  0.88308257  0.88156106  0.06328515  1
  Al  Al29  1  0.44640772  0.76180381  0.88711362  1
  Al  Al30  1  0.56176694  0.87964062  0.63861665  1
  B  B31  1  0.82806677  0.23882601  0.66189965  1
  B  B32  1  0.56067036  0.20402996  0.12885163  1
  B  B33  1  0.17974575  0.22360985  0.55675488  1
  B  B34  1  0.77170029  0.09413274  0.33921013  1
  B  B35  1  0.55451448  0.20871831  0.64077292  1
  N  N36  1  0.21236511  0.20867523  0.40445583  1
  N  N37  1  0.11175462  0.09814226  0.13751698  1
  N  N38  1  0.88252480  0.21914177  0.80710376  1
  N  N39  1  0.76705155  0.12250006  0.62941727  1
  N  N40  1  0.58130701  0.19033832  0.30515447  1
  N  N41  1  0.46215788  0.10895193  0.08133899  1
  N  N42  1  0.21797017  0.20478812  0.88802567  1
  N  N43  1  0.15534887  0.09640233  0.62121087  1
  N  N44  1  0.86720355  0.18811314  0.32721517  1
  N  N45  1  0.74571614  0.11600158  0.07023313  1
  N  N46  1  0.54030309  0.21443281  0.80329565  1
  N  N47  1  0.50118314  0.09401405  0.57704357  1
  N  N48  1  0.21770906  0.54247499  0.38001215  1
  N  N49  1  0.11462261  0.42548917  0.13951181  1
  N  N50  1  0.88914690  0.53732535  0.82384868  1
  N  N51  1  0.78332133  0.39959373  0.58623174  1
  N  N52  1  0.55692362  0.53404670  0.32671547  1
  N  N53  1  0.45842750  0.40224852  0.08317166  1
  N  N54  1  0.21722246  0.54095622  0.88069114  1
  N  N55  1  0.12535572  0.39631804  0.62088003  1
  N  N56  1  0.87889703  0.53466081  0.33587498  1
  N  N57  1  0.77703218  0.42754276  0.07532315  1
  N  N58  1  0.55397643  0.53849104  0.82858997  1
  N  N59  1  0.46080996  0.39986330  0.57877616  1
  N  N60  1  0.21909917  0.87034776  0.38075519  1
  N  N61  1  0.10489253  0.76619699  0.13120927  1
  N  N62  1  0.89277184  0.86980699  0.87297372  1
  N  N63  1  0.78734306  0.75181000  0.57755796  1
  N  N64  1  0.55035467  0.87719784  0.32689927  1
  N  N65  1  0.44657367  0.76192557  0.07861562  1
  N  N66  1  0.21140112  0.88138456  0.87596976  1
  N  N67  1  0.11145161  0.76269454  0.62625822  1
  N  N68  1  0.86846510  0.90712652  0.37250394  1
  N  N69  1  0.77397840  0.75798382  0.07850617  1
  N  N70  1  0.55515939  0.87392641  0.82644804  1
  N  N71  1  0.46128760  0.75241109  0.57725316  1
