# generated using pymatgen
data_Al31B5N36
_symmetry_space_group_name_H-M   'P 1'
_cell_length_a   9.26614264
_cell_length_b   9.14865210
_cell_length_c   9.90262602
_cell_angle_alpha   89.97341390
_cell_angle_beta   89.44654167
_cell_angle_gamma   60.10201106
_symmetry_Int_Tables_number   1
_chemical_formula_structural   Al31B5N36
_chemical_formula_sum   'Al31 B5 N36'
_cell_volume   727.70754701
_cell_formula_units_Z   1
loop_
 _symmetry_equiv_pos_site_id
 _symmetry_equiv_pos_as_xyz
  1  'x, y, z'
loop_
 _atom_site_type_symbol
 _atom_site_label
 _atom_site_symmetry_multiplicity
 _atom_site_fract_x
 _atom_site_fract_y
 _atom_site_fract_z
 _atom_site_occupancy
  Al  Al0  1  0.09762484  0.09885085  0.32316507  1
  Al  Al1  1  0.22934463  0.20470864  0.06239887  1
  Al  Al2  1  0.77555563  0.10039762  0.80838415  1
  Al  Al3  1  0.44545900  0.10064348  0.32875449  1
  Al  Al4  1  0.11920911  0.09668366  0.80221043  1
  Al  Al5  1  0.88425426  0.20412762  0.06268976  1
  Al  Al6  1  0.45497855  0.09801267  0.80685107  1
  Al  Al7  1  0.10796982  0.42929603  0.31002901  1
  Al  Al8  1  0.22719402  0.53153649  0.05719323  1
  Al  Al9  1  0.78172220  0.41688792  0.80292886  1
  Al  Al10  1  0.89038706  0.52788976  0.55426714  1
  Al  Al11  1  0.44976858  0.42049114  0.31288952  1
  Al  Al12  1  0.55745911  0.53191876  0.05751622  1
  Al  Al13  1  0.11672790  0.41737506  0.80480627  1
  Al  Al14  1  0.22705945  0.52494768  0.55794237  1
  Al  Al15  1  0.77082451  0.42862472  0.30928445  1
  Al  Al16  1  0.88912828  0.53689552  0.05588603  1
  Al  Al17  1  0.45057541  0.41728928  0.81177367  1
  Al  Al18  1  0.55267530  0.53372907  0.55700213  1
  Al  Al19  1  0.10501329  0.76719354  0.30815489  1
  Al  Al20  1  0.22033248  0.87581611  0.05880608  1
  Al  Al21  1  0.78070040  0.76031495  0.80679165  1
  Al  Al22  1  0.88279011  0.88559091  0.55222999  1
  Al  Al23  1  0.44015942  0.76571690  0.30779126  1
  Al  Al24  1  0.55611756  0.88046971  0.05927860  1
  Al  Al25  1  0.11144779  0.76205839  0.80705624  1
  Al  Al26  1  0.22769360  0.87672599  0.55890481  1
  Al  Al27  1  0.77224796  0.76934805  0.30731865  1
  Al  Al28  1  0.88160290  0.88045524  0.06163106  1
  Al  Al29  1  0.44745781  0.76074196  0.81024590  1
  Al  Al30  1  0.56085557  0.87801567  0.56176074  1
  B  B31  1  0.82197728  0.23217678  0.53487440  1
  B  B32  1  0.55500407  0.20607256  0.10256636  1
  B  B33  1  0.17601326  0.22459670  0.54609311  1
  B  B34  1  0.76217228  0.09791872  0.31103611  1
  B  B35  1  0.56242688  0.20478565  0.58240298  1
  N  N36  1  0.21184309  0.21092424  0.39091478  1
  N  N37  1  0.10693912  0.09933902  0.12896072  1
  N  N38  1  0.89788548  0.19855236  0.87045679  1
  N  N39  1  0.76282501  0.12398451  0.60773933  1
  N  N40  1  0.57941794  0.19484635  0.36403946  1
  N  N41  1  0.45449058  0.10986189  0.12901171  1
  N  N42  1  0.23269302  0.19998855  0.87301642  1
  N  N43  1  0.14410836  0.10148641  0.61277184  1
  N  N44  1  0.86243372  0.20227986  0.38290801  1
  N  N45  1  0.75349743  0.10822070  0.14095162  1
  N  N46  1  0.56393660  0.20262747  0.87999041  1
  N  N47  1  0.48909008  0.09845922  0.61801687  1
  N  N48  1  0.22158359  0.53865535  0.36749374  1
  N  N49  1  0.10933860  0.42808384  0.11985491  1
  N  N50  1  0.89158336  0.53256820  0.86154580  1
  N  N51  1  0.78351902  0.39840207  0.60336970  1
  N  N52  1  0.54980899  0.54317051  0.36749664  1
  N  N53  1  0.45561098  0.40346837  0.11918888  1
  N  N54  1  0.22374805  0.53571951  0.86351908  1
  N  N55  1  0.11758362  0.40029963  0.60958566  1
  N  N56  1  0.88477310  0.54096901  0.36533525  1
  N  N57  1  0.77627594  0.42759945  0.11953691  1
  N  N58  1  0.55942125  0.53465094  0.86541381  1
  N  N59  1  0.45640582  0.40132197  0.61407314  1
  N  N60  1  0.21935201  0.87338485  0.36937868  1
  N  N61  1  0.10980073  0.76101772  0.11626079  1
  N  N62  1  0.88920821  0.87516020  0.86758855  1
  N  N63  1  0.78803998  0.75309119  0.61476133  1
  N  N64  1  0.55256502  0.87325037  0.37096328  1
  N  N65  1  0.44348530  0.76271741  0.11590352  1
  N  N66  1  0.22357275  0.87311705  0.86643667  1
  N  N67  1  0.11068938  0.76196555  0.61427731  1
  N  N68  1  0.87289300  0.89985246  0.35939153  1
  N  N69  1  0.77683591  0.76134213  0.11649156  1
  N  N70  1  0.55853805  0.87243656  0.86802984  1
  N  N71  1  0.45174448  0.75699638  0.61929292  1
