# generated using pymatgen
data_Al31B5N36
_symmetry_space_group_name_H-M   'P 1'
_cell_length_a   9.37427001
_cell_length_b   9.15956700
_cell_length_c   9.88863648
_cell_angle_alpha   89.94046288
_cell_angle_beta   90.43772708
_cell_angle_gamma   60.52666936
_symmetry_Int_Tables_number   1
_chemical_formula_structural   Al31B5N36
_chemical_formula_sum   'Al31 B5 N36'
_cell_volume   739.16369612
_cell_formula_units_Z   1
loop_
 _symmetry_equiv_pos_site_id
 _symmetry_equiv_pos_as_xyz
  1  'x, y, z'
loop_
 _atom_site_type_symbol
 _atom_site_label
 _atom_site_symmetry_multiplicity
 _atom_site_fract_x
 _atom_site_fract_y
 _atom_site_fract_z
 _atom_site_occupancy
  Al  Al0  1  0.11383273  0.09503753  0.33659881  1
  Al  Al1  1  0.21925978  0.20814949  0.11787108  1
  Al  Al2  1  0.76653048  0.09832923  0.88789461  1
  Al  Al3  1  0.44363440  0.10515071  0.38983393  1
  Al  Al4  1  0.11030781  0.10711435  0.81460980  1
  Al  Al5  1  0.87356686  0.20289895  0.14900951  1
  Al  Al6  1  0.44049829  0.09758212  0.90336991  1
  Al  Al7  1  0.11196061  0.42342814  0.39642878  1
  Al  Al8  1  0.21955661  0.53829251  0.15453105  1
  Al  Al9  1  0.77516793  0.42483832  0.89764025  1
  Al  Al10  1  0.89434135  0.52345056  0.64957804  1
  Al  Al11  1  0.44679673  0.41729736  0.39622731  1
  Al  Al12  1  0.55512385  0.53071458  0.15031523  1
  Al  Al13  1  0.10318860  0.43345680  0.90766581  1
  Al  Al14  1  0.22217335  0.53015893  0.65244755  1
  Al  Al15  1  0.77706937  0.41649469  0.40379563  1
  Al  Al16  1  0.88338479  0.54163364  0.15576294  1
  Al  Al17  1  0.43892861  0.42459676  0.90198460  1
  Al  Al18  1  0.55773492  0.52470413  0.65441534  1
  Al  Al19  1  0.11472409  0.76256363  0.40284452  1
  Al  Al20  1  0.22447477  0.86672508  0.14868704  1
  Al  Al21  1  0.77573965  0.76262800  0.90147752  1
  Al  Al22  1  0.89804888  0.87387447  0.64726353  1
  Al  Al23  1  0.45226550  0.75656653  0.40077427  1
  Al  Al24  1  0.55586852  0.88092535  0.15303692  1
  Al  Al25  1  0.10636891  0.76703930  0.90025642  1
  Al  Al26  1  0.23798805  0.86605551  0.64184845  1
  Al  Al27  1  0.77760574  0.77152396  0.40397127  1
  Al  Al28  1  0.87904979  0.88998292  0.15147831  1
  Al  Al29  1  0.43917879  0.76457286  0.90012369  1
  Al  Al30  1  0.55502716  0.87907661  0.65145155  1
  B  B31  1  0.83968215  0.22521253  0.65125160  1
  B  B32  1  0.52428893  0.22063139  0.16016099  1
  B  B33  1  0.23193668  0.20515219  0.60711437  1
  B  B34  1  0.84506106  0.07305759  0.42240974  1
  B  B35  1  0.48766440  0.23808323  0.66471711  1
  N  N36  1  0.22655482  0.20873969  0.33382206  1
  N  N37  1  0.10012330  0.09533109  0.13498276  1
  N  N38  1  0.87174906  0.20961190  0.80535415  1
  N  N39  1  0.83056318  0.09114252  0.57253166  1
  N  N40  1  0.53842159  0.21605591  0.31026234  1
  N  N41  1  0.45696126  0.10921095  0.09533037  1
  N  N42  1  0.21552114  0.20448860  0.89835029  1
  N  N43  1  0.16362891  0.09682953  0.62432663  1
  N  N44  1  0.88107244  0.19175999  0.34617277  1
  N  N45  1  0.75815463  0.10615925  0.07698265  1
  N  N46  1  0.54061355  0.20939428  0.81142347  1
  N  N47  1  0.42879981  0.12557946  0.59681260  1
  N  N48  1  0.21972084  0.54161806  0.34626507  1
  N  N49  1  0.09733656  0.44257891  0.09792763  1
  N  N50  1  0.88603146  0.53736438  0.84017513  1
  N  N51  1  0.78192839  0.40077825  0.59605688  1
  N  N52  1  0.55825515  0.53269786  0.34360656  1
  N  N53  1  0.44553831  0.40816756  0.09437605  1
  N  N54  1  0.21841705  0.53940405  0.84292707  1
  N  N55  1  0.12518644  0.39826531  0.59461653  1
  N  N56  1  0.88523396  0.53937408  0.35042179  1
  N  N57  1  0.77470066  0.42700269  0.09052267  1
  N  N58  1  0.55177836  0.53609123  0.84486725  1
  N  N59  1  0.44951510  0.40023656  0.59647706  1
  N  N60  1  0.23353641  0.86271916  0.34623154  1
  N  N61  1  0.10545112  0.76354409  0.09317735  1
  N  N62  1  0.88653896  0.87341205  0.83718173  1
  N  N63  1  0.78114517  0.76043709  0.59436001  1
  N  N64  1  0.55789587  0.87568505  0.34622724  1
  N  N65  1  0.44464838  0.76185387  0.09277316  1
  N  N66  1  0.22104444  0.87141715  0.83632290  1
  N  N67  1  0.12066802  0.75287579  0.59256721  1
  N  N68  1  0.88558788  0.90193230  0.35421259  1
  N  N69  1  0.77523659  0.76606976  0.09651744  1
  N  N70  1  0.55391551  0.87456295  0.84266173  1
  N  N71  1  0.45989056  0.74758464  0.59196268  1
