# generated using pymatgen
data_Al31B5N36
_symmetry_space_group_name_H-M   'P 1'
_cell_length_a   9.29710110
_cell_length_b   9.16182524
_cell_length_c   9.92727951
_cell_angle_alpha   90.05840929
_cell_angle_beta   89.59770192
_cell_angle_gamma   60.34880190
_symmetry_Int_Tables_number   1
_chemical_formula_structural   Al31B5N36
_chemical_formula_sum   'Al31 B5 N36'
_cell_volume   734.83471324
_cell_formula_units_Z   1
loop_
 _symmetry_equiv_pos_site_id
 _symmetry_equiv_pos_as_xyz
  1  'x, y, z'
loop_
 _atom_site_type_symbol
 _atom_site_label
 _atom_site_symmetry_multiplicity
 _atom_site_fract_x
 _atom_site_fract_y
 _atom_site_fract_z
 _atom_site_occupancy
  Al  Al0  1  0.09947268  0.09885419  0.32175179  1
  Al  Al1  1  0.23709945  0.20283533  0.06396974  1
  Al  Al2  1  0.78903173  0.09432881  0.79879687  1
  Al  Al3  1  0.44651238  0.10791211  0.39436447  1
  Al  Al4  1  0.11558607  0.09708322  0.80420723  1
  Al  Al5  1  0.88702784  0.20397221  0.06485092  1
  Al  Al6  1  0.44349502  0.09011961  0.80357833  1
  Al  Al7  1  0.10631248  0.42970658  0.30969409  1
  Al  Al8  1  0.22834526  0.53100014  0.05969269  1
  Al  Al9  1  0.78097616  0.41721132  0.80309987  1
  Al  Al10  1  0.88897045  0.52800849  0.55442391  1
  Al  Al11  1  0.44374477  0.43036047  0.30783244  1
  Al  Al12  1  0.55770462  0.53185551  0.06018131  1
  Al  Al13  1  0.11343766  0.41918215  0.80659572  1
  Al  Al14  1  0.22271819  0.52805665  0.55635931  1
  Al  Al15  1  0.77002705  0.42910352  0.30965418  1
  Al  Al16  1  0.88980749  0.53619920  0.05784998  1
  Al  Al17  1  0.44105041  0.43242770  0.81069712  1
  Al  Al18  1  0.55303314  0.53011849  0.55532761  1
  Al  Al19  1  0.10477692  0.76840204  0.30734854  1
  Al  Al20  1  0.22181596  0.87604082  0.06019938  1
  Al  Al21  1  0.78269444  0.75890904  0.80866525  1
  Al  Al22  1  0.88834208  0.88332627  0.55064506  1
  Al  Al23  1  0.44017648  0.76989969  0.30754176  1
  Al  Al24  1  0.55689611  0.88340218  0.05886780  1
  Al  Al25  1  0.10993110  0.76235038  0.80820168  1
  Al  Al26  1  0.22749166  0.87645832  0.55984464  1
  Al  Al27  1  0.76945160  0.77246453  0.30670630  1
  Al  Al28  1  0.88409524  0.87954744  0.06303193  1
  Al  Al29  1  0.44647388  0.75823327  0.81123080  1
  Al  Al30  1  0.56849704  0.86333018  0.56639372  1
  B  B31  1  0.82784363  0.22530393  0.53465872  1
  B  B32  1  0.55578652  0.19558904  0.15375898  1
  B  B33  1  0.16614894  0.22917093  0.54946735  1
  B  B34  1  0.77355698  0.09455546  0.30491306  1
  B  B35  1  0.53667856  0.21760146  0.64456894  1
  N  N36  1  0.20540298  0.21546222  0.39642439  1
  N  N37  1  0.11031506  0.09950983  0.12855189  1
  N  N38  1  0.89546708  0.20074806  0.87321432  1
  N  N39  1  0.79554172  0.10767655  0.60878772  1
  N  N40  1  0.57429797  0.19499249  0.31845638  1
  N  N41  1  0.46077596  0.10830054  0.10799257  1
  N  N42  1  0.22870832  0.20162865  0.87202642  1
  N  N43  1  0.14569114  0.10044287  0.61620364  1
  N  N44  1  0.86218376  0.20208197  0.37990073  1
  N  N45  1  0.76765006  0.10133040  0.14050956  1
  N  N46  1  0.56050147  0.20284773  0.80150403  1
  N  N47  1  0.48151459  0.09916874  0.59523105  1
  N  N48  1  0.21910428  0.54035498  0.36672996  1
  N  N49  1  0.11008058  0.42695009  0.12027701  1
  N  N50  1  0.89040842  0.53288699  0.86341693  1
  N  N51  1  0.78212038  0.39818647  0.60315814  1
  N  N52  1  0.54901163  0.54523686  0.36687170  1
  N  N53  1  0.45384513  0.40750258  0.11685711  1
  N  N54  1  0.22060040  0.53703424  0.86596409  1
  N  N55  1  0.11421157  0.40267179  0.61213935  1
  N  N56  1  0.88344979  0.54305286  0.36575940  1
  N  N57  1  0.77663942  0.42768758  0.12048984  1
  N  N58  1  0.56010313  0.53375385  0.86757948  1
  N  N59  1  0.44718117  0.40919978  0.61288078  1
  N  N60  1  0.21980008  0.87413093  0.37013330  1
  N  N61  1  0.11140103  0.76072644  0.11648794  1
  N  N62  1  0.88817378  0.87644402  0.86930232  1
  N  N63  1  0.79130046  0.75238445  0.61720356  1
  N  N64  1  0.55319479  0.87394441  0.37633542  1
  N  N65  1  0.44497790  0.76391432  0.11549629  1
  N  N66  1  0.22318484  0.87293064  0.86707079  1
  N  N67  1  0.11318571  0.75894600  0.61540227  1
  N  N68  1  0.87347695  0.89992070  0.35874258  1
  N  N69  1  0.77752391  0.76093619  0.11608000  1
  N  N70  1  0.55944004  0.86973276  0.86348370  1
  N  N71  1  0.45134887  0.75270639  0.62078028  1
