# generated using pymatgen
data_Al31B5N36
_symmetry_space_group_name_H-M   'P 1'
_cell_length_a   9.33247234
_cell_length_b   9.15376134
_cell_length_c   9.79074518
_cell_angle_alpha   90.17513005
_cell_angle_beta   90.48134680
_cell_angle_gamma   60.43391275
_symmetry_Int_Tables_number   1
_chemical_formula_structural   Al31B5N36
_chemical_formula_sum   'Al31 B5 N36'
_cell_volume   727.46040165
_cell_formula_units_Z   1
loop_
 _symmetry_equiv_pos_site_id
 _symmetry_equiv_pos_as_xyz
  1  'x, y, z'
loop_
 _atom_site_type_symbol
 _atom_site_label
 _atom_site_symmetry_multiplicity
 _atom_site_fract_x
 _atom_site_fract_y
 _atom_site_fract_z
 _atom_site_occupancy
  Al  Al0  1  0.12018682  0.09498284  0.41130254  1
  Al  Al1  1  0.22102362  0.20633697  0.14444463  1
  Al  Al2  1  0.76051645  0.10172500  0.88976882  1
  Al  Al3  1  0.44628968  0.10466451  0.39664218  1
  Al  Al4  1  0.10143144  0.10042356  0.86670961  1
  Al  Al5  1  0.88197182  0.20143213  0.14871611  1
  Al  Al6  1  0.43810882  0.09895420  0.89446432  1
  Al  Al7  1  0.11339232  0.42153059  0.40199507  1
  Al  Al8  1  0.22217204  0.53593561  0.15062321  1
  Al  Al9  1  0.77384362  0.42638747  0.89735677  1
  Al  Al10  1  0.89261042  0.52558435  0.64917457  1
  Al  Al11  1  0.44968789  0.41302857  0.39446303  1
  Al  Al12  1  0.55466825  0.53232077  0.15015017  1
  Al  Al13  1  0.10725601  0.42878339  0.89711851  1
  Al  Al14  1  0.22189419  0.53087751  0.65080228  1
  Al  Al15  1  0.77890050  0.41516260  0.40161026  1
  Al  Al16  1  0.88722404  0.53900143  0.15250165  1
  Al  Al17  1  0.43978321  0.42608282  0.90128988  1
  Al  Al18  1  0.55652193  0.52540925  0.65164568  1
  Al  Al19  1  0.11473053  0.76259249  0.39964751  1
  Al  Al20  1  0.21782300  0.87951594  0.14823161  1
  Al  Al21  1  0.77577992  0.76282872  0.90085127  1
  Al  Al22  1  0.89609849  0.87581662  0.64627872  1
  Al  Al23  1  0.44957555  0.75823388  0.39898285  1
  Al  Al24  1  0.55360980  0.88147483  0.15085719  1
  Al  Al25  1  0.10580789  0.76663460  0.90118083  1
  Al  Al26  1  0.23358595  0.87060188  0.64608047  1
  Al  Al27  1  0.77724685  0.77010834  0.40278961  1
  Al  Al28  1  0.87585178  0.89039990  0.15402230  1
  Al  Al29  1  0.44098011  0.76303088  0.90045773  1
  Al  Al30  1  0.55573148  0.87960588  0.64948719  1
  B  B31  1  0.84274021  0.22354720  0.65210080  1
  B  B32  1  0.54496799  0.21196478  0.15392422  1
  B  B33  1  0.21380513  0.21147958  0.65460499  1
  B  B34  1  0.83988518  0.07483619  0.41918904  1
  B  B35  1  0.49300871  0.23355044  0.66295842  1
  N  N36  1  0.22319493  0.20375804  0.33515861  1
  N  N37  1  0.10066302  0.10117466  0.07551857  1
  N  N38  1  0.87170710  0.20865294  0.80916461  1
  N  N39  1  0.82710091  0.09321335  0.57152273  1
  N  N40  1  0.54709872  0.20837791  0.31004458  1
  N  N41  1  0.44848451  0.11052705  0.08846011  1
  N  N42  1  0.22057979  0.21050277  0.81957519  1
  N  N43  1  0.15465912  0.09643359  0.59984330  1
  N  N44  1  0.89327539  0.18591825  0.34504662  1
  N  N45  1  0.74426515  0.11407367  0.08514984  1
  N  N46  1  0.54164589  0.21145705  0.81317694  1
  N  N47  1  0.44338514  0.11811104  0.59739161  1
  N  N48  1  0.22050978  0.53892957  0.34422902  1
  N  N49  1  0.10529681  0.43068068  0.08915522  1
  N  N50  1  0.88557422  0.53772947  0.84132782  1
  N  N51  1  0.78292950  0.39985978  0.59615512  1
  N  N52  1  0.55815177  0.53232741  0.34411415  1
  N  N53  1  0.44921458  0.40772276  0.09382022  1
  N  N54  1  0.21886346  0.54149288  0.84347279  1
  N  N55  1  0.12064101  0.40199039  0.59757678  1
  N  N56  1  0.88788423  0.53774071  0.34821786  1
  N  N57  1  0.77555885  0.42634276  0.09149196  1
  N  N58  1  0.55188589  0.53710463  0.84385209  1
  N  N59  1  0.44957823  0.39961000  0.59538736  1
  N  N60  1  0.22679856  0.87317367  0.34338853  1
  N  N61  1  0.10289822  0.76692934  0.09570352  1
  N  N62  1  0.88499535  0.87667645  0.83929440  1
  N  N63  1  0.78189539  0.75927406  0.59443336  1
  N  N64  1  0.55677162  0.87596993  0.34516716  1
  N  N65  1  0.44185785  0.76298929  0.09415899  1
  N  N66  1  0.22250195  0.86987957  0.83777911  1
  N  N67  1  0.11986506  0.75433549  0.59160943  1
  N  N68  1  0.88392777  0.90112717  0.35373064  1
  N  N69  1  0.77588509  0.76498149  0.09658529  1
  N  N70  1  0.55415755  0.87348443  0.84266368  1
  N  N71  1  0.45698101  0.74957795  0.59184327  1
