# generated using pymatgen
data_Al31B5N36
_symmetry_space_group_name_H-M   'P 1'
_cell_length_a   9.30288533
_cell_length_b   9.22786252
_cell_length_c   10.08635325
_cell_angle_alpha   89.50089110
_cell_angle_beta   90.29467488
_cell_angle_gamma   59.78116654
_symmetry_Int_Tables_number   1
_chemical_formula_structural   Al31B5N36
_chemical_formula_sum   'Al31 B5 N36'
_cell_volume   748.13300226
_cell_formula_units_Z   1
loop_
 _symmetry_equiv_pos_site_id
 _symmetry_equiv_pos_as_xyz
  1  'x, y, z'
loop_
 _atom_site_type_symbol
 _atom_site_label
 _atom_site_symmetry_multiplicity
 _atom_site_fract_x
 _atom_site_fract_y
 _atom_site_fract_z
 _atom_site_occupancy
  Al  Al0  1  0.10119632  0.09402794  0.32056449  1
  Al  Al1  1  0.22351962  0.20793411  0.07085452  1
  Al  Al2  1  0.78496597  0.09860034  0.80817924  1
  Al  Al3  1  0.45057977  0.10151245  0.40156808  1
  Al  Al4  1  0.10417987  0.10238424  0.82309440  1
  Al  Al5  1  0.88481413  0.20099509  0.09911791  1
  Al  Al6  1  0.45580881  0.09360181  0.88859654  1
  Al  Al7  1  0.11106152  0.42750555  0.32752618  1
  Al  Al8  1  0.22019287  0.53549843  0.07199021  1
  Al  Al9  1  0.77738365  0.42854287  0.89641413  1
  Al  Al10  1  0.88733868  0.53554240  0.60079691  1
  Al  Al11  1  0.45411632  0.41124233  0.38788791  1
  Al  Al12  1  0.55547627  0.52630535  0.14455133  1
  Al  Al13  1  0.11553256  0.41922616  0.81520769  1
  Al  Al14  1  0.21852349  0.53416634  0.56784090  1
  Al  Al15  1  0.77658079  0.40921477  0.38433559  1
  Al  Al16  1  0.88396204  0.54052260  0.13063433  1
  Al  Al17  1  0.45389705  0.41609688  0.89048919  1
  Al  Al18  1  0.56610009  0.51407020  0.63804098  1
  Al  Al19  1  0.10185465  0.76977352  0.31610669  1
  Al  Al20  1  0.22475536  0.87275604  0.06488827  1
  Al  Al21  1  0.77751709  0.75530672  0.88878458  1
  Al  Al22  1  0.89358514  0.89642406  0.55920604  1
  Al  Al23  1  0.43433871  0.76603059  0.32514369  1
  Al  Al24  1  0.55606287  0.88440582  0.14231685  1
  Al  Al25  1  0.10669930  0.76151584  0.81607950  1
  Al  Al26  1  0.22330668  0.87686290  0.56907942  1
  Al  Al27  1  0.76837177  0.77253543  0.38536197  1
  Al  Al28  1  0.88438422  0.88277211  0.06787857  1
  Al  Al29  1  0.44085737  0.76123188  0.81634764  1
  Al  Al30  1  0.56750219  0.88190037  0.64073795  1
  B  B31  1  0.90278801  0.20634230  0.60488930  1
  B  B32  1  0.55191048  0.20358844  0.14703990  1
  B  B33  1  0.15873238  0.23875275  0.55459611  1
  B  B34  1  0.77585559  0.09368306  0.29613371  1
  B  B35  1  0.50358800  0.22931913  0.65088847  1
  N  N36  1  0.20167783  0.21133310  0.40863606  1
  N  N37  1  0.12198151  0.09145397  0.13355927  1
  N  N38  1  0.89159957  0.19576992  0.89591761  1
  N  N39  1  0.83510681  0.10036146  0.63074490  1
  N  N40  1  0.55781730  0.20110754  0.30732408  1
  N  N41  1  0.46256768  0.10897166  0.08130616  1
  N  N42  1  0.22197113  0.20297987  0.88291606  1
  N  N43  1  0.09734219  0.12786449  0.61995431  1
  N  N44  1  0.86975420  0.19237389  0.32449165  1
  N  N45  1  0.75543707  0.09706452  0.13749323  1
  N  N46  1  0.54453505  0.21136873  0.80051976  1
  N  N47  1  0.48456663  0.10243854  0.58379630  1
  N  N48  1  0.21498183  0.54428431  0.38005502  1
  N  N49  1  0.11590462  0.42311100  0.13966255  1
  N  N50  1  0.88849919  0.53532837  0.83653649  1
  N  N51  1  0.79482102  0.39517331  0.57933261  1
  N  N52  1  0.55256523  0.53259717  0.33710137  1
  N  N53  1  0.46172117  0.39663959  0.08312483  1
  N  N54  1  0.21777043  0.53749770  0.87904085  1
  N  N55  1  0.12191402  0.40054895  0.61924174  1
  N  N56  1  0.88078027  0.53934808  0.35307665  1
  N  N57  1  0.77046771  0.43532693  0.08554060  1
  N  N58  1  0.56017046  0.52689702  0.82767373  1
  N  N59  1  0.45570412  0.39664729  0.58316240  1
  N  N60  1  0.21623124  0.87394584  0.38350665  1
  N  N61  1  0.11055805  0.76282308  0.12752138  1
  N  N62  1  0.88634873  0.87906173  0.87703925  1
  N  N63  1  0.78547333  0.76533849  0.57654966  1
  N  N64  1  0.54607290  0.88584936  0.33342878  1
  N  N65  1  0.44126678  0.76227399  0.12806707  1
  N  N66  1  0.22110460  0.87272221  0.87369472  1
  N  N67  1  0.11705167  0.75575070  0.62711846  1
  N  N68  1  0.87173277  0.90621721  0.36523098  1
  N  N69  1  0.77427896  0.76148106  0.08268323  1
  N  N70  1  0.55833902  0.87492634  0.83034421  1
  N  N71  1  0.44951496  0.75982272  0.62082498  1
