# generated using pymatgen
data_Al31B5N36
_symmetry_space_group_name_H-M   'P 1'
_cell_length_a   9.28125214
_cell_length_b   9.15661734
_cell_length_c   9.92717548
_cell_angle_alpha   89.97306832
_cell_angle_beta   89.50371583
_cell_angle_gamma   60.15549566
_symmetry_Int_Tables_number   1
_chemical_formula_structural   Al31B5N36
_chemical_formula_sum   'Al31 B5 N36'
_cell_volume   731.73827750
_cell_formula_units_Z   1
loop_
 _symmetry_equiv_pos_site_id
 _symmetry_equiv_pos_as_xyz
  1  'x, y, z'
loop_
 _atom_site_type_symbol
 _atom_site_label
 _atom_site_symmetry_multiplicity
 _atom_site_fract_x
 _atom_site_fract_y
 _atom_site_fract_z
 _atom_site_occupancy
  Al  Al0  1  0.09766302  0.09861124  0.32233490  1
  Al  Al1  1  0.23164819  0.20391593  0.06266488  1
  Al  Al2  1  0.78085364  0.09829216  0.80743686  1
  Al  Al3  1  0.44091302  0.09802838  0.33078203  1
  Al  Al4  1  0.11934857  0.09679174  0.80246851  1
  Al  Al5  1  0.88644955  0.20363306  0.06213169  1
  Al  Al6  1  0.45131365  0.09638517  0.80320461  1
  Al  Al7  1  0.10698088  0.42949700  0.30955669  1
  Al  Al8  1  0.22917560  0.52996710  0.05750284  1
  Al  Al9  1  0.78132912  0.41731054  0.80296470  1
  Al  Al10  1  0.88993140  0.52783853  0.55424102  1
  Al  Al11  1  0.44364337  0.43038674  0.31147185  1
  Al  Al12  1  0.55734918  0.53068876  0.05779979  1
  Al  Al13  1  0.11601187  0.41795168  0.80524690  1
  Al  Al14  1  0.22597208  0.52522973  0.55817119  1
  Al  Al15  1  0.77036234  0.42863491  0.30890866  1
  Al  Al16  1  0.88921681  0.53684382  0.05600304  1
  Al  Al17  1  0.44714333  0.42383238  0.81122530  1
  Al  Al18  1  0.55243783  0.53432205  0.55735072  1
  Al  Al19  1  0.10467169  0.76764245  0.30775816  1
  Al  Al20  1  0.22114263  0.87528077  0.05918415  1
  Al  Al21  1  0.78049275  0.76058364  0.80705738  1
  Al  Al22  1  0.88256321  0.88537652  0.55225751  1
  Al  Al23  1  0.44032377  0.76588287  0.30712134  1
  Al  Al24  1  0.55563507  0.88172833  0.05958256  1
  Al  Al25  1  0.11141648  0.76227636  0.80714956  1
  Al  Al26  1  0.22760393  0.87691374  0.55909659  1
  Al  Al27  1  0.77219591  0.76931015  0.30666773  1
  Al  Al28  1  0.88397168  0.87884917  0.06085025  1
  Al  Al29  1  0.44745061  0.76123248  0.81066654  1
  Al  Al30  1  0.56139644  0.87692927  0.56145635  1
  B  B31  1  0.81953938  0.23203829  0.53436551  1
  B  B32  1  0.55896524  0.20229495  0.15423414  1
  B  B33  1  0.17514035  0.22489891  0.54680034  1
  B  B34  1  0.77360249  0.09311872  0.30576389  1
  B  B35  1  0.56075005  0.20657522  0.61994077  1
  N  N36  1  0.20938827  0.21185204  0.39180486  1
  N  N37  1  0.10829626  0.09900688  0.12881059  1
  N  N38  1  0.89864328  0.19931092  0.87019606  1
  N  N39  1  0.76250716  0.12300890  0.60660982  1
  N  N40  1  0.57697841  0.19587511  0.31976341  1
  N  N41  1  0.45219151  0.10627772  0.13162159  1
  N  N42  1  0.23207789  0.20058719  0.87288226  1
  N  N43  1  0.14431907  0.10122754  0.61336374  1
  N  N44  1  0.86122470  0.20113382  0.38254894  1
  N  N45  1  0.76674538  0.10151791  0.13996131  1
  N  N46  1  0.56372772  0.20390034  0.84705480  1
  N  N47  1  0.48495050  0.09916320  0.61175058  1
  N  N48  1  0.21899907  0.54014718  0.36837383  1
  N  N49  1  0.10952458  0.42780882  0.11974491  1
  N  N50  1  0.89117516  0.53296564  0.86162779  1
  N  N51  1  0.78277787  0.39785139  0.60289974  1
  N  N52  1  0.55008231  0.54384621  0.36856508  1
  N  N53  1  0.45435290  0.40624266  0.11977963  1
  N  N54  1  0.22244311  0.53673751  0.86369230  1
  N  N55  1  0.11669166  0.40068060  0.61005580  1
  N  N56  1  0.88431596  0.54095790  0.36545066  1
  N  N57  1  0.77662360  0.42715878  0.11960073  1
  N  N58  1  0.55975725  0.53570228  0.86563472  1
  N  N59  1  0.45461287  0.40407118  0.61303592  1
  N  N60  1  0.21959195  0.87334829  0.36948090  1
  N  N61  1  0.11115104  0.75979016  0.11645010  1
  N  N62  1  0.88984302  0.87467618  0.86736133  1
  N  N63  1  0.78776094  0.75324380  0.61502822  1
  N  N64  1  0.55375022  0.87145191  0.37179824  1
  N  N65  1  0.44427110  0.76203502  0.11578365  1
  N  N66  1  0.22367746  0.87320015  0.86667055  1
  N  N67  1  0.11033245  0.76238860  0.61445970  1
  N  N68  1  0.87299831  0.90003327  0.35995906  1
  N  N69  1  0.77716580  0.76150426  0.11621067  1
  N  N70  1  0.55850825  0.87305025  0.86770245  1
  N  N71  1  0.45140575  0.75726871  0.61973018  1
