# generated using pymatgen
data_Al31B5N36
_symmetry_space_group_name_H-M   'P 1'
_cell_length_a   9.28681422
_cell_length_b   9.18395608
_cell_length_c   10.10897951
_cell_angle_alpha   89.48557793
_cell_angle_beta   90.19062293
_cell_angle_gamma   59.83714455
_symmetry_Int_Tables_number   1
_chemical_formula_structural   Al31B5N36
_chemical_formula_sum   'Al31 B5 N36'
_cell_volume   745.39094755
_cell_formula_units_Z   1
loop_
 _symmetry_equiv_pos_site_id
 _symmetry_equiv_pos_as_xyz
  1  'x, y, z'
loop_
 _atom_site_type_symbol
 _atom_site_label
 _atom_site_symmetry_multiplicity
 _atom_site_fract_x
 _atom_site_fract_y
 _atom_site_fract_z
 _atom_site_occupancy
  Al  Al0  1  0.10129957  0.09369919  0.32035931  1
  Al  Al1  1  0.22478610  0.20730021  0.07124377  1
  Al  Al2  1  0.78462999  0.09868246  0.80714518  1
  Al  Al3  1  0.45238744  0.09982255  0.40004324  1
  Al  Al4  1  0.10295332  0.10358527  0.82153649  1
  Al  Al5  1  0.88365366  0.20313323  0.09856328  1
  Al  Al6  1  0.45772132  0.09183165  0.88820001  1
  Al  Al7  1  0.11337053  0.42634436  0.32603858  1
  Al  Al8  1  0.22135533  0.53472274  0.07271269  1
  Al  Al9  1  0.77778640  0.42937180  0.89637379  1
  Al  Al10  1  0.88282141  0.53706916  0.63447358  1
  Al  Al11  1  0.45523257  0.41209501  0.38607767  1
  Al  Al12  1  0.55347870  0.53433966  0.14293442  1
  Al  Al13  1  0.12253705  0.41596116  0.81606323  1
  Al  Al14  1  0.21756537  0.53380263  0.56628254  1
  Al  Al15  1  0.77823196  0.41183222  0.38520711  1
  Al  Al16  1  0.88077541  0.54188758  0.14529455  1
  Al  Al17  1  0.45531794  0.41628523  0.89042975  1
  Al  Al18  1  0.56236047  0.51984748  0.63781998  1
  Al  Al19  1  0.10229532  0.77055627  0.31610966  1
  Al  Al20  1  0.21895777  0.87571817  0.06412604  1
  Al  Al21  1  0.77785438  0.75412082  0.88940995  1
  Al  Al22  1  0.89054255  0.89567842  0.55848658  1
  Al  Al23  1  0.44588457  0.76030845  0.38956204  1
  Al  Al24  1  0.55387038  0.87886190  0.14077187  1
  Al  Al25  1  0.10565180  0.76155989  0.81502881  1
  Al  Al26  1  0.21440267  0.88202801  0.57361417  1
  Al  Al27  1  0.77090950  0.76723957  0.38568793  1
  Al  Al28  1  0.88348620  0.88155513  0.06784557  1
  Al  Al29  1  0.44816245  0.75781742  0.87317709  1
  Al  Al30  1  0.56543007  0.87842915  0.63922712  1
  B  B31  1  0.90018151  0.20873772  0.60387280  1
  B  B32  1  0.55323575  0.20304417  0.14607717  1
  B  B33  1  0.15530455  0.24209091  0.55424093  1
  B  B34  1  0.77560661  0.09399452  0.29597472  1
  B  B35  1  0.50517343  0.22857257  0.64880983  1
  N  N36  1  0.20151524  0.21179567  0.40922145  1
  N  N37  1  0.12144504  0.09174355  0.13393597  1
  N  N38  1  0.89053723  0.19713475  0.89461163  1
  N  N39  1  0.83375261  0.10093279  0.62964294  1
  N  N40  1  0.55812280  0.20104624  0.30611339  1
  N  N41  1  0.46464502  0.10646234  0.08066191  1
  N  N42  1  0.22316437  0.20104956  0.88364993  1
  N  N43  1  0.09455147  0.13065510  0.62034825  1
  N  N44  1  0.86863560  0.19415603  0.32511678  1
  N  N45  1  0.75663008  0.09661289  0.13734990  1
  N  N46  1  0.54402851  0.21184252  0.79913127  1
  N  N47  1  0.48888527  0.09941060  0.58178995  1
  N  N48  1  0.21572964  0.54429877  0.37945247  1
  N  N49  1  0.11682962  0.42254558  0.13844490  1
  N  N50  1  0.88754580  0.53575613  0.82338139  1
  N  N51  1  0.79410039  0.39905438  0.57901182  1
  N  N52  1  0.55187178  0.53755268  0.33319487  1
  N  N53  1  0.46362369  0.39728551  0.08273144  1
  N  N54  1  0.21858143  0.53796687  0.88020802  1
  N  N55  1  0.12176568  0.40114977  0.62042976  1
  N  N56  1  0.87905712  0.54016513  0.33482491  1
  N  N57  1  0.77117705  0.43755546  0.08274965  1
  N  N58  1  0.55946890  0.53084405  0.82465330  1
  N  N59  1  0.45602989  0.39752958  0.58162746  1
  N  N60  1  0.21327512  0.87565097  0.38531710  1
  N  N61  1  0.11009152  0.76292843  0.12797909  1
  N  N62  1  0.88535806  0.87879511  0.87662885  1
  N  N63  1  0.78617765  0.75925176  0.57509659  1
  N  N64  1  0.54591334  0.88125551  0.32999429  1
  N  N65  1  0.44904396  0.75877495  0.07825705  1
  N  N66  1  0.21574510  0.87565484  0.86912247  1
  N  N67  1  0.11413237  0.75505338  0.62746464  1
  N  N68  1  0.87066225  0.90541479  0.36519348  1
  N  N69  1  0.77474079  0.75820998  0.07957040  1
  N  N70  1  0.55868783  0.87213547  0.82579274  1
  N  N71  1  0.45403256  0.75740419  0.58584848  1
