# generated using pymatgen
data_Al31B5N36
_symmetry_space_group_name_H-M   'P 1'
_cell_length_a   9.31702249
_cell_length_b   9.17246056
_cell_length_c   9.95844324
_cell_angle_alpha   90.26839671
_cell_angle_beta   89.91386220
_cell_angle_gamma   60.34210630
_symmetry_Int_Tables_number   1
_chemical_formula_structural   Al31B5N36
_chemical_formula_sum   'Al31 B5 N36'
_cell_volume   739.54219425
_cell_formula_units_Z   1
loop_
 _symmetry_equiv_pos_site_id
 _symmetry_equiv_pos_as_xyz
  1  'x, y, z'
loop_
 _atom_site_type_symbol
 _atom_site_label
 _atom_site_symmetry_multiplicity
 _atom_site_fract_x
 _atom_site_fract_y
 _atom_site_fract_z
 _atom_site_occupancy
  Al  Al0  1  0.09693506  0.09865054  0.33575020  1
  Al  Al1  1  0.22327421  0.20769626  0.07892537  1
  Al  Al2  1  0.79065090  0.09523099  0.80547917  1
  Al  Al3  1  0.45026581  0.10297407  0.40498299  1
  Al  Al4  1  0.11937411  0.09742891  0.81484393  1
  Al  Al5  1  0.88662390  0.20467211  0.07484131  1
  Al  Al6  1  0.45908030  0.09558187  0.89519960  1
  Al  Al7  1  0.10445377  0.42961362  0.32401057  1
  Al  Al8  1  0.22675325  0.53153857  0.07088871  1
  Al  Al9  1  0.78228539  0.41718904  0.81387096  1
  Al  Al10  1  0.88646141  0.52926337  0.56746515  1
  Al  Al11  1  0.44170947  0.42840753  0.31757123  1
  Al  Al12  1  0.55807254  0.53123908  0.06961362  1
  Al  Al13  1  0.11648283  0.41657407  0.81740930  1
  Al  Al14  1  0.22014773  0.52952068  0.56711301  1
  Al  Al15  1  0.76817920  0.42856480  0.32153160  1
  Al  Al16  1  0.88931266  0.53618543  0.06882096  1
  Al  Al17  1  0.44060866  0.43488464  0.82145119  1
  Al  Al18  1  0.55263455  0.52795650  0.56778352  1
  Al  Al19  1  0.10281817  0.76850828  0.31838871  1
  Al  Al20  1  0.21966926  0.87531429  0.07062924  1
  Al  Al21  1  0.78682636  0.75741910  0.82124660  1
  Al  Al22  1  0.89052063  0.88219716  0.56170103  1
  Al  Al23  1  0.43494269  0.76497120  0.32341569  1
  Al  Al24  1  0.55457235  0.88036517  0.12618729  1
  Al  Al25  1  0.10941312  0.76268129  0.81892962  1
  Al  Al26  1  0.22574176  0.87673017  0.57245754  1
  Al  Al27  1  0.77442979  0.76810675  0.32323765  1
  Al  Al28  1  0.88384864  0.87897993  0.07302144  1
  Al  Al29  1  0.44455131  0.75968479  0.82284854  1
  Al  Al30  1  0.55842350  0.88082754  0.62680636  1
  B  B31  1  0.83225765  0.22213843  0.54666349  1
  B  B32  1  0.55958526  0.19976403  0.15809223  1
  B  B33  1  0.16930502  0.22825877  0.56031523  1
  B  B34  1  0.77221075  0.09429918  0.31385882  1
  B  B35  1  0.50774494  0.22466990  0.65993161  1
  N  N36  1  0.20550265  0.21442483  0.40598046  1
  N  N37  1  0.10884906  0.09776535  0.14263608  1
  N  N38  1  0.89673674  0.20143142  0.88470462  1
  N  N39  1  0.82408921  0.09622152  0.62231148  1
  N  N40  1  0.57036760  0.19259678  0.31862825  1
  N  N41  1  0.46556774  0.11053386  0.09039407  1
  N  N42  1  0.22711559  0.20339537  0.89043603  1
  N  N43  1  0.15326630  0.09918435  0.62821469  1
  N  N44  1  0.85936755  0.20245627  0.38945798  1
  N  N45  1  0.76761518  0.10196403  0.14850642  1
  N  N46  1  0.55715723  0.20244017  0.80961553  1
  N  N47  1  0.48734680  0.10311479  0.58709125  1
  N  N48  1  0.21805540  0.54044865  0.37749681  1
  N  N49  1  0.10883986  0.42854904  0.13527867  1
  N  N50  1  0.89289423  0.53193244  0.87513222  1
  N  N51  1  0.78146630  0.39865749  0.61499200  1
  N  N52  1  0.54765209  0.54115803  0.37941016  1
  N  N53  1  0.45460411  0.40644353  0.12528141  1
  N  N54  1  0.22088094  0.53712818  0.87851270  1
  N  N55  1  0.11397462  0.40297608  0.62300151  1
  N  N56  1  0.88238845  0.54116327  0.37935190  1
  N  N57  1  0.77599790  0.42828484  0.13214285  1
  N  N58  1  0.56104591  0.53447376  0.87829623  1
  N  N59  1  0.44139443  0.41111703  0.62659930  1
  N  N60  1  0.21612300  0.87409659  0.38340175  1
  N  N61  1  0.11027279  0.76061624  0.12804357  1
  N  N62  1  0.88806251  0.87830038  0.88106507  1
  N  N63  1  0.79141528  0.75403193  0.62711157  1
  N  N64  1  0.54709128  0.88098067  0.34868566  1
  N  N65  1  0.44015592  0.75923369  0.12818375  1
  N  N66  1  0.22250059  0.87345461  0.87872654  1
  N  N67  1  0.11471166  0.75602138  0.62733687  1
  N  N68  1  0.87255299  0.90063467  0.36967426  1
  N  N69  1  0.78254943  0.75795839  0.12939393  1
  N  N70  1  0.55984635  0.87272317  0.84757114  1
  N  N71  1  0.44964800  0.75164179  0.62954208  1
