# generated using pymatgen
data_Al31B5N36
_symmetry_space_group_name_H-M   'P 1'
_cell_length_a   9.30562599
_cell_length_b   9.23508297
_cell_length_c   10.08900826
_cell_angle_alpha   89.50420250
_cell_angle_beta   90.30225905
_cell_angle_gamma   59.77858018
_symmetry_Int_Tables_number   1
_chemical_formula_structural   Al31B5N36
_chemical_formula_sum   'Al31 B5 N36'
_cell_volume   749.11578537
_cell_formula_units_Z   1
loop_
 _symmetry_equiv_pos_site_id
 _symmetry_equiv_pos_as_xyz
  1  'x, y, z'
loop_
 _atom_site_type_symbol
 _atom_site_label
 _atom_site_symmetry_multiplicity
 _atom_site_fract_x
 _atom_site_fract_y
 _atom_site_fract_z
 _atom_site_occupancy
  Al  Al0  1  0.10137471  0.09404303  0.32084370  1
  Al  Al1  1  0.22413249  0.20730336  0.07085963  1
  Al  Al2  1  0.78500666  0.09853896  0.80799737  1
  Al  Al3  1  0.45004270  0.10194978  0.40170504  1
  Al  Al4  1  0.10437037  0.10231894  0.82308577  1
  Al  Al5  1  0.88486401  0.20059622  0.09986828  1
  Al  Al6  1  0.45556620  0.09383494  0.88851624  1
  Al  Al7  1  0.10822955  0.42894193  0.32655871  1
  Al  Al8  1  0.22076242  0.53556165  0.07204062  1
  Al  Al9  1  0.77576898  0.42682331  0.89677621  1
  Al  Al10  1  0.88976165  0.53443317  0.57698267  1
  Al  Al11  1  0.45362373  0.41129417  0.38797159  1
  Al  Al12  1  0.55514571  0.52655066  0.14510955  1
  Al  Al13  1  0.11407654  0.41990528  0.81548471  1
  Al  Al14  1  0.21831383  0.53407078  0.56812939  1
  Al  Al15  1  0.77604368  0.40841767  0.38346059  1
  Al  Al16  1  0.88949085  0.53774779  0.10177524  1
  Al  Al17  1  0.45366199  0.41611406  0.89036428  1
  Al  Al18  1  0.56630054  0.51411620  0.63790533  1
  Al  Al19  1  0.10191968  0.76962274  0.31624829  1
  Al  Al20  1  0.22482225  0.87276931  0.06494265  1
  Al  Al21  1  0.77611596  0.75850989  0.88837658  1
  Al  Al22  1  0.89363228  0.89634501  0.55963094  1
  Al  Al23  1  0.43424491  0.76605663  0.32532098  1
  Al  Al24  1  0.55597938  0.88436773  0.14284683  1
  Al  Al25  1  0.10692142  0.76138878  0.81605373  1
  Al  Al26  1  0.22324726  0.87690057  0.56909767  1
  Al  Al27  1  0.76777249  0.77411360  0.38452194  1
  Al  Al28  1  0.88442806  0.88325373  0.06822007  1
  Al  Al29  1  0.44066856  0.76132425  0.81617114  1
  Al  Al30  1  0.56755845  0.88179540  0.64063766  1
  B  B31  1  0.90248865  0.20663213  0.60547182  1
  B  B32  1  0.55196101  0.20354342  0.14713339  1
  B  B33  1  0.15895818  0.23852247  0.55525363  1
  B  B34  1  0.77577282  0.09366309  0.29624899  1
  B  B35  1  0.50343843  0.22937855  0.65090321  1
  N  N36  1  0.20135405  0.21199879  0.40883166  1
  N  N37  1  0.12208834  0.09147015  0.13370586  1
  N  N38  1  0.89179031  0.19512312  0.89598867  1
  N  N39  1  0.83529550  0.10013014  0.63079505  1
  N  N40  1  0.55780995  0.20111117  0.30742939  1
  N  N41  1  0.46259319  0.10895612  0.08143222  1
  N  N42  1  0.22218050  0.20285189  0.88290797  1
  N  N43  1  0.09758972  0.12760398  0.62011116  1
  N  N44  1  0.87003990  0.19185509  0.32457067  1
  N  N45  1  0.75535429  0.09719236  0.13767387  1
  N  N46  1  0.54460226  0.21133590  0.80054826  1
  N  N47  1  0.48410512  0.10267204  0.58391914  1
  N  N48  1  0.21443764  0.54402456  0.37995791  1
  N  N49  1  0.11556043  0.42323308  0.13990468  1
  N  N50  1  0.89306449  0.53324147  0.85953276  1
  N  N51  1  0.79459539  0.39470359  0.58101181  1
  N  N52  1  0.55215992  0.53272801  0.33742691  1
  N  N53  1  0.46167639  0.39664794  0.08319338  1
  N  N54  1  0.21800149  0.53748390  0.87898436  1
  N  N55  1  0.12000322  0.40138303  0.62070452  1
  N  N56  1  0.88268180  0.53815700  0.36927437  1
  N  N57  1  0.76943286  0.43395674  0.08739738  1
  N  N58  1  0.55988540  0.52709483  0.82750214  1
  N  N59  1  0.45546325  0.39668179  0.58323356  1
  N  N60  1  0.21617864  0.87394432  0.38350327  1
  N  N61  1  0.11067852  0.76279923  0.12759462  1
  N  N62  1  0.88660459  0.87948630  0.87716781  1
  N  N63  1  0.78557008  0.76615475  0.57867429  1
  N  N64  1  0.54561382  0.88610845  0.33379005  1
  N  N65  1  0.44122720  0.76230893  0.12825638  1
  N  N66  1  0.22114067  0.87271988  0.87379497  1
  N  N67  1  0.11728442  0.75568322  0.62711343  1
  N  N68  1  0.87177752  0.90632734  0.36538905  1
  N  N69  1  0.77333687  0.76394816  0.08453190  1
  N  N70  1  0.55789385  0.87515852  0.83018739  1
  N  N71  1  0.44943159  0.75986597  0.62083149  1
