# generated using pymatgen
data_Al31B5N36
_symmetry_space_group_name_H-M   'P 1'
_cell_length_a   9.42385850
_cell_length_b   9.14920393
_cell_length_c   10.01071129
_cell_angle_alpha   90.09032354
_cell_angle_beta   90.48767180
_cell_angle_gamma   60.95327439
_symmetry_Int_Tables_number   1
_chemical_formula_structural   Al31B5N36
_chemical_formula_sum   'Al31 B5 N36'
_cell_volume   754.53981404
_cell_formula_units_Z   1
loop_
 _symmetry_equiv_pos_site_id
 _symmetry_equiv_pos_as_xyz
  1  'x, y, z'
loop_
 _atom_site_type_symbol
 _atom_site_label
 _atom_site_symmetry_multiplicity
 _atom_site_fract_x
 _atom_site_fract_y
 _atom_site_fract_z
 _atom_site_occupancy
  Al  Al0  1  0.12187842  0.08888579  0.33587296  1
  Al  Al1  1  0.21724830  0.20681232  0.08338383  1
  Al  Al2  1  0.77586730  0.09417168  0.88614149  1
  Al  Al3  1  0.45144103  0.09865715  0.41194330  1
  Al  Al4  1  0.11381732  0.10025417  0.81241130  1
  Al  Al5  1  0.88147014  0.20268883  0.15143699  1
  Al  Al6  1  0.44566528  0.09765490  0.89655025  1
  Al  Al7  1  0.10133781  0.43682336  0.39959867  1
  Al  Al8  1  0.22129972  0.53427668  0.15882387  1
  Al  Al9  1  0.77458306  0.42302056  0.89879858  1
  Al  Al10  1  0.88642143  0.52897764  0.65358702  1
  Al  Al11  1  0.44410954  0.41878970  0.40248229  1
  Al  Al12  1  0.55468762  0.52974982  0.15208979  1
  Al  Al13  1  0.10149534  0.43585183  0.89845660  1
  Al  Al14  1  0.22664662  0.51885141  0.64695003  1
  Al  Al15  1  0.77676092  0.41597848  0.40481888  1
  Al  Al16  1  0.88174138  0.54330247  0.15429143  1
  Al  Al17  1  0.44079322  0.42175719  0.90276351  1
  Al  Al18  1  0.55466108  0.52682577  0.65588222  1
  Al  Al19  1  0.11182733  0.77112849  0.34106383  1
  Al  Al20  1  0.21163783  0.87838868  0.08144043  1
  Al  Al21  1  0.77664309  0.76461997  0.90382243  1
  Al  Al22  1  0.89045973  0.87682312  0.63923756  1
  Al  Al23  1  0.45834844  0.75288264  0.40120250  1
  Al  Al24  1  0.55241304  0.88268346  0.15412314  1
  Al  Al25  1  0.11230202  0.76415418  0.82766157  1
  Al  Al26  1  0.22992734  0.87445708  0.58186000  1
  Al  Al27  1  0.77460095  0.77295541  0.40452178  1
  Al  Al28  1  0.87596807  0.89300997  0.15118569  1
  Al  Al29  1  0.44659417  0.76005729  0.90196799  1
  Al  Al30  1  0.56508332  0.87398566  0.65464760  1
  B  B31  1  0.84096813  0.22746633  0.65152939  1
  B  B32  1  0.48639047  0.23716804  0.16569776  1
  B  B33  1  0.16935271  0.22349441  0.56249164  1
  B  B34  1  0.85438275  0.07116828  0.42518816  1
  B  B35  1  0.50826747  0.22358477  0.66554589  1
  N  N36  1  0.21655008  0.20365017  0.41392389  1
  N  N37  1  0.11621486  0.09588916  0.14924679  1
  N  N38  1  0.87479345  0.21060522  0.80306761  1
  N  N39  1  0.83898312  0.09165285  0.57122127  1
  N  N40  1  0.50797288  0.22623399  0.30744476  1
  N  N41  1  0.44980380  0.11182102  0.09200238  1
  N  N42  1  0.21634848  0.20456507  0.89440448  1
  N  N43  1  0.15828852  0.09503052  0.63311299  1
  N  N44  1  0.88636217  0.19066697  0.34558618  1
  N  N45  1  0.79241509  0.09320013  0.06746745  1
  N  N46  1  0.54826349  0.20953699  0.81693457  1
  N  N47  1  0.49988643  0.09233535  0.59516026  1
  N  N48  1  0.22001061  0.54047043  0.35509408  1
  N  N49  1  0.09938534  0.43746486  0.10196936  1
  N  N50  1  0.88294918  0.53926086  0.84338290  1
  N  N51  1  0.77889752  0.40314508  0.59628846  1
  N  N52  1  0.55848400  0.52946516  0.34370284  1
  N  N53  1  0.44109731  0.40873381  0.09507356  1
  N  N54  1  0.22464822  0.53060548  0.84108221  1
  N  N55  1  0.10526677  0.40898312  0.59719490  1
  N  N56  1  0.88126485  0.54176301  0.34591563  1
  N  N57  1  0.77493200  0.42601323  0.09073878  1
  N  N58  1  0.55215287  0.53524963  0.84567018  1
  N  N59  1  0.45197323  0.39735548  0.59787137  1
  N  N60  1  0.23022156  0.87084870  0.39281762  1
  N  N61  1  0.10727084  0.76647567  0.14628326  1
  N  N62  1  0.88359771  0.87221643  0.83024039  1
  N  N63  1  0.78454495  0.75265516  0.59136423  1
  N  N64  1  0.55611528  0.87720019  0.34399415  1
  N  N65  1  0.44583708  0.75935157  0.09501567  1
  N  N66  1  0.21416289  0.88093970  0.88839602  1
  N  N67  1  0.12277655  0.75505378  0.63230838  1
  N  N68  1  0.87927067  0.90692077  0.35875506  1
  N  N69  1  0.77311324  0.76879572  0.09670608  1
  N  N70  1  0.55627286  0.87276618  0.84481096  1
  N  N71  1  0.46261340  0.74853007  0.59411583  1
