# generated using pymatgen
data_Al31B5N36
_symmetry_space_group_name_H-M   'P 1'
_cell_length_a   9.29347011
_cell_length_b   9.17468982
_cell_length_c   9.76721193
_cell_angle_alpha   90.01451356
_cell_angle_beta   89.30615621
_cell_angle_gamma   60.09921394
_symmetry_Int_Tables_number   1
_chemical_formula_structural   Al31B5N36
_chemical_formula_sum   'Al31 B5 N36'
_cell_volume   721.87263253
_cell_formula_units_Z   1
loop_
 _symmetry_equiv_pos_site_id
 _symmetry_equiv_pos_as_xyz
  1  'x, y, z'
loop_
 _atom_site_type_symbol
 _atom_site_label
 _atom_site_symmetry_multiplicity
 _atom_site_fract_x
 _atom_site_fract_y
 _atom_site_fract_z
 _atom_site_occupancy
  Al  Al0  1  0.09803428  0.09814060  0.31581557  1
  Al  Al1  1  0.22797570  0.20477420  0.05407719  1
  Al  Al2  1  0.77521438  0.10071916  0.80091307  1
  Al  Al3  1  0.44591047  0.10101886  0.31515822  1
  Al  Al4  1  0.11819149  0.09725195  0.79380314  1
  Al  Al5  1  0.88336233  0.20423087  0.05695401  1
  Al  Al6  1  0.45604725  0.09711610  0.79917012  1
  Al  Al7  1  0.10819389  0.42938531  0.30158305  1
  Al  Al8  1  0.22573647  0.53328725  0.04918739  1
  Al  Al9  1  0.78247606  0.41655026  0.79510466  1
  Al  Al10  1  0.89139137  0.52763447  0.54725301  1
  Al  Al11  1  0.45097466  0.41733584  0.30153149  1
  Al  Al12  1  0.55641024  0.53313410  0.04944309  1
  Al  Al13  1  0.11692887  0.41698272  0.79610116  1
  Al  Al14  1  0.22924971  0.52433799  0.54980611  1
  Al  Al15  1  0.77103288  0.42863855  0.30155470  1
  Al  Al16  1  0.88865247  0.53743752  0.04803918  1
  Al  Al17  1  0.45092272  0.41577772  0.80252994  1
  Al  Al18  1  0.55336162  0.53238104  0.54919052  1
  Al  Al19  1  0.10524398  0.76695947  0.30085605  1
  Al  Al20  1  0.21937921  0.87658368  0.05109175  1
  Al  Al21  1  0.78087830  0.76013892  0.79890002  1
  Al  Al22  1  0.88454584  0.88546758  0.54624027  1
  Al  Al23  1  0.44048087  0.76470142  0.30004877  1
  Al  Al24  1  0.55516845  0.88059644  0.05209321  1
  Al  Al25  1  0.11089753  0.76208571  0.79953554  1
  Al  Al26  1  0.22855329  0.87603116  0.55145240  1
  Al  Al27  1  0.77267522  0.76887924  0.30021812  1
  Al  Al28  1  0.88002131  0.88261623  0.05635854  1
  Al  Al29  1  0.44761686  0.76017408  0.80183510  1
  Al  Al30  1  0.56143455  0.87872281  0.55340649  1
  B  B31  1  0.82616169  0.23003724  0.52899974  1
  B  B32  1  0.55218706  0.20933103  0.05837972  1
  B  B33  1  0.17633775  0.22477266  0.53587749  1
  B  B34  1  0.76262920  0.09894941  0.30560482  1
  B  B35  1  0.56338673  0.20225928  0.54752959  1
  N  N36  1  0.21334611  0.21022432  0.37977205  1
  N  N37  1  0.10614736  0.09994575  0.12021672  1
  N  N38  1  0.89698107  0.19870334  0.86278472  1
  N  N39  1  0.77039414  0.12172925  0.60164240  1
  N  N40  1  0.57749885  0.19504488  0.37696140  1
  N  N41  1  0.45325154  0.11170447  0.11561239  1
  N  N42  1  0.23332354  0.19965201  0.86270690  1
  N  N43  1  0.14368567  0.10207630  0.60231774  1
  N  N44  1  0.86166515  0.20161556  0.37351379  1
  N  N45  1  0.75092704  0.11054214  0.13240216  1
  N  N46  1  0.56349375  0.20225953  0.89083766  1
  N  N47  1  0.49642762  0.09696388  0.61069411  1
  N  N48  1  0.22278736  0.53781781  0.35697912  1
  N  N49  1  0.10852906  0.42864646  0.10975414  1
  N  N50  1  0.89184070  0.53251100  0.85184401  1
  N  N51  1  0.78471196  0.39866943  0.59487315  1
  N  N52  1  0.54965329  0.54121234  0.35703446  1
  N  N53  1  0.45414507  0.40464778  0.10626897  1
  N  N54  1  0.22421855  0.53488160  0.85322234  1
  N  N55  1  0.11895685  0.39970319  0.59954405  1
  N  N56  1  0.88513847  0.54052689  0.35637936  1
  N  N57  1  0.77540473  0.42874004  0.11010549  1
  N  N58  1  0.55945234  0.53325838  0.85489158  1
  N  N59  1  0.45801263  0.39933605  0.60408531  1
  N  N60  1  0.21962119  0.87291795  0.36016731  1
  N  N61  1  0.10850607  0.76212954  0.10703045  1
  N  N62  1  0.88775246  0.87639389  0.85928191  1
  N  N63  1  0.78895908  0.75288210  0.60504848  1
  N  N64  1  0.55187028  0.87469908  0.35999707  1
  N  N65  1  0.44246581  0.76320252  0.10623328  1
  N  N66  1  0.22320406  0.87342867  0.85650398  1
  N  N67  1  0.11200962  0.76073469  0.60499152  1
  N  N68  1  0.87202887  0.90113528  0.35105676  1
  N  N69  1  0.77621952  0.76169419  0.10757442  1
  N  N70  1  0.55858523  0.87208151  0.85860787  1
  N  N71  1  0.45273446  0.75686024  0.60893088  1
