# generated using pymatgen
data_Al31B5N36
_symmetry_space_group_name_H-M   'P 1'
_cell_length_a   9.29347767
_cell_length_b   9.17470059
_cell_length_c   9.76719452
_cell_angle_alpha   90.01445876
_cell_angle_beta   89.30599686
_cell_angle_gamma   60.09914597
_symmetry_Int_Tables_number   1
_chemical_formula_structural   Al31B5N36
_chemical_formula_sum   'Al31 B5 N36'
_cell_volume   721.87226116
_cell_formula_units_Z   1
loop_
 _symmetry_equiv_pos_site_id
 _symmetry_equiv_pos_as_xyz
  1  'x, y, z'
loop_
 _atom_site_type_symbol
 _atom_site_label
 _atom_site_symmetry_multiplicity
 _atom_site_fract_x
 _atom_site_fract_y
 _atom_site_fract_z
 _atom_site_occupancy
  Al  Al0  1  0.09786150  0.09819057  0.32288759  1
  Al  Al1  1  0.22780294  0.20482476  0.06115125  1
  Al  Al2  1  0.77504129  0.10076935  0.80798564  1
  Al  Al3  1  0.44573779  0.10106896  0.32223164  1
  Al  Al4  1  0.11801908  0.09730218  0.80087896  1
  Al  Al5  1  0.88318863  0.20428142  0.06402646  1
  Al  Al6  1  0.45587478  0.09716611  0.80624414  1
  Al  Al7  1  0.10802122  0.42943551  0.30865839  1
  Al  Al8  1  0.22556330  0.53333744  0.05626062  1
  Al  Al9  1  0.78230309  0.41660061  0.80217940  1
  Al  Al10  1  0.89121846  0.52768417  0.55432571  1
  Al  Al11  1  0.45080157  0.41738623  0.30860644  1
  Al  Al12  1  0.55623755  0.53318385  0.05651750  1
  Al  Al13  1  0.11675581  0.41703272  0.80317519  1
  Al  Al14  1  0.22907721  0.52438764  0.55688060  1
  Al  Al15  1  0.77085980  0.42868894  0.30862996  1
  Al  Al16  1  0.88847960  0.53748771  0.05511285  1
  Al  Al17  1  0.45074999  0.41582768  0.80960523  1
  Al  Al18  1  0.55318824  0.53243169  0.55626507  1
  Al  Al19  1  0.10507084  0.76700979  0.30793165  1
  Al  Al20  1  0.21920592  0.87663335  0.05816715  1
  Al  Al21  1  0.78070512  0.76018907  0.80597257  1
  Al  Al22  1  0.88437225  0.88551799  0.55331425  1
  Al  Al23  1  0.44030753  0.76475200  0.30712342  1
  Al  Al24  1  0.55499583  0.88064668  0.05916962  1
  Al  Al25  1  0.11072464  0.76213587  0.80660844  1
  Al  Al26  1  0.22838044  0.87608188  0.55852869  1
  Al  Al27  1  0.77250222  0.76892973  0.30729300  1
  Al  Al28  1  0.87984847  0.88266595  0.06343097  1
  Al  Al29  1  0.44744407  0.76022447  0.80891275  1
  Al  Al30  1  0.56126079  0.87877297  0.56048223  1
  B  B31  1  0.82598883  0.23008754  0.53607220  1
  B  B32  1  0.55201496  0.20938078  0.06545337  1
  B  B33  1  0.17616478  0.22482255  0.54295097  1
  B  B34  1  0.76245600  0.09899949  0.31267769  1
  B  B35  1  0.56321507  0.20230903  0.55460338  1
  N  N36  1  0.21317330  0.21027384  0.38684500  1
  N  N37  1  0.10597400  0.09999615  0.12728862  1
  N  N38  1  0.89680773  0.19875336  0.86985719  1
  N  N39  1  0.77022064  0.12177973  0.60871477  1
  N  N40  1  0.57732624  0.19509487  0.38403399  1
  N  N41  1  0.45307862  0.11175483  0.12268583  1
  N  N42  1  0.23315092  0.19970247  0.86978066  1
  N  N43  1  0.14351335  0.10212709  0.60939246  1
  N  N44  1  0.86149247  0.20166557  0.38058600  1
  N  N45  1  0.75075365  0.11059218  0.13947408  1
  N  N46  1  0.56332113  0.20230941  0.89791074  1
  N  N47  1  0.49625612  0.09701351  0.61776799  1
  N  N48  1  0.22261439  0.53786799  0.36405312  1
  N  N49  1  0.10835614  0.42869677  0.11682833  1
  N  N50  1  0.89166758  0.53256137  0.85891706  1
  N  N51  1  0.78453912  0.39871942  0.60194600  1
  N  N52  1  0.54947970  0.54126311  0.36410836  1
  N  N53  1  0.45397209  0.40469785  0.11334260  1
  N  N54  1  0.22404518  0.53493189  0.86029495  1
  N  N55  1  0.11878384  0.39975317  0.60661709  1
  N  N56  1  0.88496537  0.54057722  0.36345218  1
  N  N57  1  0.77523191  0.42879013  0.11717958  1
  N  N58  1  0.55927949  0.53330820  0.86196581  1
  N  N59  1  0.45784011  0.39938587  0.61115937  1
  N  N60  1  0.21944789  0.87296867  0.36724205  1
  N  N61  1  0.10833271  0.76217954  0.11410465  1
  N  N62  1  0.88757934  0.87644389  0.86635390  1
  N  N63  1  0.78878608  0.75293175  0.61212091  1
  N  N64  1  0.55169683  0.87474944  0.36707165  1
  N  N65  1  0.44229278  0.76325266  0.11330709  1
  N  N66  1  0.22303052  0.87347863  0.86357844  1
  N  N67  1  0.11183639  0.76078490  0.61206435  1
  N  N68  1  0.87185547  0.90118580  0.35813043  1
  N  N69  1  0.77604699  0.76174426  0.11464843  1
  N  N70  1  0.55841271  0.87213188  0.86568310  1
  N  N71  1  0.45256150  0.75691035  0.61600719  1
