# generated using pymatgen
data_Al31B5N36
_symmetry_space_group_name_H-M   'P 1'
_cell_length_a   9.30517915
_cell_length_b   9.16422333
_cell_length_c   9.94323762
_cell_angle_alpha   90.16403439
_cell_angle_beta   89.72002822
_cell_angle_gamma   60.42941682
_symmetry_Int_Tables_number   1
_chemical_formula_structural   Al31B5N36
_chemical_formula_sum   'Al31 B5 N36'
_cell_volume   737.44340495
_cell_formula_units_Z   1
loop_
 _symmetry_equiv_pos_site_id
 _symmetry_equiv_pos_as_xyz
  1  'x, y, z'
loop_
 _atom_site_type_symbol
 _atom_site_label
 _atom_site_symmetry_multiplicity
 _atom_site_fract_x
 _atom_site_fract_y
 _atom_site_fract_z
 _atom_site_occupancy
  Al  Al0  1  0.09843658  0.09886726  0.32245523  1
  Al  Al1  1  0.23190033  0.20472934  0.06549704  1
  Al  Al2  1  0.79129685  0.09407285  0.79473596  1
  Al  Al3  1  0.44652315  0.10897066  0.39643716  1
  Al  Al4  1  0.11592021  0.09712759  0.80248069  1
  Al  Al5  1  0.88704318  0.20434968  0.06420137  1
  Al  Al6  1  0.44976378  0.09398386  0.84733110  1
  Al  Al7  1  0.10470598  0.43057072  0.31044566  1
  Al  Al8  1  0.22772678  0.53146304  0.05954781  1
  Al  Al9  1  0.78158114  0.41715351  0.80272616  1
  Al  Al10  1  0.88765669  0.52855982  0.55477079  1
  Al  Al11  1  0.44292926  0.42966601  0.30625820  1
  Al  Al12  1  0.55803295  0.53191136  0.05976345  1
  Al  Al13  1  0.11355243  0.41920831  0.80555092  1
  Al  Al14  1  0.22063028  0.52932763  0.55508122  1
  Al  Al15  1  0.76925673  0.42889743  0.30981220  1
  Al  Al16  1  0.89002750  0.53605309  0.05775038  1
  Al  Al17  1  0.44055568  0.43500622  0.81096685  1
  Al  Al18  1  0.55329033  0.52809024  0.55570484  1
  Al  Al19  1  0.10417835  0.76875215  0.30670244  1
  Al  Al20  1  0.22165735  0.87594932  0.05986570  1
  Al  Al21  1  0.78354846  0.75852913  0.80783044  1
  Al  Al22  1  0.89147890  0.88152780  0.55005549  1
  Al  Al23  1  0.43940918  0.76906031  0.30924157  1
  Al  Al24  1  0.55989869  0.87654802  0.06125274  1
  Al  Al25  1  0.10964584  0.76243050  0.80783622  1
  Al  Al26  1  0.22712348  0.87641596  0.56005294  1
  Al  Al27  1  0.76899862  0.77242352  0.30805731  1
  Al  Al28  1  0.88404350  0.87950585  0.06240462  1
  Al  Al29  1  0.44612672  0.75888696  0.80981733  1
  Al  Al30  1  0.56563109  0.86738568  0.56830795  1
  B  B31  1  0.83272913  0.22193035  0.53490722  1
  B  B32  1  0.55760874  0.19628535  0.14873623  1
  B  B33  1  0.16781310  0.22880167  0.54896421  1
  B  B34  1  0.77318604  0.09443182  0.30341509  1
  B  B35  1  0.51234088  0.22462624  0.64787767  1
  N  N36  1  0.20515621  0.21590193  0.39465731  1
  N  N37  1  0.11005331  0.09894656  0.12929540  1
  N  N38  1  0.89563727  0.20132010  0.87345753  1
  N  N39  1  0.82032465  0.09709478  0.61017927  1
  N  N40  1  0.57156011  0.19332079  0.31210225  1
  N  N41  1  0.46437164  0.10929123  0.08740094  1
  N  N42  1  0.22490793  0.20372919  0.87447393  1
  N  N43  1  0.14986046  0.09973991  0.61564507  1
  N  N44  1  0.86105498  0.20239383  0.37808930  1
  N  N45  1  0.76763701  0.10161399  0.13882402  1
  N  N46  1  0.55978666  0.20376609  0.79808523  1
  N  N47  1  0.48171958  0.10164888  0.58650104  1
  N  N48  1  0.21867836  0.54065024  0.36562449  1
  N  N49  1  0.10982874  0.42749950  0.12143135  1
  N  N50  1  0.89112765  0.53305331  0.86344144  1
  N  N51  1  0.78189468  0.39831543  0.60330711  1
  N  N52  1  0.54828234  0.54375404  0.36717871  1
  N  N53  1  0.45408268  0.40745399  0.11505988  1
  N  N54  1  0.22066705  0.53692640  0.86655417  1
  N  N55  1  0.11351766  0.40340630  0.61136996  1
  N  N56  1  0.88242641  0.54329970  0.36625491  1
  N  N57  1  0.77647907  0.42804161  0.12048944  1
  N  N58  1  0.56058721  0.53452610  0.86748899  1
  N  N59  1  0.44242129  0.41075605  0.61397715  1
  N  N60  1  0.21902195  0.87414957  0.37039316  1
  N  N61  1  0.11115363  0.76096883  0.11605381  1
  N  N62  1  0.88757831  0.87721681  0.86921007  1
  N  N63  1  0.79013693  0.75375738  0.61686376  1
  N  N64  1  0.55183481  0.87490487  0.37529384  1
  N  N65  1  0.44430207  0.76308451  0.11698900  1
  N  N66  1  0.22341531  0.87315228  0.86683602  1
  N  N67  1  0.11531868  0.75611669  0.61554070  1
  N  N68  1  0.87309333  0.90007695  0.35790048  1
  N  N69  1  0.77875149  0.76010907  0.11752377  1
  N  N70  1  0.56221604  0.86516528  0.86592186  1
  N  N71  1  0.45169092  0.75169457  0.62015888  1
