# generated using pymatgen
data_Al31B5N36
_symmetry_space_group_name_H-M   'P 1'
_cell_length_a   9.30399450
_cell_length_b   9.16363229
_cell_length_c   9.93143106
_cell_angle_alpha   90.07636022
_cell_angle_beta   89.62709518
_cell_angle_gamma   60.39906743
_symmetry_Int_Tables_number   1
_chemical_formula_structural   Al31B5N36
_chemical_formula_sum   'Al31 B5 N36'
_cell_volume   736.20172477
_cell_formula_units_Z   1
loop_
 _symmetry_equiv_pos_site_id
 _symmetry_equiv_pos_as_xyz
  1  'x, y, z'
loop_
 _atom_site_type_symbol
 _atom_site_label
 _atom_site_symmetry_multiplicity
 _atom_site_fract_x
 _atom_site_fract_y
 _atom_site_fract_z
 _atom_site_occupancy
  Al  Al0  1  0.09915030  0.09890700  0.32170354  1
  Al  Al1  1  0.23628209  0.20317616  0.06443993  1
  Al  Al2  1  0.79010252  0.09419071  0.79625514  1
  Al  Al3  1  0.44598545  0.10816710  0.39368435  1
  Al  Al4  1  0.11512608  0.09727016  0.80370658  1
  Al  Al5  1  0.88686572  0.20422336  0.06482671  1
  Al  Al6  1  0.44424044  0.08946484  0.81076311  1
  Al  Al7  1  0.10555114  0.43007763  0.30969724  1
  Al  Al8  1  0.22791564  0.53130804  0.05993647  1
  Al  Al9  1  0.78134377  0.41712483  0.80297806  1
  Al  Al10  1  0.88837027  0.52829662  0.55463661  1
  Al  Al11  1  0.44345634  0.43022292  0.30722813  1
  Al  Al12  1  0.55783837  0.53206684  0.06034763  1
  Al  Al13  1  0.11335351  0.41936743  0.80639614  1
  Al  Al14  1  0.22107383  0.52908253  0.55540696  1
  Al  Al15  1  0.76973818  0.42898806  0.30980126  1
  Al  Al16  1  0.88973718  0.53629054  0.05785975  1
  Al  Al17  1  0.44065118  0.43375133  0.81213203  1
  Al  Al18  1  0.55355326  0.52879555  0.55558735  1
  Al  Al19  1  0.10456910  0.76869235  0.30688440  1
  Al  Al20  1  0.22172573  0.87615897  0.06006224  1
  Al  Al21  1  0.78314641  0.75882439  0.80844866  1
  Al  Al22  1  0.89124764  0.88171948  0.55028407  1
  Al  Al23  1  0.43987313  0.76967039  0.30818381  1
  Al  Al24  1  0.55739223  0.88223069  0.05965856  1
  Al  Al25  1  0.10967359  0.76243802  0.80814017  1
  Al  Al26  1  0.22737865  0.87639646  0.56005197  1
  Al  Al27  1  0.76940013  0.77255562  0.30704652  1
  Al  Al28  1  0.88383443  0.87980812  0.06279575  1
  Al  Al29  1  0.44627685  0.75815878  0.81081742  1
  Al  Al30  1  0.56778647  0.86393235  0.56675505  1
  B  B31  1  0.83169867  0.22274145  0.53485119  1
  B  B32  1  0.55634096  0.19536729  0.15298031  1
  B  B33  1  0.16675654  0.22916899  0.54923484  1
  B  B34  1  0.77377951  0.09476739  0.30471173  1
  B  B35  1  0.52013105  0.22427600  0.64701661  1
  N  N36  1  0.20530702  0.21579452  0.39578067  1
  N  N37  1  0.11026991  0.09940787  0.12852624  1
  N  N38  1  0.89515668  0.20116134  0.87360192  1
  N  N39  1  0.81338559  0.09988150  0.60981138  1
  N  N40  1  0.57386750  0.19481672  0.31751694  1
  N  N41  1  0.46133448  0.10841118  0.10504581  1
  N  N42  1  0.22788788  0.20212511  0.87261993  1
  N  N43  1  0.14891128  0.09977868  0.61637646  1
  N  N44  1  0.86232000  0.20225799  0.37878194  1
  N  N45  1  0.76741511  0.10150546  0.14022877  1
  N  N46  1  0.55965402  0.20356565  0.79942921  1
  N  N47  1  0.47941110  0.10051093  0.59391290  1
  N  N48  1  0.21885167  0.54051621  0.36596109  1
  N  N49  1  0.10980832  0.42710789  0.12042766  1
  N  N50  1  0.89064773  0.53303358  0.86339642  1
  N  N51  1  0.78212213  0.39825119  0.60334228  1
  N  N52  1  0.54868835  0.54477506  0.36715139  1
  N  N53  1  0.45377256  0.40767266  0.11624814  1
  N  N54  1  0.22046677  0.53711963  0.86645337  1
  N  N55  1  0.11383896  0.40315802  0.61184295  1
  N  N56  1  0.88302150  0.54328010  0.36595224  1
  N  N57  1  0.77645333  0.42798636  0.12056915  1
  N  N58  1  0.56045315  0.53399327  0.86769003  1
  N  N59  1  0.44403389  0.41035489  0.61335032  1
  N  N60  1  0.21956862  0.87421934  0.37027722  1
  N  N61  1  0.11114451  0.76103251  0.11618889  1
  N  N62  1  0.88776521  0.87696067  0.86924910  1
  N  N63  1  0.79080275  0.75328686  0.61704178  1
  N  N64  1  0.55290064  0.87428490  0.37640594  1
  N  N65  1  0.44470407  0.76386484  0.11599279  1
  N  N66  1  0.22325040  0.87301287  0.86687746  1
  N  N67  1  0.11506280  0.75675652  0.61555794  1
  N  N68  1  0.87359615  0.89978298  0.35836002  1
  N  N69  1  0.77763473  0.76084961  0.11638747  1
  N  N70  1  0.56028358  0.86823408  0.86414248  1
  N  N71  1  0.45168560  0.75191663  0.62060786  1
