# generated using pymatgen
data_Al31B5N36
_symmetry_space_group_name_H-M   'P 1'
_cell_length_a   9.41835244
_cell_length_b   9.13712406
_cell_length_c   9.95789952
_cell_angle_alpha   90.11518821
_cell_angle_beta   90.58979316
_cell_angle_gamma   61.07929578
_symmetry_Int_Tables_number   1
_chemical_formula_structural   Al31B5N36
_chemical_formula_sum   'Al31 B5 N36'
_cell_volume   750.02989904
_cell_formula_units_Z   1
loop_
 _symmetry_equiv_pos_site_id
 _symmetry_equiv_pos_as_xyz
  1  'x, y, z'
loop_
 _atom_site_type_symbol
 _atom_site_label
 _atom_site_symmetry_multiplicity
 _atom_site_fract_x
 _atom_site_fract_y
 _atom_site_fract_z
 _atom_site_occupancy
  Al  Al0  1  0.11785911  0.09192784  0.34077230  1
  Al  Al1  1  0.21677852  0.20580913  0.08202152  1
  Al  Al2  1  0.77355486  0.09565629  0.88658421  1
  Al  Al3  1  0.45284617  0.09857131  0.41007809  1
  Al  Al4  1  0.11004287  0.10661057  0.80872534  1
  Al  Al5  1  0.88043985  0.20233401  0.15071226  1
  Al  Al6  1  0.44456322  0.09861826  0.89479715  1
  Al  Al7  1  0.10176281  0.43822057  0.39954082  1
  Al  Al8  1  0.21655289  0.54055060  0.15333995  1
  Al  Al9  1  0.77288085  0.42426172  0.89807515  1
  Al  Al10  1  0.88725499  0.52808655  0.65342985  1
  Al  Al11  1  0.44074866  0.42128021  0.39939654  1
  Al  Al12  1  0.55544775  0.52851985  0.15094392  1
  Al  Al13  1  0.09949606  0.43845152  0.90209085  1
  Al  Al14  1  0.22249792  0.52381612  0.65303543  1
  Al  Al15  1  0.77576501  0.41647560  0.40390179  1
  Al  Al16  1  0.88212475  0.54244252  0.15323455  1
  Al  Al17  1  0.43864611  0.42432479  0.90140906  1
  Al  Al18  1  0.55511163  0.52533263  0.65465386  1
  Al  Al19  1  0.11348487  0.76271743  0.40438641  1
  Al  Al20  1  0.22755280  0.86706699  0.14549475  1
  Al  Al21  1  0.77558008  0.76480441  0.90355624  1
  Al  Al22  1  0.89961372  0.87088388  0.64550405  1
  Al  Al23  1  0.45462003  0.75524841  0.40139126  1
  Al  Al24  1  0.55562047  0.88357233  0.15312801  1
  Al  Al25  1  0.10631153  0.76819790  0.89773206  1
  Al  Al26  1  0.23755545  0.86642760  0.63356828  1
  Al  Al27  1  0.77623272  0.77191858  0.40330198  1
  Al  Al28  1  0.88379906  0.88919590  0.15068615  1
  Al  Al29  1  0.44004068  0.76444272  0.89896995  1
  Al  Al30  1  0.56791820  0.87421202  0.65324686  1
  B  B31  1  0.84114531  0.22571731  0.65065005  1
  B  B32  1  0.48687953  0.23810296  0.16447273  1
  B  B33  1  0.16987906  0.22509613  0.55829620  1
  B  B34  1  0.85480465  0.06914233  0.42433926  1
  B  B35  1  0.50560583  0.22560676  0.66404838  1
  N  N36  1  0.21870106  0.20487438  0.41031657  1
  N  N37  1  0.11248146  0.09965442  0.14884788  1
  N  N38  1  0.87327035  0.21145600  0.80331991  1
  N  N39  1  0.84033272  0.08753179  0.57159518  1
  N  N40  1  0.51043163  0.22625244  0.30694466  1
  N  N41  1  0.44892893  0.11248914  0.09128022  1
  N  N42  1  0.21580504  0.20642393  0.89160746  1
  N  N43  1  0.15195357  0.09881628  0.62514398  1
  N  N44  1  0.88459745  0.19089177  0.34622671  1
  N  N45  1  0.78894406  0.09318008  0.06906217  1
  N  N46  1  0.54660366  0.21166575  0.81593121  1
  N  N47  1  0.49829457  0.09320036  0.59424533  1
  N  N48  1  0.21601851  0.54412003  0.34381443  1
  N  N49  1  0.09785853  0.43847551  0.09678972  1
  N  N50  1  0.88244114  0.53948303  0.84331886  1
  N  N51  1  0.77854594  0.40230185  0.59571712  1
  N  N52  1  0.55791481  0.53056126  0.34342542  1
  N  N53  1  0.43954293  0.40993523  0.09401118  1
  N  N54  1  0.21887936  0.53920879  0.84255519  1
  N  N55  1  0.10556904  0.41046600  0.59481550  1
  N  N56  1  0.88248751  0.54032404  0.34523441  1
  N  N57  1  0.77426320  0.42589847  0.09047939  1
  N  N58  1  0.55138944  0.53661427  0.84511799  1
  N  N59  1  0.44700165  0.40029834  0.59702727  1
  N  N60  1  0.23500181  0.86158540  0.35195086  1
  N  N61  1  0.10820177  0.76285096  0.09169730  1
  N  N62  1  0.88845241  0.87056585  0.83370814  1
  N  N63  1  0.78699003  0.75265930  0.59195510  1
  N  N64  1  0.55755119  0.87637042  0.34396013  1
  N  N65  1  0.44622403  0.76061808  0.09237231  1
  N  N66  1  0.22224185  0.87345276  0.83763014  1
  N  N67  1  0.12190635  0.74798508  0.59276145  1
  N  N68  1  0.88671199  0.90197095  0.35438972  1
  N  N69  1  0.77514582  0.76816303  0.09710911  1
  N  N70  1  0.55650509  0.87345279  0.84417546  1
  N  N71  1  0.46156722  0.74939036  0.59247716  1
