# generated using pymatgen
data_Al31B5N36
_symmetry_space_group_name_H-M   'P 1'
_cell_length_a   9.28543709
_cell_length_b   9.15972788
_cell_length_c   10.17252801
_cell_angle_alpha   89.36906032
_cell_angle_beta   90.29135488
_cell_angle_gamma   60.01830784
_symmetry_Int_Tables_number   1
_chemical_formula_structural   Al31B5N36
_chemical_formula_sum   'Al31 B5 N36'
_cell_volume   749.31729234
_cell_formula_units_Z   1
loop_
 _symmetry_equiv_pos_site_id
 _symmetry_equiv_pos_as_xyz
  1  'x, y, z'
loop_
 _atom_site_type_symbol
 _atom_site_label
 _atom_site_symmetry_multiplicity
 _atom_site_fract_x
 _atom_site_fract_y
 _atom_site_fract_z
 _atom_site_occupancy
  Al  Al0  1  0.10938293  0.09079044  0.32577754  1
  Al  Al1  1  0.22080391  0.20982034  0.07123679  1
  Al  Al2  1  0.77871840  0.09028528  0.80135758  1
  Al  Al3  1  0.45668394  0.09645646  0.39695390  1
  Al  Al4  1  0.12034514  0.09893876  0.80171888  1
  Al  Al5  1  0.87561264  0.20842003  0.13751886  1
  Al  Al6  1  0.45379350  0.09447580  0.88815548  1
  Al  Al7  1  0.11318556  0.42514232  0.32435647  1
  Al  Al8  1  0.21874369  0.53698703  0.07030205  1
  Al  Al9  1  0.77937844  0.43024177  0.88748127  1
  Al  Al10  1  0.88432952  0.53398542  0.63413102  1
  Al  Al11  1  0.45656319  0.41132240  0.38432720  1
  Al  Al12  1  0.55411877  0.53335883  0.13820019  1
  Al  Al13  1  0.12268850  0.41768396  0.81362595  1
  Al  Al14  1  0.21674819  0.53308113  0.56459635  1
  Al  Al15  1  0.77680572  0.40973354  0.39405108  1
  Al  Al16  1  0.88030850  0.54037631  0.14166678  1
  Al  Al17  1  0.45383184  0.41756651  0.88967217  1
  Al  Al18  1  0.55427145  0.52856395  0.64073082  1
  Al  Al19  1  0.10335774  0.76903717  0.31371051  1
  Al  Al20  1  0.21237169  0.88079602  0.06470101  1
  Al  Al21  1  0.77648752  0.75630223  0.88631835  1
  Al  Al22  1  0.88964909  0.89378099  0.55738287  1
  Al  Al23  1  0.45107752  0.75491020  0.38712952  1
  Al  Al24  1  0.55427856  0.87998549  0.13933673  1
  Al  Al25  1  0.10881178  0.76254395  0.81257766  1
  Al  Al26  1  0.22412614  0.87805304  0.56827215  1
  Al  Al27  1  0.77059820  0.76312567  0.38529460  1
  Al  Al28  1  0.88150056  0.88394880  0.06372914  1
  Al  Al29  1  0.44671752  0.76090516  0.88555361  1
  Al  Al30  1  0.56228725  0.87836827  0.63767066  1
  B  B31  1  0.84445625  0.23560355  0.65519321  1
  B  B32  1  0.55692950  0.20303186  0.13980303  1
  B  B33  1  0.17515026  0.22624768  0.55529739  1
  B  B34  1  0.77276605  0.09175389  0.31311329  1
  B  B35  1  0.50696842  0.22815481  0.64470049  1
  N  N36  1  0.20970052  0.21035074  0.40409341  1
  N  N37  1  0.11358887  0.09644700  0.13617703  1
  N  N38  1  0.88331258  0.22288009  0.80704622  1
  N  N39  1  0.81494370  0.10238934  0.61990722  1
  N  N40  1  0.57009696  0.19523414  0.30455304  1
  N  N41  1  0.46217433  0.10787020  0.08058971  1
  N  N42  1  0.21977365  0.20507305  0.88668745  1
  N  N43  1  0.15900855  0.09618968  0.62177461  1
  N  N44  1  0.86866246  0.19152002  0.32635369  1
  N  N45  1  0.75086551  0.10500571  0.11231370  1
  N  N46  1  0.54045990  0.21354846  0.79730994  1
  N  N47  1  0.49454587  0.09757881  0.57726862  1
  N  N48  1  0.21635239  0.54303378  0.37781442  1
  N  N49  1  0.11472263  0.42493990  0.13754943  1
  N  N50  1  0.88810515  0.54059989  0.82170995  1
  N  N51  1  0.78408129  0.40344709  0.58362612  1
  N  N52  1  0.55569972  0.53364926  0.32680242  1
  N  N53  1  0.46038127  0.39961396  0.08154745  1
  N  N54  1  0.21835527  0.53991190  0.87926470  1
  N  N55  1  0.12288624  0.39842930  0.61931868  1
  N  N56  1  0.87790148  0.53564619  0.33228572  1
  N  N57  1  0.77629814  0.42759712  0.07320303  1
  N  N58  1  0.55415417  0.53780252  0.82720310  1
  N  N59  1  0.45520195  0.39996657  0.57969161  1
  N  N60  1  0.21802490  0.87024394  0.38064644  1
  N  N61  1  0.10633339  0.76483047  0.12721035  1
  N  N62  1  0.88913521  0.87679341  0.87435482  1
  N  N63  1  0.78581370  0.75696715  0.57289115  1
  N  N64  1  0.54822927  0.87847607  0.32614253  1
  N  N65  1  0.44705018  0.76076045  0.07666740  1
  N  N66  1  0.21213233  0.88063854  0.87380133  1
  N  N67  1  0.11532991  0.75752026  0.62520566  1
  N  N68  1  0.87002535  0.90411805  0.36341995  1
  N  N69  1  0.77328364  0.75805465  0.07624164  1
  N  N70  1  0.55539562  0.87415614  0.82479388  1
  N  N71  1  0.46161892  0.75092887  0.57658877  1
