# generated using pymatgen
data_Al31B5N36
_symmetry_space_group_name_H-M   'P 1'
_cell_length_a   9.32109483
_cell_length_b   9.21355646
_cell_length_c   10.05202526
_cell_angle_alpha   89.61679487
_cell_angle_beta   90.16237556
_cell_angle_gamma   59.86612814
_symmetry_Int_Tables_number   1
_chemical_formula_structural   Al31B5N36
_chemical_formula_sum   'Al31 B5 N36'
_cell_volume   746.56933895
_cell_formula_units_Z   1
loop_
 _symmetry_equiv_pos_site_id
 _symmetry_equiv_pos_as_xyz
  1  'x, y, z'
loop_
 _atom_site_type_symbol
 _atom_site_label
 _atom_site_symmetry_multiplicity
 _atom_site_fract_x
 _atom_site_fract_y
 _atom_site_fract_z
 _atom_site_occupancy
  Al  Al0  1  0.10106184  0.09388627  0.32227235  1
  Al  Al1  1  0.22397219  0.20772358  0.07078212  1
  Al  Al2  1  0.78549439  0.09842587  0.80889741  1
  Al  Al3  1  0.45157487  0.10073983  0.40060502  1
  Al  Al4  1  0.10429513  0.10310599  0.82077188  1
  Al  Al5  1  0.88663152  0.19839262  0.09708004  1
  Al  Al6  1  0.45745993  0.09169440  0.88793045  1
  Al  Al7  1  0.10858251  0.42898936  0.32425459  1
  Al  Al8  1  0.22080537  0.53550547  0.07240262  1
  Al  Al9  1  0.77481470  0.42732879  0.89174070  1
  Al  Al10  1  0.88466345  0.53553176  0.56662248  1
  Al  Al11  1  0.45701302  0.41058322  0.38849922  1
  Al  Al12  1  0.54923132  0.53084777  0.13777588  1
  Al  Al13  1  0.11527964  0.41862777  0.81561119  1
  Al  Al14  1  0.21815047  0.53238057  0.56795448  1
  Al  Al15  1  0.77834841  0.41729843  0.33717567  1
  Al  Al16  1  0.89258075  0.54403140  0.07414976  1
  Al  Al17  1  0.45233854  0.41563536  0.88931396  1
  Al  Al18  1  0.56771508  0.51368931  0.63897273  1
  Al  Al19  1  0.10259827  0.76865544  0.31687707  1
  Al  Al20  1  0.22055069  0.87482559  0.06436515  1
  Al  Al21  1  0.78919918  0.75624186  0.81769223  1
  Al  Al22  1  0.88882724  0.89225311  0.56076501  1
  Al  Al23  1  0.43272934  0.76712354  0.32512337  1
  Al  Al24  1  0.55002971  0.88576377  0.13803098  1
  Al  Al25  1  0.10833060  0.76146344  0.81559788  1
  Al  Al26  1  0.21924255  0.87775069  0.56919388  1
  Al  Al27  1  0.77683268  0.76973936  0.32265718  1
  Al  Al28  1  0.87999631  0.87891248  0.06706417  1
  Al  Al29  1  0.43873705  0.76375762  0.81826596  1
  Al  Al30  1  0.55911094  0.88282966  0.63432582  1
  B  B31  1  0.89800429  0.21091303  0.60892425  1
  B  B32  1  0.55355083  0.20272102  0.14679640  1
  B  B33  1  0.15555152  0.23970991  0.55541378  1
  B  B34  1  0.77537956  0.09409301  0.29717357  1
  B  B35  1  0.50623362  0.22817064  0.65021237  1
  N  N36  1  0.20095063  0.21282059  0.40839768  1
  N  N37  1  0.12141099  0.09244664  0.13404681  1
  N  N38  1  0.89161059  0.19681181  0.89778244  1
  N  N39  1  0.83675211  0.09713851  0.63181065  1
  N  N40  1  0.56012804  0.20003790  0.30708143  1
  N  N41  1  0.46267853  0.10911285  0.08087587  1
  N  N42  1  0.22331222  0.20188323  0.88228319  1
  N  N43  1  0.09804090  0.12638496  0.62016072  1
  N  N44  1  0.87098075  0.18971419  0.32729229  1
  N  N45  1  0.75643520  0.09642544  0.13662256  1
  N  N46  1  0.54619946  0.21014140  0.80052123  1
  N  N47  1  0.48716068  0.10155959  0.58216708  1
  N  N48  1  0.21715131  0.54173698  0.37876266  1
  N  N49  1  0.11309555  0.42483680  0.13748991  1
  N  N50  1  0.89681751  0.53670030  0.88189214  1
  N  N51  1  0.79644102  0.39645922  0.60289365  1
  N  N52  1  0.55031787  0.53461003  0.33229682  1
  N  N53  1  0.46128467  0.39561168  0.08159894  1
  N  N54  1  0.21814014  0.53751226  0.87800822  1
  N  N55  1  0.11595278  0.40296091  0.62149950  1
  N  N56  1  0.88399390  0.54138394  0.37691766  1
  N  N57  1  0.77329129  0.43460449  0.10139514  1
  N  N58  1  0.55725043  0.53034485  0.83241785  1
  N  N59  1  0.45589138  0.39691671  0.58393517  1
  N  N60  1  0.21558108  0.87359787  0.38292057  1
  N  N61  1  0.10859215  0.76349056  0.12682304  1
  N  N62  1  0.88610157  0.87708281  0.87852691  1
  N  N63  1  0.79375158  0.75762398  0.62434508  1
  N  N64  1  0.54456075  0.88467481  0.33619377  1
  N  N65  1  0.43764184  0.76479222  0.12381119  1
  N  N66  1  0.21857280  0.87491875  0.87324436  1
  N  N67  1  0.11582633  0.75462761  0.62637586  1
  N  N68  1  0.87146853  0.90309926  0.36884421  1
  N  N69  1  0.78087742  0.76143697  0.13160149  1
  N  N70  1  0.55848049  0.87336530  0.83162484  1
  N  N71  1  0.44543206  0.75953201  0.62095565  1
