# generated using pymatgen
data_Al31B5N36
_symmetry_space_group_name_H-M   'P 1'
_cell_length_a   9.29346954
_cell_length_b   9.17468970
_cell_length_c   9.76721211
_cell_angle_alpha   90.01450165
_cell_angle_beta   89.30614505
_cell_angle_gamma   60.09918852
_symmetry_Int_Tables_number   1
_chemical_formula_structural   Al31B5N36
_chemical_formula_sum   'Al31 B5 N36'
_cell_volume   721.87240661
_cell_formula_units_Z   1
loop_
 _symmetry_equiv_pos_site_id
 _symmetry_equiv_pos_as_xyz
  1  'x, y, z'
loop_
 _atom_site_type_symbol
 _atom_site_label
 _atom_site_symmetry_multiplicity
 _atom_site_fract_x
 _atom_site_fract_y
 _atom_site_fract_z
 _atom_site_occupancy
  Al  Al0  1  0.09811182  0.09811238  0.31224846  1
  Al  Al1  1  0.22805405  0.20474648  0.05051842  1
  Al  Al2  1  0.77529138  0.10069106  0.79734690  1
  Al  Al3  1  0.44598828  0.10099052  0.31159810  1
  Al  Al4  1  0.11826971  0.09722446  0.79024341  1
  Al  Al5  1  0.88343862  0.20420361  0.05338782  1
  Al  Al6  1  0.45612421  0.09708851  0.79560659  1
  Al  Al7  1  0.10827139  0.42935771  0.29802182  1
  Al  Al8  1  0.22581364  0.53325967  0.04562130  1
  Al  Al9  1  0.78255373  0.41652273  0.79154127  1
  Al  Al10  1  0.89146952  0.52760607  0.54368862  1
  Al  Al11  1  0.45105229  0.41730786  0.29796640  1
  Al  Al12  1  0.55648861  0.53310520  0.04587651  1
  Al  Al13  1  0.11700617  0.41695455  0.79254191  1
  Al  Al14  1  0.22932791  0.52430883  0.54624011  1
  Al  Al15  1  0.77111051  0.42861051  0.29799265  1
  Al  Al16  1  0.88872969  0.53740968  0.04447716  1
  Al  Al17  1  0.45100050  0.41574922  0.79896576  1
  Al  Al18  1  0.55343856  0.53235401  0.54562347  1
  Al  Al19  1  0.10532130  0.76693241  0.29729181  1
  Al  Al20  1  0.21945594  0.87655527  0.04752562  1
  Al  Al21  1  0.78095593  0.76011056  0.79533459  1
  Al  Al22  1  0.88462313  0.88543970  0.54267840  1
  Al  Al23  1  0.44055784  0.76467459  0.29648161  1
  Al  Al24  1  0.55524593  0.88056972  0.04853142  1
  Al  Al25  1  0.11097496  0.76205738  0.79596700  1
  Al  Al26  1  0.22863152  0.87600439  0.54789029  1
  Al  Al27  1  0.77275208  0.76885255  0.29665406  1
  Al  Al28  1  0.88009886  0.88258853  0.05279372  1
  Al  Al29  1  0.44769477  0.76014574  0.79827435  1
  Al  Al30  1  0.56151163  0.87869407  0.54984714  1
  B  B31  1  0.82623977  0.23000963  0.52543609  1
  B  B32  1  0.55226529  0.20930295  0.05481690  1
  B  B33  1  0.17641424  0.22474516  0.53231614  1
  B  B34  1  0.76270718  0.09892115  0.30204217  1
  B  B35  1  0.56346486  0.20223198  0.54396630  1
  N  N36  1  0.21342245  0.21019629  0.37621003  1
  N  N37  1  0.10622427  0.09991743  0.11665093  1
  N  N38  1  0.89705773  0.19867546  0.85921972  1
  N  N39  1  0.77047155  0.12170189  0.59807811  1
  N  N40  1  0.57757659  0.19501750  0.37339838  1
  N  N41  1  0.45332958  0.11167650  0.11205189  1
  N  N42  1  0.23340171  0.19962411  0.85914774  1
  N  N43  1  0.14376454  0.10204872  0.59875824  1
  N  N44  1  0.86174339  0.20158748  0.36995040  1
  N  N45  1  0.75100462  0.11051422  0.12883836  1
  N  N46  1  0.56357155  0.20223108  0.88727408  1
  N  N47  1  0.49650632  0.09693586  0.60713133  1
  N  N48  1  0.22286530  0.53779006  0.35341420  1
  N  N49  1  0.10860651  0.42861941  0.10619246  1
  N  N50  1  0.89191766  0.53248341  0.84828222  1
  N  N51  1  0.78478919  0.39864213  0.59130886  1
  N  N52  1  0.54972984  0.54118562  0.35346829  1
  N  N53  1  0.45422250  0.40462006  0.10270410  1
  N  N54  1  0.22429611  0.53485424  0.84965733  1
  N  N55  1  0.11903443  0.39967532  0.59598283  1
  N  N56  1  0.88521568  0.54049970  0.35281558  1
  N  N57  1  0.77548209  0.42871190  0.10654279  1
  N  N58  1  0.55953035  0.53322943  0.85132678  1
  N  N59  1  0.45809062  0.39930826  0.60052072  1
  N  N60  1  0.21969897  0.87289081  0.35660407  1
  N  N61  1  0.10858329  0.76210174  0.10346602  1
  N  N62  1  0.88783037  0.87636557  0.85571655  1
  N  N63  1  0.78903711  0.75285329  0.60148439  1
  N  N64  1  0.55194757  0.87467040  0.35643612  1
  N  N65  1  0.44254301  0.76317474  0.10266658  1
  N  N66  1  0.22328093  0.87339979  0.85293899  1
  N  N67  1  0.11208772  0.76070620  0.60142484  1
  N  N68  1  0.87210620  0.90110772  0.34749453  1
  N  N69  1  0.77629704  0.76166686  0.10401070  1
  N  N70  1  0.55866312  0.87205386  0.85504525  1
  N  N71  1  0.45281230  0.75683129  0.60536971  1
