# generated using pymatgen
data_Al31B5N36
_symmetry_space_group_name_H-M   'P 1'
_cell_length_a   9.34725068
_cell_length_b   9.14930499
_cell_length_c   9.79767529
_cell_angle_alpha   90.23707869
_cell_angle_beta   90.61447583
_cell_angle_gamma   60.46208924
_symmetry_Int_Tables_number   1
_chemical_formula_structural   Al31B5N36
_chemical_formula_sum   'Al31 B5 N36'
_cell_volume   728.96009163
_cell_formula_units_Z   1
loop_
 _symmetry_equiv_pos_site_id
 _symmetry_equiv_pos_as_xyz
  1  'x, y, z'
loop_
 _atom_site_type_symbol
 _atom_site_label
 _atom_site_symmetry_multiplicity
 _atom_site_fract_x
 _atom_site_fract_y
 _atom_site_fract_z
 _atom_site_occupancy
  Al  Al0  1  0.12093022  0.09522568  0.40943648  1
  Al  Al1  1  0.22235046  0.20688712  0.14533001  1
  Al  Al2  1  0.75993754  0.10170207  0.88916303  1
  Al  Al3  1  0.45054622  0.10278055  0.39716620  1
  Al  Al4  1  0.09985891  0.09864400  0.87981244  1
  Al  Al5  1  0.88022950  0.20218135  0.14897276  1
  Al  Al6  1  0.43669919  0.10003858  0.89048911  1
  Al  Al7  1  0.11328736  0.42058183  0.40268276  1
  Al  Al8  1  0.22186337  0.53593896  0.15096390  1
  Al  Al9  1  0.77312340  0.42680672  0.89700973  1
  Al  Al10  1  0.88944264  0.52846163  0.64985316  1
  Al  Al11  1  0.44980882  0.41249266  0.39430229  1
  Al  Al12  1  0.55459556  0.53250604  0.15035684  1
  Al  Al13  1  0.10560332  0.43044483  0.89724116  1
  Al  Al14  1  0.22368285  0.52905945  0.65069356  1
  Al  Al15  1  0.77904500  0.41519787  0.40188660  1
  Al  Al16  1  0.88712043  0.53916856  0.15217203  1
  Al  Al17  1  0.44000135  0.42578873  0.90047374  1
  Al  Al18  1  0.55569324  0.52602975  0.65040977  1
  Al  Al19  1  0.11531324  0.76252851  0.40045713  1
  Al  Al20  1  0.21851759  0.87814791  0.14817830  1
  Al  Al21  1  0.77484309  0.76402438  0.90083351  1
  Al  Al22  1  0.89653544  0.87539027  0.64571529  1
  Al  Al23  1  0.44937779  0.75883856  0.39901802  1
  Al  Al24  1  0.55319966  0.88212407  0.14970887  1
  Al  Al25  1  0.10547450  0.76551698  0.90097677  1
  Al  Al26  1  0.23227164  0.87254220  0.64880796  1
  Al  Al27  1  0.77740872  0.76992831  0.40209973  1
  Al  Al28  1  0.87540594  0.89094235  0.15413884  1
  Al  Al29  1  0.44174756  0.76245026  0.90006419  1
  Al  Al30  1  0.55906878  0.87918124  0.64807063  1
  B  B31  1  0.84543153  0.22288134  0.65339635  1
  B  B32  1  0.54239470  0.21398078  0.15244702  1
  B  B33  1  0.18427596  0.22273296  0.66243752  1
  B  B34  1  0.84392905  0.07366480  0.42015568  1
  B  B35  1  0.49913192  0.22906526  0.65999298  1
  N  N36  1  0.22521513  0.20307771  0.33580187  1
  N  N37  1  0.10037561  0.10152154  0.07794370  1
  N  N38  1  0.87383752  0.20773902  0.81092531  1
  N  N39  1  0.83261103  0.09195788  0.57176295  1
  N  N40  1  0.54449524  0.20993920  0.30679163  1
  N  N41  1  0.44674195  0.11118793  0.08532475  1
  N  N42  1  0.21390906  0.21107294  0.81970202  1
  N  N43  1  0.15171896  0.09846696  0.59829617  1
  N  N44  1  0.89421565  0.18606532  0.34463051  1
  N  N45  1  0.74460663  0.11392633  0.08423821  1
  N  N46  1  0.54176964  0.21198842  0.81318880  1
  N  N47  1  0.47189540  0.10560095  0.59090098  1
  N  N48  1  0.21972983  0.53877152  0.34503670  1
  N  N49  1  0.10501432  0.43064984  0.08877328  1
  N  N50  1  0.88435555  0.53882454  0.84174413  1
  N  N51  1  0.78331127  0.39990490  0.59691508  1
  N  N52  1  0.55822732  0.53235270  0.34442264  1
  N  N53  1  0.44826496  0.40904313  0.09295709  1
  N  N54  1  0.21896410  0.54049321  0.84306601  1
  N  N55  1  0.11734028  0.40172609  0.59977191  1
  N  N56  1  0.88854025  0.53693978  0.34768940  1
  N  N57  1  0.77513025  0.42666745  0.09119958  1
  N  N58  1  0.55179684  0.53703611  0.84280770  1
  N  N59  1  0.44945629  0.40010130  0.59435101  1
  N  N60  1  0.22680122  0.87334943  0.34290413  1
  N  N61  1  0.10236610  0.76691774  0.09561350  1
  N  N62  1  0.88502790  0.87638059  0.83868029  1
  N  N63  1  0.78441636  0.75683698  0.59340973  1
  N  N64  1  0.55753077  0.87463634  0.34330769  1
  N  N65  1  0.44173020  0.76293473  0.09361626  1
  N  N66  1  0.22179530  0.87070077  0.84029716  1
  N  N67  1  0.12094475  0.75383072  0.59249089  1
  N  N68  1  0.88461271  0.90131836  0.35408270  1
  N  N69  1  0.77559332  0.76542511  0.09633070  1
  N  N70  1  0.55371914  0.87364558  0.84162919  1
  N  N71  1  0.45518771  0.75206827  0.59211646  1
