# generated using pymatgen
data_Al31B5N36
_symmetry_space_group_name_H-M   'P 1'
_cell_length_a   9.32795079
_cell_length_b   9.18589599
_cell_length_c   9.94815542
_cell_angle_alpha   90.06007762
_cell_angle_beta   89.87575900
_cell_angle_gamma   60.24939291
_symmetry_Int_Tables_number   1
_chemical_formula_structural   Al31B5N36
_chemical_formula_sum   'Al31 B5 N36'
_cell_volume   740.05597400
_cell_formula_units_Z   1
loop_
 _symmetry_equiv_pos_site_id
 _symmetry_equiv_pos_as_xyz
  1  'x, y, z'
loop_
 _atom_site_type_symbol
 _atom_site_label
 _atom_site_symmetry_multiplicity
 _atom_site_fract_x
 _atom_site_fract_y
 _atom_site_fract_z
 _atom_site_occupancy
  Al  Al0  1  0.09657369  0.09964426  0.33547656  1
  Al  Al1  1  0.22363549  0.20783026  0.07770467  1
  Al  Al2  1  0.79021199  0.09513840  0.80404814  1
  Al  Al3  1  0.45125790  0.10157433  0.40545465  1
  Al  Al4  1  0.11850535  0.09704981  0.81415069  1
  Al  Al5  1  0.88680623  0.20541706  0.07463983  1
  Al  Al6  1  0.45968036  0.09157077  0.89304342  1
  Al  Al7  1  0.10406940  0.42928599  0.32441397  1
  Al  Al8  1  0.22209688  0.53492149  0.07521888  1
  Al  Al9  1  0.78274063  0.41679364  0.81352654  1
  Al  Al10  1  0.88659581  0.52920603  0.56798212  1
  Al  Al11  1  0.44219380  0.42638639  0.32834165  1
  Al  Al12  1  0.56026340  0.53602812  0.07376712  1
  Al  Al13  1  0.11757894  0.41552264  0.81713176  1
  Al  Al14  1  0.22164020  0.52819550  0.56707249  1
  Al  Al15  1  0.76887262  0.42888886  0.32222784  1
  Al  Al16  1  0.88894455  0.53748430  0.06878644  1
  Al  Al17  1  0.44609164  0.42434646  0.85786058  1
  Al  Al18  1  0.55224924  0.52685408  0.56938454  1
  Al  Al19  1  0.10110024  0.77108582  0.31814369  1
  Al  Al20  1  0.21926356  0.87648224  0.06993855  1
  Al  Al21  1  0.78904017  0.75564638  0.82039128  1
  Al  Al22  1  0.89035539  0.88187850  0.56160663  1
  Al  Al23  1  0.43323907  0.76572469  0.32380743  1
  Al  Al24  1  0.55223049  0.88565694  0.13968515  1
  Al  Al25  1  0.11046571  0.76112731  0.81813795  1
  Al  Al26  1  0.22566114  0.87634842  0.57255788  1
  Al  Al27  1  0.77656848  0.76715201  0.32364677  1
  Al  Al28  1  0.88216571  0.88031407  0.07181463  1
  Al  Al29  1  0.44364963  0.75716368  0.82120284  1
  Al  Al30  1  0.55765050  0.88269037  0.63763037  1
  B  B31  1  0.83250035  0.22188518  0.54644657  1
  B  B32  1  0.55876363  0.20180625  0.15443550  1
  B  B33  1  0.16994775  0.22764341  0.56044924  1
  B  B34  1  0.77132825  0.09497320  0.31206375  1
  B  B35  1  0.50492646  0.22860996  0.65621843  1
  N  N36  1  0.20617141  0.21400566  0.40599415  1
  N  N37  1  0.10906220  0.09841614  0.14209583  1
  N  N38  1  0.89591191  0.20100208  0.88444120  1
  N  N39  1  0.82630892  0.09484740  0.62185236  1
  N  N40  1  0.56845861  0.19354428  0.31518909  1
  N  N41  1  0.46632330  0.11048569  0.08717455  1
  N  N42  1  0.22731500  0.20176307  0.88939483  1
  N  N43  1  0.15330857  0.09869777  0.62790744  1
  N  N44  1  0.85874328  0.20302519  0.38884964  1
  N  N45  1  0.76734323  0.10296331  0.14703682  1
  N  N46  1  0.55536006  0.20311167  0.80766899  1
  N  N47  1  0.48957506  0.10070094  0.58672555  1
  N  N48  1  0.21492305  0.54296563  0.37530331  1
  N  N49  1  0.10833131  0.42781381  0.13581747  1
  N  N50  1  0.89369700  0.53087754  0.87494355  1
  N  N51  1  0.78210844  0.39816265  0.61498252  1
  N  N52  1  0.54833604  0.54247610  0.37821481  1
  N  N53  1  0.45661137  0.40485362  0.11467831  1
  N  N54  1  0.21903142  0.53707453  0.88138923  1
  N  N55  1  0.11460277  0.40223219  0.62287268  1
  N  N56  1  0.88240541  0.54116670  0.37981235  1
  N  N57  1  0.77800591  0.42827874  0.13319235  1
  N  N58  1  0.56340402  0.53478667  0.88112323  1
  N  N59  1  0.44517243  0.40482894  0.61143515  1
  N  N60  1  0.21505023  0.87517901  0.38338857  1
  N  N61  1  0.10836351  0.76357874  0.12803697  1
  N  N62  1  0.88799130  0.87797034  0.87987856  1
  N  N63  1  0.79207915  0.75349230  0.62584564  1
  N  N64  1  0.54591742  0.88398232  0.33865041  1
  N  N65  1  0.43892214  0.76245289  0.12813642  1
  N  N66  1  0.22231915  0.87266866  0.87794818  1
  N  N67  1  0.11526208  0.75474372  0.62673108  1
  N  N68  1  0.87108713  0.90229017  0.36921062  1
  N  N69  1  0.78177084  0.75900595  0.12868558  1
  N  N70  1  0.55936594  0.87245795  0.83690994  1
  N  N71  1  0.44976654  0.75141441  0.62764113  1
