# generated using pymatgen
data_Al31B5N36
_symmetry_space_group_name_H-M   'P 1'
_cell_length_a   9.29472435
_cell_length_b   9.16557050
_cell_length_c   9.90445874
_cell_angle_alpha   90.03889064
_cell_angle_beta   89.57061842
_cell_angle_gamma   60.22694527
_symmetry_Int_Tables_number   1
_chemical_formula_structural   Al31B5N36
_chemical_formula_sum   'Al31 B5 N36'
_cell_volume   732.36612975
_cell_formula_units_Z   1
loop_
 _symmetry_equiv_pos_site_id
 _symmetry_equiv_pos_as_xyz
  1  'x, y, z'
loop_
 _atom_site_type_symbol
 _atom_site_label
 _atom_site_symmetry_multiplicity
 _atom_site_fract_x
 _atom_site_fract_y
 _atom_site_fract_z
 _atom_site_occupancy
  Al  Al0  1  0.09864985  0.09843872  0.32258565  1
  Al  Al1  1  0.23432958  0.20293312  0.06489817  1
  Al  Al2  1  0.78754366  0.09511393  0.80230444  1
  Al  Al3  1  0.44374512  0.10089280  0.35281577  1
  Al  Al4  1  0.11757282  0.09731104  0.80400805  1
  Al  Al5  1  0.88693125  0.20367750  0.06391137  1
  Al  Al6  1  0.44367155  0.09177046  0.79412890  1
  Al  Al7  1  0.10686989  0.42924877  0.30975578  1
  Al  Al8  1  0.22882938  0.53008692  0.05902381  1
  Al  Al9  1  0.78060852  0.41764337  0.80270096  1
  Al  Al10  1  0.88984710  0.52785618  0.55485507  1
  Al  Al11  1  0.44419581  0.43036620  0.31116799  1
  Al  Al12  1  0.55753223  0.53070429  0.05935942  1
  Al  Al13  1  0.11461470  0.41884152  0.80623984  1
  Al  Al14  1  0.22541237  0.52632611  0.55729456  1
  Al  Al15  1  0.77082618  0.42872373  0.30962064  1
  Al  Al16  1  0.88919367  0.53649127  0.05665793  1
  Al  Al17  1  0.44209069  0.43132000  0.80765496  1
  Al  Al18  1  0.55213350  0.53352411  0.55609839  1
  Al  Al19  1  0.10520989  0.76776200  0.30815819  1
  Al  Al20  1  0.22134721  0.87538021  0.05976168  1
  Al  Al21  1  0.78020532  0.76088345  0.80811749  1
  Al  Al22  1  0.88388521  0.88537429  0.55142323  1
  Al  Al23  1  0.44046758  0.76689069  0.30685699  1
  Al  Al24  1  0.55506492  0.88360484  0.06134398  1
  Al  Al25  1  0.11045747  0.76244234  0.80759496  1
  Al  Al26  1  0.22785948  0.87694575  0.56016702  1
  Al  Al27  1  0.77244137  0.76937716  0.30634737  1
  Al  Al28  1  0.88481487  0.87837422  0.06239480  1
  Al  Al29  1  0.44728019  0.76035425  0.81160283  1
  Al  Al30  1  0.56443026  0.87190668  0.56150296  1
  B  B31  1  0.82185485  0.22929563  0.53438772  1
  B  B32  1  0.55788305  0.19939172  0.15727563  1
  B  B33  1  0.17344150  0.22611971  0.54835173  1
  B  B34  1  0.77479949  0.09388601  0.30589607  1
  B  B35  1  0.55558398  0.20835087  0.64030606  1
  N  N36  1  0.20703745  0.21338737  0.39358965  1
  N  N37  1  0.10914122  0.09884471  0.12881717  1
  N  N38  1  0.89680907  0.20048122  0.87188579  1
  N  N39  1  0.77348373  0.11759237  0.60730226  1
  N  N40  1  0.57846101  0.19654838  0.32017904  1
  N  N41  1  0.45365602  0.10632640  0.13302770  1
  N  N42  1  0.23146905  0.20106024  0.87337937  1
  N  N43  1  0.14481393  0.10125964  0.61527327  1
  N  N44  1  0.86238853  0.20097864  0.38132677  1
  N  N45  1  0.76728904  0.10097034  0.13938752  1
  N  N46  1  0.56172419  0.20309253  0.80682957  1
  N  N47  1  0.48090767  0.09945774  0.59976949  1
  N  N48  1  0.21919715  0.54002546  0.36705289  1
  N  N49  1  0.10940720  0.42742340  0.11969665  1
  N  N50  1  0.89014953  0.53338145  0.86203186  1
  N  N51  1  0.78223817  0.39797386  0.60268002  1
  N  N52  1  0.55023140  0.54451400  0.36699807  1
  N  N53  1  0.45478130  0.40480547  0.11797714  1
  N  N54  1  0.22123576  0.53719376  0.86518216  1
  N  N55  1  0.11604211  0.40165882  0.61122377  1
  N  N56  1  0.88465108  0.54143223  0.36570111  1
  N  N57  1  0.77675861  0.42719246  0.12004231  1
  N  N58  1  0.55962995  0.53467428  0.86691063  1
  N  N59  1  0.45056823  0.40955814  0.61197459  1
  N  N60  1  0.22025701  0.87344373  0.36998221  1
  N  N61  1  0.11172914  0.75977047  0.11666344  1
  N  N62  1  0.88880007  0.87581602  0.86863098  1
  N  N63  1  0.78892457  0.75326401  0.61601404  1
  N  N64  1  0.55555130  0.86936543  0.37200938  1
  N  N65  1  0.44431157  0.76245722  0.11518303  1
  N  N66  1  0.22316512  0.87323807  0.86676690  1
  N  N67  1  0.11060904  0.76197021  0.61465914  1
  N  N68  1  0.87367045  0.89981586  0.35900758  1
  N  N69  1  0.77736761  0.76118680  0.11556202  1
  N  N70  1  0.55750678  0.87425753  0.86726133  1
  N  N71  1  0.45187853  0.75608729  0.62037075  1
