# generated using pymatgen
data_Al31B5N36
_symmetry_space_group_name_H-M   'P 1'
_cell_length_a   9.30461572
_cell_length_b   9.16361300
_cell_length_c   9.94690036
_cell_angle_alpha   90.18490945
_cell_angle_beta   89.74468847
_cell_angle_gamma   60.43237847
_symmetry_Int_Tables_number   1
_chemical_formula_structural   Al31B5N36
_chemical_formula_sum   'Al31 B5 N36'
_cell_volume   737.64358221
_cell_formula_units_Z   1
loop_
 _symmetry_equiv_pos_site_id
 _symmetry_equiv_pos_as_xyz
  1  'x, y, z'
loop_
 _atom_site_type_symbol
 _atom_site_label
 _atom_site_symmetry_multiplicity
 _atom_site_fract_x
 _atom_site_fract_y
 _atom_site_fract_z
 _atom_site_occupancy
  Al  Al0  1  0.09823889  0.09884691  0.32266789  1
  Al  Al1  1  0.23046176  0.20519885  0.06571749  1
  Al  Al2  1  0.79131646  0.09411735  0.79447509  1
  Al  Al3  1  0.44664115  0.10905176  0.39647737  1
  Al  Al4  1  0.11630967  0.09711088  0.80232330  1
  Al  Al5  1  0.88705516  0.20437757  0.06399731  1
  Al  Al6  1  0.45124219  0.09543521  0.85646848  1
  Al  Al7  1  0.10454036  0.43067776  0.31065550  1
  Al  Al8  1  0.22768532  0.53150068  0.05940443  1
  Al  Al9  1  0.78162317  0.41716847  0.80266108  1
  Al  Al10  1  0.88754470  0.52860632  0.55482371  1
  Al  Al11  1  0.44280803  0.42955681  0.30609772  1
  Al  Al12  1  0.55808030  0.53181729  0.05955444  1
  Al  Al13  1  0.11375394  0.41898598  0.80542497  1
  Al  Al14  1  0.22063023  0.52932772  0.55507859  1
  Al  Al15  1  0.76917045  0.42888003  0.30981212  1
  Al  Al16  1  0.89008801  0.53599907  0.05766201  1
  Al  Al17  1  0.44058447  0.43511939  0.81057201  1
  Al  Al18  1  0.55321365  0.52800774  0.55574435  1
  Al  Al19  1  0.10410688  0.76874628  0.30670166  1
  Al  Al20  1  0.22162971  0.87586618  0.05977078  1
  Al  Al21  1  0.78336477  0.75865969  0.80773338  1
  Al  Al22  1  0.89136729  0.88158080  0.55003133  1
  Al  Al23  1  0.43930014  0.76886757  0.30945335  1
  Al  Al24  1  0.56054243  0.87491525  0.06159359  1
  Al  Al25  1  0.10963294  0.76243615  0.80775486  1
  Al  Al26  1  0.22708168  0.87642313  0.56007294  1
  Al  Al27  1  0.76897526  0.77233686  0.30826761  1
  Al  Al28  1  0.88415202  0.87938199  0.06227325  1
  Al  Al29  1  0.44615091  0.75926954  0.80966579  1
  Al  Al30  1  0.56518872  0.86818438  0.56849327  1
  B  B31  1  0.83275657  0.22187311  0.53492553  1
  B  B32  1  0.55801543  0.19663023  0.14784428  1
  B  B33  1  0.16808191  0.22869893  0.54890384  1
  B  B34  1  0.77309485  0.09431210  0.30313071  1
  B  B35  1  0.51125543  0.22436292  0.64797597  1
  N  N36  1  0.20509318  0.21589334  0.39439770  1
  N  N37  1  0.10993546  0.09879915  0.12952889  1
  N  N38  1  0.89575072  0.20131689  0.87338714  1
  N  N39  1  0.82108245  0.09682329  0.61021214  1
  N  N40  1  0.57106706  0.19298033  0.31073474  1
  N  N41  1  0.46498233  0.10942189  0.08345288  1
  N  N42  1  0.22470042  0.20389218  0.87496092  1
  N  N43  1  0.14999354  0.09976005  0.61550890  1
  N  N44  1  0.86073505  0.20240232  0.37796621  1
  N  N45  1  0.76768470  0.10162932  0.13846184  1
  N  N46  1  0.55953199  0.20355081  0.79783893  1
  N  N47  1  0.48246565  0.10188659  0.58451218  1
  N  N48  1  0.21866772  0.54066181  0.36560339  1
  N  N49  1  0.10982750  0.42762373  0.12171377  1
  N  N50  1  0.89122917  0.53308027  0.86343017  1
  N  N51  1  0.78185886  0.39833415  0.60327706  1
  N  N52  1  0.54821895  0.54350894  0.36718678  1
  N  N53  1  0.45419296  0.40730129  0.11480299  1
  N  N54  1  0.22073436  0.53688809  0.86656857  1
  N  N55  1  0.11351612  0.40341004  0.61127579  1
  N  N56  1  0.88232601  0.54327994  0.36634110  1
  N  N57  1  0.77649125  0.42804520  0.12047520  1
  N  N58  1  0.56057684  0.53465548  0.86741568  1
  N  N59  1  0.44223694  0.41078120  0.61408833  1
  N  N60  1  0.21891538  0.87412106  0.37043844  1
  N  N61  1  0.11117903  0.76092100  0.11607130  1
  N  N62  1  0.88754050  0.87727017  0.86921172  1
  N  N63  1  0.78997717  0.75385258  0.61682028  1
  N  N64  1  0.55164805  0.87493223  0.37486467  1
  N  N65  1  0.44417860  0.76282360  0.11723343  1
  N  N66  1  0.22344050  0.87315824  0.86684744  1
  N  N67  1  0.11528526  0.75608231  0.61552055  1
  N  N68  1  0.87297450  0.90016069  0.35780345  1
  N  N69  1  0.77903867  0.75993529  0.11779975  1
  N  N70  1  0.56235290  0.86509390  0.86638895  1
  N  N71  1  0.45170973  0.75173778  0.62006519  1
