# generated using pymatgen
data_Al31B5N36
_symmetry_space_group_name_H-M   'P 1'
_cell_length_a   9.31441682
_cell_length_b   9.23807209
_cell_length_c   10.07679242
_cell_angle_alpha   89.51570981
_cell_angle_beta   90.27150709
_cell_angle_gamma   59.78862465
_symmetry_Int_Tables_number   1
_chemical_formula_structural   Al31B5N36
_chemical_formula_sum   'Al31 B5 N36'
_cell_volume   749.24172953
_cell_formula_units_Z   1
loop_
 _symmetry_equiv_pos_site_id
 _symmetry_equiv_pos_as_xyz
  1  'x, y, z'
loop_
 _atom_site_type_symbol
 _atom_site_label
 _atom_site_symmetry_multiplicity
 _atom_site_fract_x
 _atom_site_fract_y
 _atom_site_fract_z
 _atom_site_occupancy
  Al  Al0  1  0.10151767  0.09419018  0.32028080  1
  Al  Al1  1  0.22538725  0.20648719  0.07021160  1
  Al  Al2  1  0.78543324  0.09856594  0.80664740  1
  Al  Al3  1  0.44905761  0.10266117  0.40071416  1
  Al  Al4  1  0.10494838  0.10202318  0.82188900  1
  Al  Al5  1  0.88509219  0.20113343  0.10053756  1
  Al  Al6  1  0.45602372  0.09354084  0.88738648  1
  Al  Al7  1  0.10552735  0.43013731  0.32301502  1
  Al  Al8  1  0.22195204  0.53531081  0.07167116  1
  Al  Al9  1  0.77416361  0.42510281  0.89637817  1
  Al  Al10  1  0.88984501  0.53466813  0.56817902  1
  Al  Al11  1  0.45269445  0.41146956  0.38679210  1
  Al  Al12  1  0.55623919  0.52661315  0.14433902  1
  Al  Al13  1  0.11470580  0.41955339  0.81546145  1
  Al  Al14  1  0.21715857  0.53394912  0.56717785  1
  Al  Al15  1  0.77579871  0.40855713  0.38120520  1
  Al  Al16  1  0.89452673  0.53559958  0.07935992  1
  Al  Al17  1  0.45398861  0.41600331  0.88932772  1
  Al  Al18  1  0.56575969  0.51436464  0.63580685  1
  Al  Al19  1  0.10211350  0.76938723  0.31531291  1
  Al  Al20  1  0.22496333  0.87282309  0.06424576  1
  Al  Al21  1  0.77558040  0.76172962  0.88524511  1
  Al  Al22  1  0.89282713  0.89577730  0.55876462  1
  Al  Al23  1  0.43388297  0.76616291  0.32475051  1
  Al  Al24  1  0.55670289  0.88333039  0.14175178  1
  Al  Al25  1  0.10775137  0.76121563  0.81506247  1
  Al  Al26  1  0.22213254  0.87719360  0.56817043  1
  Al  Al27  1  0.76829905  0.77394054  0.37939560  1
  Al  Al28  1  0.88449654  0.88298294  0.06830077  1
  Al  Al29  1  0.44052904  0.76135350  0.81487737  1
  Al  Al30  1  0.56663930  0.88171120  0.63803234  1
  B  B31  1  0.90169150  0.20705371  0.60463848  1
  B  B32  1  0.55258317  0.20326734  0.14618076  1
  B  B33  1  0.15765039  0.23931765  0.55475905  1
  B  B34  1  0.77572542  0.09372850  0.29534402  1
  B  B35  1  0.50290204  0.22953337  0.65001221  1
  N  N36  1  0.20021064  0.21340844  0.40796998  1
  N  N37  1  0.12250267  0.09146804  0.13291937  1
  N  N38  1  0.89256446  0.19464724  0.89448617  1
  N  N39  1  0.83492191  0.10002096  0.62910556  1
  N  N40  1  0.55800658  0.20093502  0.30667502  1
  N  N41  1  0.46334655  0.10838620  0.08046004  1
  N  N42  1  0.22305097  0.20211463  0.88172211  1
  N  N43  1  0.09699517  0.12774776  0.61919240  1
  N  N44  1  0.87030297  0.19160941  0.32350938  1
  N  N45  1  0.75550272  0.09753495  0.13666713  1
  N  N46  1  0.54524276  0.21101685  0.79968581  1
  N  N47  1  0.48271073  0.10327430  0.58318800  1
  N  N48  1  0.21347193  0.54354420  0.37849537  1
  N  N49  1  0.11545648  0.42331527  0.13718165  1
  N  N50  1  0.89730997  0.53158872  0.87501154  1
  N  N51  1  0.79433498  0.39503360  0.58104085  1
  N  N52  1  0.55167535  0.53288594  0.33716729  1
  N  N53  1  0.46236802  0.39665417  0.08237367  1
  N  N54  1  0.21877708  0.53735905  0.87779845  1
  N  N55  1  0.11719706  0.40265865  0.62135896  1
  N  N56  1  0.88309705  0.53771725  0.37276973  1
  N  N57  1  0.77002926  0.43381106  0.08738686  1
  N  N58  1  0.56013149  0.52722920  0.82588414  1
  N  N59  1  0.45428275  0.39700942  0.58240560  1
  N  N60  1  0.21581387  0.87405585  0.38250154  1
  N  N61  1  0.11111404  0.76281920  0.12654220  1
  N  N62  1  0.88758704  0.87976177  0.87626323  1
  N  N63  1  0.78567050  0.76580033  0.57956084  1
  N  N64  1  0.54482164  0.88640733  0.33348185  1
  N  N65  1  0.44121263  0.76221304  0.12729597  1
  N  N66  1  0.22149607  0.87267759  0.87274588  1
  N  N67  1  0.11672785  0.75566819  0.62595773  1
  N  N68  1  0.87191585  0.90620921  0.36422903  1
  N  N69  1  0.77447571  0.76391024  0.08641327  1
  N  N70  1  0.55805264  0.87473015  0.82849141  1
  N  N71  1  0.44832553  0.76013034  0.61946397  1
