# generated using pymatgen
data_Al31B5N36
_symmetry_space_group_name_H-M   'P 1'
_cell_length_a   9.35431437
_cell_length_b   9.14406723
_cell_length_c   9.80970593
_cell_angle_alpha   90.30371396
_cell_angle_beta   90.85380069
_cell_angle_gamma   60.59983745
_symmetry_Int_Tables_number   1
_chemical_formula_structural   Al31B5N36
_chemical_formula_sum   'Al31 B5 N36'
_cell_volume   730.94051516
_cell_formula_units_Z   1
loop_
 _symmetry_equiv_pos_site_id
 _symmetry_equiv_pos_as_xyz
  1  'x, y, z'
loop_
 _atom_site_type_symbol
 _atom_site_label
 _atom_site_symmetry_multiplicity
 _atom_site_fract_x
 _atom_site_fract_y
 _atom_site_fract_z
 _atom_site_occupancy
  Al  Al0  1  0.12251010  0.09483738  0.41651903  1
  Al  Al1  1  0.22261585  0.20721355  0.15419184  1
  Al  Al2  1  0.75906687  0.10172271  0.89665506  1
  Al  Al3  1  0.45506542  0.10079183  0.40380715  1
  Al  Al4  1  0.09777949  0.09825655  0.89212564  1
  Al  Al5  1  0.87891869  0.20283065  0.15746094  1
  Al  Al6  1  0.43406935  0.10156596  0.89587055  1
  Al  Al7  1  0.11353024  0.41955091  0.41116431  1
  Al  Al8  1  0.22105635  0.53632354  0.15921059  1
  Al  Al9  1  0.77134618  0.42763243  0.90501240  1
  Al  Al10  1  0.88771837  0.52947260  0.65866048  1
  Al  Al11  1  0.44949193  0.41260879  0.40155525  1
  Al  Al12  1  0.55401203  0.53297841  0.15818077  1
  Al  Al13  1  0.10325791  0.43174789  0.90618286  1
  Al  Al14  1  0.22398227  0.52734048  0.65885502  1
  Al  Al15  1  0.77915118  0.41508346  0.41020083  1
  Al  Al16  1  0.88634519  0.53956615  0.16000116  1
  Al  Al17  1  0.43898385  0.42629988  0.90752326  1
  Al  Al18  1  0.55470202  0.52692886  0.65749345  1
  Al  Al19  1  0.11636239  0.76180786  0.40927524  1
  Al  Al20  1  0.21861306  0.87744498  0.15655744  1
  Al  Al21  1  0.77343265  0.76541168  0.90880282  1
  Al  Al22  1  0.89761682  0.87441337  0.65329376  1
  Al  Al23  1  0.45005738  0.75903691  0.40666067  1
  Al  Al24  1  0.55279565  0.88279349  0.15609872  1
  Al  Al25  1  0.10477912  0.76507950  0.90878535  1
  Al  Al26  1  0.23193680  0.87320441  0.65771873  1
  Al  Al27  1  0.77870166  0.76893062  0.40919237  1
  Al  Al28  1  0.87519953  0.89162296  0.16194198  1
  Al  Al29  1  0.44102315  0.76297544  0.90750066  1
  Al  Al30  1  0.56235502  0.87785197  0.65496285  1
  B  B31  1  0.84623925  0.22286200  0.66214124  1
  B  B32  1  0.53915166  0.21626095  0.15856579  1
  B  B33  1  0.17259905  0.22678606  0.67311516  1
  B  B34  1  0.84824490  0.07215672  0.42906602  1
  B  B35  1  0.50303234  0.22726354  0.66614379  1
  N  N36  1  0.22800833  0.20205181  0.34475438  1
  N  N37  1  0.09956263  0.10165395  0.08858388  1
  N  N38  1  0.87322518  0.20824681  0.81974573  1
  N  N39  1  0.83703182  0.09035385  0.57991672  1
  N  N40  1  0.54228920  0.21208225  0.31165732  1
  N  N41  1  0.44491701  0.11220190  0.09097286  1
  N  N42  1  0.20869057  0.21252222  0.82839298  1
  N  N43  1  0.14975716  0.09917283  0.60587543  1
  N  N44  1  0.89524181  0.18623333  0.35287644  1
  N  N45  1  0.74473863  0.11386573  0.09107784  1
  N  N46  1  0.54092474  0.21272608  0.82052233  1
  N  N47  1  0.48774916  0.09893644  0.59476418  1
  N  N48  1  0.21931732  0.53863346  0.35334518  1
  N  N49  1  0.10393841  0.43085489  0.09733158  1
  N  N50  1  0.88223874  0.54026461  0.85029026  1
  N  N51  1  0.78243406  0.40019829  0.60533922  1
  N  N52  1  0.55835829  0.53247429  0.35227522  1
  N  N53  1  0.44667401  0.41044328  0.09968307  1
  N  N54  1  0.21784259  0.54005772  0.85089311  1
  N  N55  1  0.11455441  0.40178271  0.60867687  1
  N  N56  1  0.88924478  0.53594839  0.35510073  1
  N  N57  1  0.77391286  0.42714326  0.09900931  1
  N  N58  1  0.55043246  0.53791660  0.84977863  1
  N  N59  1  0.44910123  0.40014194  0.60132619  1
  N  N60  1  0.22754922  0.87278977  0.35100867  1
  N  N61  1  0.10173907  0.76685001  0.10335274  1
  N  N62  1  0.88447746  0.87650811  0.84595549  1
  N  N63  1  0.78646860  0.75477656  0.60024825  1
  N  N64  1  0.55920558  0.87328253  0.34929062  1
  N  N65  1  0.44101252  0.76325405  0.10086065  1
  N  N66  1  0.22053354  0.87156436  0.84912419  1
  N  N67  1  0.12207119  0.75249040  0.60109433  1
  N  N68  1  0.88595655  0.90122080  0.36220347  1
  N  N69  1  0.77502406  0.76602639  0.10391389  1
  N  N70  1  0.55255940  0.87473152  0.84843110  1
  N  N71  1  0.45458045  0.75359949  0.59975622  1
