# generated using pymatgen
data_Al31B5N36
_symmetry_space_group_name_H-M   'P 1'
_cell_length_a   9.26753354
_cell_length_b   9.15069323
_cell_length_c   9.87238575
_cell_angle_alpha   89.97245106
_cell_angle_beta   89.41381367
_cell_angle_gamma   60.09574492
_symmetry_Int_Tables_number   1
_chemical_formula_structural   Al31B5N36
_chemical_formula_sum   'Al31 B5 N36'
_cell_volume   725.70515510
_cell_formula_units_Z   1
loop_
 _symmetry_equiv_pos_site_id
 _symmetry_equiv_pos_as_xyz
  1  'x, y, z'
loop_
 _atom_site_type_symbol
 _atom_site_label
 _atom_site_symmetry_multiplicity
 _atom_site_fract_x
 _atom_site_fract_y
 _atom_site_fract_z
 _atom_site_occupancy
  Al  Al0  1  0.09764730  0.09878603  0.32342898  1
  Al  Al1  1  0.22923403  0.20457839  0.06273584  1
  Al  Al2  1  0.77521021  0.10053619  0.80852410  1
  Al  Al3  1  0.44562341  0.10101142  0.32759142  1
  Al  Al4  1  0.11903665  0.09676810  0.80237478  1
  Al  Al5  1  0.88399069  0.20407845  0.06345939  1
  Al  Al6  1  0.45522379  0.09783913  0.80732070  1
  Al  Al7  1  0.10807226  0.42929106  0.31017609  1
  Al  Al8  1  0.22705185  0.53187101  0.05755970  1
  Al  Al9  1  0.78189528  0.41688586  0.80302965  1
  Al  Al10  1  0.89046823  0.52790124  0.55455047  1
  Al  Al11  1  0.45030180  0.41916597  0.31226568  1
  Al  Al12  1  0.55719727  0.53224694  0.05785741  1
  Al  Al13  1  0.11672601  0.41735507  0.80482733  1
  Al  Al14  1  0.22746865  0.52495171  0.55814736  1
  Al  Al15  1  0.77080943  0.42872709  0.30947592  1
  Al  Al16  1  0.88916880  0.53686468  0.05606616  1
  Al  Al17  1  0.45069950  0.41678829  0.81170126  1
  Al  Al18  1  0.55250608  0.53355847  0.55719560  1
  Al  Al19  1  0.10507744  0.76716217  0.30838918  1
  Al  Al20  1  0.22022069  0.87590959  0.05902175  1
  Al  Al21  1  0.78071572  0.76023664  0.80690517  1
  Al  Al22  1  0.88309469  0.88558608  0.55279422  1
  Al  Al23  1  0.44014968  0.76558691  0.30802283  1
  Al  Al24  1  0.55590305  0.88045961  0.05976827  1
  Al  Al25  1  0.11135344  0.76206044  0.80727197  1
  Al  Al26  1  0.22772417  0.87666170  0.55917352  1
  Al  Al27  1  0.77224916  0.76922491  0.30754972  1
  Al  Al28  1  0.88126737  0.88087409  0.06250086  1
  Al  Al29  1  0.44751571  0.76059254  0.81033602  1
  Al  Al30  1  0.56059296  0.87846438  0.56196221  1
  B  B31  1  0.82304941  0.23161830  0.53581636  1
  B  B32  1  0.55507055  0.20646891  0.08543868  1
  B  B33  1  0.17626215  0.22456540  0.54603446  1
  B  B34  1  0.76147501  0.09857974  0.31282159  1
  B  B35  1  0.56298044  0.20375763  0.57008509  1
  N  N36  1  0.21212240  0.21076290  0.39060963  1
  N  N37  1  0.10674106  0.09940077  0.12902890  1
  N  N38  1  0.89750780  0.19855447  0.87075811  1
  N  N39  1  0.76463391  0.12344480  0.60879885  1
  N  N40  1  0.57870505  0.19510224  0.37618785  1
  N  N41  1  0.45458650  0.11036877  0.12801375  1
  N  N42  1  0.23283946  0.19997935  0.87291561  1
  N  N43  1  0.14392966  0.10162848  0.61263091  1
  N  N44  1  0.86200245  0.20220227  0.38284243  1
  N  N45  1  0.75153856  0.10933282  0.14100814  1
  N  N46  1  0.56374631  0.20240667  0.89025312  1
  N  N47  1  0.49050972  0.09844508  0.61900271  1
  N  N48  1  0.22186016  0.53851549  0.36722493  1
  N  N49  1  0.10923733  0.42814581  0.11975409  1
  N  N50  1  0.89161874  0.53255840  0.86145055  1
  N  N51  1  0.78367698  0.39854454  0.60347983  1
  N  N52  1  0.54966960  0.54272035  0.36713643  1
  N  N53  1  0.45550891  0.40355291  0.11842671  1
  N  N54  1  0.22391458  0.53547431  0.86341570  1
  N  N55  1  0.11773895  0.40027103  0.60946367  1
  N  N56  1  0.88480702  0.54093187  0.36532413  1
  N  N57  1  0.77620864  0.42777973  0.11949316  1
  N  N58  1  0.55946616  0.53420002  0.86521801  1
  N  N59  1  0.45662643  0.40095181  0.61420244  1
  N  N60  1  0.21929364  0.87337740  0.36937268  1
  N  N61  1  0.10952404  0.76127770  0.11622668  1
  N  N62  1  0.88875426  0.87555358  0.86776887  1
  N  N63  1  0.78808619  0.75309889  0.61460241  1
  N  N64  1  0.55232906  0.87374240  0.37056717  1
  N  N65  1  0.44332278  0.76281504  0.11585964  1
  N  N66  1  0.22351915  0.87313669  0.86632503  1
  N  N67  1  0.11076227  0.76184147  0.61424811  1
  N  N68  1  0.87243125  0.90037003  0.35940781  1
  N  N69  1  0.77682817  0.76121988  0.11649767  1
  N  N70  1  0.55856053  0.87237670  0.86809093  1
  N  N71  1  0.45182733  0.75701627  0.61909667  1
