# generated using pymatgen
data_Al31B5N36
_symmetry_space_group_name_H-M   'P 1'
_cell_length_a   9.29393179
_cell_length_b   9.15654345
_cell_length_c   9.98402381
_cell_angle_alpha   90.37445251
_cell_angle_beta   89.93041513
_cell_angle_gamma   60.42248583
_symmetry_Int_Tables_number   1
_chemical_formula_structural   Al31B5N36
_chemical_formula_sum   'Al31 B5 N36'
_cell_volume   738.89979541
_cell_formula_units_Z   1
loop_
 _symmetry_equiv_pos_site_id
 _symmetry_equiv_pos_as_xyz
  1  'x, y, z'
loop_
 _atom_site_type_symbol
 _atom_site_label
 _atom_site_symmetry_multiplicity
 _atom_site_fract_x
 _atom_site_fract_y
 _atom_site_fract_z
 _atom_site_occupancy
  Al  Al0  1  0.09660400  0.09853974  0.33051817  1
  Al  Al1  1  0.22534101  0.20635139  0.07472805  1
  Al  Al2  1  0.79135297  0.09471435  0.80020342  1
  Al  Al3  1  0.44647344  0.10912663  0.40047234  1
  Al  Al4  1  0.11918308  0.09739938  0.80965985  1
  Al  Al5  1  0.88688410  0.20420388  0.06980090  1
  Al  Al6  1  0.45634245  0.10037527  0.88771665  1
  Al  Al7  1  0.10305793  0.43107961  0.31869003  1
  Al  Al8  1  0.22729617  0.53120182  0.06559600  1
  Al  Al9  1  0.78213107  0.41750185  0.80909036  1
  Al  Al10  1  0.88669496  0.52911285  0.56235792  1
  Al  Al11  1  0.44173626  0.42917692  0.31167891  1
  Al  Al12  1  0.55812275  0.53102130  0.06510629  1
  Al  Al13  1  0.11522829  0.41802220  0.81232156  1
  Al  Al14  1  0.22033010  0.52959265  0.56189730  1
  Al  Al15  1  0.76809791  0.42873106  0.31657667  1
  Al  Al16  1  0.89025295  0.53550966  0.06402847  1
  Al  Al17  1  0.44065079  0.43599021  0.81590305  1
  Al  Al18  1  0.55254870  0.52805261  0.56288260  1
  Al  Al19  1  0.10314271  0.76848353  0.31350988  1
  Al  Al20  1  0.22129286  0.87495974  0.06632407  1
  Al  Al21  1  0.78178603  0.76023813  0.81469386  1
  Al  Al22  1  0.89056462  0.88193007  0.55674958  1
  Al  Al23  1  0.43784205  0.76753839  0.31725273  1
  Al  Al24  1  0.56218688  0.86909380  0.07112618  1
  Al  Al25  1  0.10951496  0.76286863  0.81428912  1
  Al  Al26  1  0.22655085  0.87674522  0.56753647  1
  Al  Al27  1  0.76867393  0.77153543  0.31582841  1
  Al  Al28  1  0.88436452  0.87851824  0.06851620  1
  Al  Al29  1  0.44680257  0.76180254  0.81644467  1
  Al  Al30  1  0.56330638  0.87122853  0.57429268  1
  B  B31  1  0.83243268  0.22201410  0.54186232  1
  B  B32  1  0.55957031  0.19718389  0.15292325  1
  B  B33  1  0.16918008  0.22847783  0.55577051  1
  B  B34  1  0.77251187  0.09391393  0.30903080  1
  B  B35  1  0.50747593  0.22430020  0.65500643  1
  N  N36  1  0.20404525  0.21579649  0.40086011  1
  N  N37  1  0.10901255  0.09760107  0.13782153  1
  N  N38  1  0.89670017  0.20163720  0.87988503  1
  N  N39  1  0.82440337  0.09593209  0.61737174  1
  N  N40  1  0.56996424  0.19219117  0.31318109  1
  N  N41  1  0.46649848  0.10887327  0.08594825  1
  N  N42  1  0.22603548  0.20460449  0.88534396  1
  N  N43  1  0.15234899  0.09969723  0.62314700  1
  N  N44  1  0.85905215  0.20249290  0.38471032  1
  N  N45  1  0.76811275  0.10127004  0.14402690  1
  N  N46  1  0.55790254  0.20279111  0.80398814  1
  N  N47  1  0.48565533  0.10319179  0.58387908  1
  N  N48  1  0.21820738  0.54049113  0.37277094  1
  N  N49  1  0.10932981  0.42818590  0.13038956  1
  N  N50  1  0.89182035  0.53368289  0.87025102  1
  N  N51  1  0.78154052  0.39857059  0.61019593  1
  N  N52  1  0.54726106  0.54233556  0.37463713  1
  N  N53  1  0.45457295  0.40647743  0.12039693  1
  N  N54  1  0.22104474  0.53732508  0.87372065  1
  N  N55  1  0.11367486  0.40355700  0.61823255  1
  N  N56  1  0.88112160  0.54317755  0.37438758  1
  N  N57  1  0.77638441  0.42787859  0.12741741  1
  N  N58  1  0.56076315  0.53572265  0.87379154  1
  N  N59  1  0.44129042  0.41139136  0.62188482  1
  N  N60  1  0.21758641  0.87395626  0.37836881  1
  N  N61  1  0.11108545  0.76030476  0.12329657  1
  N  N62  1  0.88730968  0.87808496  0.87622961  1
  N  N63  1  0.78840991  0.75505505  0.62401488  1
  N  N64  1  0.55036409  0.87462401  0.37969246  1
  N  N65  1  0.44326596  0.76088289  0.12565564  1
  N  N66  1  0.22386480  0.87339686  0.87411635  1
  N  N67  1  0.11491995  0.75613324  0.62267353  1
  N  N68  1  0.87190935  0.90037720  0.36462101  1
  N  N69  1  0.78042397  0.75861662  0.12618167  1
  N  N70  1  0.56235436  0.86690293  0.87720069  1
  N  N71  1  0.45195624  0.75259701  0.62706022  1
