# generated using pymatgen
data_Al31B5N36
_symmetry_space_group_name_H-M   'P 1'
_cell_length_a   9.26669864
_cell_length_b   9.14969621
_cell_length_c   9.88385540
_cell_angle_alpha   89.97240112
_cell_angle_beta   89.42508588
_cell_angle_gamma   60.09777365
_symmetry_Int_Tables_number   1
_chemical_formula_structural   Al31B5N36
_chemical_formula_sum   'Al31 B5 N36'
_cell_volume   726.42034386
_cell_formula_units_Z   1
loop_
 _symmetry_equiv_pos_site_id
 _symmetry_equiv_pos_as_xyz
  1  'x, y, z'
loop_
 _atom_site_type_symbol
 _atom_site_label
 _atom_site_symmetry_multiplicity
 _atom_site_fract_x
 _atom_site_fract_y
 _atom_site_fract_z
 _atom_site_occupancy
  Al  Al0  1  0.09763980  0.09881440  0.32333960  1
  Al  Al1  1  0.22926734  0.20463261  0.06262013  1
  Al  Al2  1  0.77534571  0.10048321  0.80841209  1
  Al  Al3  1  0.44562236  0.10092115  0.32805256  1
  Al  Al4  1  0.11910611  0.09673402  0.80231155  1
  Al  Al5  1  0.88407681  0.20410961  0.06318009  1
  Al  Al6  1  0.45513434  0.09789321  0.80713263  1
  Al  Al7  1  0.10804715  0.42928646  0.31012725  1
  Al  Al8  1  0.22709458  0.53175359  0.05743113  1
  Al  Al9  1  0.78182984  0.41688910  0.80298564  1
  Al  Al10  1  0.89043482  0.52789899  0.55443625  1
  Al  Al11  1  0.45017990  0.41952688  0.31251787  1
  Al  Al12  1  0.55729949  0.53213545  0.05773851  1
  Al  Al13  1  0.11673023  0.41736189  0.80481515  1
  Al  Al14  1  0.22731686  0.52495714  0.55806295  1
  Al  Al15  1  0.77081691  0.42869046  0.30940910  1
  Al  Al16  1  0.88915790  0.53687174  0.05599421  1
  Al  Al17  1  0.45065414  0.41697187  0.81168651  1
  Al  Al18  1  0.55255651  0.53362236  0.55710929  1
  Al  Al19  1  0.10506168  0.76716767  0.30830244  1
  Al  Al20  1  0.22026487  0.87587341  0.05893305  1
  Al  Al21  1  0.78070782  0.76026837  0.80685587  1
  Al  Al22  1  0.88297605  0.88559932  0.55256724  1
  Al  Al23  1  0.44014982  0.76563802  0.30793984  1
  Al  Al24  1  0.55599534  0.88044464  0.05959136  1
  Al  Al25  1  0.11139067  0.76205816  0.80718500  1
  Al  Al26  1  0.22771177  0.87668585  0.55906783  1
  Al  Al27  1  0.77224907  0.76926808  0.30746225  1
  Al  Al28  1  0.88138413  0.88070871  0.06218457  1
  Al  Al29  1  0.44749752  0.76064707  0.81029773  1
  Al  Al30  1  0.56067433  0.87831345  0.56188199  1
  B  B31  1  0.82267123  0.23181331  0.53547795  1
  B  B32  1  0.55510300  0.20627729  0.09079721  1
  B  B33  1  0.17619262  0.22456593  0.54606238  1
  B  B34  1  0.76154656  0.09841939  0.31225829  1
  B  B35  1  0.56279407  0.20411339  0.57408453  1
  N  N36  1  0.21203489  0.21081620  0.39072940  1
  N  N37  1  0.10680615  0.09937348  0.12901097  1
  N  N38  1  0.89764173  0.19855051  0.87066448  1
  N  N39  1  0.76400535  0.12363048  0.60848556  1
  N  N40  1  0.57905204  0.19498688  0.37246800  1
  N  N41  1  0.45461634  0.11023119  0.12838890  1
  N  N42  1  0.23278868  0.19998131  0.87297283  1
  N  N43  1  0.14399588  0.10157511  0.61269212  1
  N  N44  1  0.86217199  0.20224567  0.38287424  1
  N  N45  1  0.75202358  0.10903199  0.14099249  1
  N  N46  1  0.56381593  0.20247416  0.88674477  1
  N  N47  1  0.48995240  0.09844576  0.61872635  1
  N  N48  1  0.22178183  0.53855485  0.36732462  1
  N  N49  1  0.10927162  0.42812403  0.11980356  1
  N  N50  1  0.89160535  0.53256222  0.86149115  1
  N  N51  1  0.78361395  0.39849416  0.60344335  1
  N  N52  1  0.54971333  0.54288449  0.36726261  1
  N  N53  1  0.45558316  0.40346418  0.11873585  1
  N  N54  1  0.22385868  0.53556324  0.86347696  1
  N  N55  1  0.11767969  0.40028415  0.60951441  1
  N  N56  1  0.88479660  0.54094753  0.36533074  1
  N  N57  1  0.77623817  0.42771330  0.11951962  1
  N  N58  1  0.55944532  0.53436255  0.86531053  1
  N  N59  1  0.45653016  0.40110228  0.61420989  1
  N  N60  1  0.21931222  0.87338250  0.36938066  1
  N  N61  1  0.10962075  0.76119184  0.11624529  1
  N  N62  1  0.88891786  0.87541835  0.86771977  1
  N  N63  1  0.78806649  0.75309887  0.61466486  1
  N  N64  1  0.55240872  0.87357465  0.37070756  1
  N  N65  1  0.44337972  0.76278411  0.11588660  1
  N  N66  1  0.22354021  0.87312776  0.86637223  1
  N  N67  1  0.11072865  0.76189039  0.61426378  1
  N  N68  1  0.87259933  0.90017907  0.35938315  1
  N  N69  1  0.77683812  0.76125191  0.11650329  1
  N  N70  1  0.55855237  0.87239662  0.86809376  1
  N  N71  1  0.45179933  0.75700316  0.61917667  1
