# generated using pymatgen
data_Al31B5N36
_symmetry_space_group_name_H-M   'P 1'
_cell_length_a   9.32093875
_cell_length_b   9.21337872
_cell_length_c   10.04977549
_cell_angle_alpha   89.62997054
_cell_angle_beta   90.16161084
_cell_angle_gamma   59.87674284
_symmetry_Int_Tables_number   1
_chemical_formula_structural   Al31B5N36
_chemical_formula_sum   'Al31 B5 N36'
_cell_volume   746.45752852
_cell_formula_units_Z   1
loop_
 _symmetry_equiv_pos_site_id
 _symmetry_equiv_pos_as_xyz
  1  'x, y, z'
loop_
 _atom_site_type_symbol
 _atom_site_label
 _atom_site_symmetry_multiplicity
 _atom_site_fract_x
 _atom_site_fract_y
 _atom_site_fract_z
 _atom_site_occupancy
  Al  Al0  1  0.10061474  0.09402013  0.32256557  1
  Al  Al1  1  0.22395113  0.20768964  0.07094322  1
  Al  Al2  1  0.78539919  0.09821525  0.80897184  1
  Al  Al3  1  0.45153745  0.10078908  0.40057873  1
  Al  Al4  1  0.10460371  0.10291272  0.82065935  1
  Al  Al5  1  0.88669075  0.19827894  0.09600032  1
  Al  Al6  1  0.45745974  0.09172675  0.88800681  1
  Al  Al7  1  0.10852584  0.42895270  0.32439031  1
  Al  Al8  1  0.22062492  0.53548513  0.07250040  1
  Al  Al9  1  0.77587908  0.42678429  0.88613077  1
  Al  Al10  1  0.88423701  0.53503400  0.56665611  1
  Al  Al11  1  0.45741356  0.41057699  0.38846094  1
  Al  Al12  1  0.54826432  0.53143908  0.13698512  1
  Al  Al13  1  0.11550241  0.41855722  0.81548585  1
  Al  Al14  1  0.21812246  0.53233171  0.56784715  1
  Al  Al15  1  0.77878724  0.41811496  0.32902559  1
  Al  Al16  1  0.89234699  0.54381458  0.07385574  1
  Al  Al17  1  0.45214598  0.41561853  0.88943255  1
  Al  Al18  1  0.56724430  0.51402877  0.63899808  1
  Al  Al19  1  0.10265952  0.76856698  0.31695318  1
  Al  Al20  1  0.22039191  0.87494366  0.06447834  1
  Al  Al21  1  0.78916064  0.75642622  0.81765069  1
  Al  Al22  1  0.88892759  0.89215057  0.56076215  1
  Al  Al23  1  0.43278439  0.76702153  0.32518447  1
  Al  Al24  1  0.55011155  0.88578902  0.13811934  1
  Al  Al25  1  0.10833349  0.76144571  0.81559268  1
  Al  Al26  1  0.21917723  0.87781706  0.56915475  1
  Al  Al27  1  0.77690869  0.76948576  0.32286505  1
  Al  Al28  1  0.88001485  0.87882815  0.06732972  1
  Al  Al29  1  0.43849521  0.76411965  0.81844271  1
  Al  Al30  1  0.55918541  0.88278478  0.63424492  1
  B  B31  1  0.89795286  0.21111618  0.60985494  1
  B  B32  1  0.55363565  0.20266666  0.14694873  1
  B  B33  1  0.15560247  0.23964654  0.55540606  1
  B  B34  1  0.77565374  0.09429281  0.29750621  1
  B  B35  1  0.50627569  0.22816408  0.65020338  1
  N  N36  1  0.20106637  0.21272290  0.40837962  1
  N  N37  1  0.12108432  0.09257126  0.13409199  1
  N  N38  1  0.89152889  0.19699800  0.89795941  1
  N  N39  1  0.83698562  0.09690308  0.63205530  1
  N  N40  1  0.56012946  0.20001931  0.30709574  1
  N  N41  1  0.46272080  0.10907683  0.08093887  1
  N  N42  1  0.22329085  0.20193177  0.88235873  1
  N  N43  1  0.09833400  0.12617414  0.62023592  1
  N  N44  1  0.87077489  0.18980116  0.32867970  1
  N  N45  1  0.75663159  0.09655845  0.13669918  1
  N  N46  1  0.54620477  0.21019410  0.80059400  1
  N  N47  1  0.48727691  0.10150806  0.58218783  1
  N  N48  1  0.21724019  0.54164825  0.37870542  1
  N  N49  1  0.11288590  0.42486880  0.13747476  1
  N  N50  1  0.89683077  0.53678459  0.88208273  1
  N  N51  1  0.79702776  0.39658983  0.60874580  1
  N  N52  1  0.55029061  0.53474472  0.33214243  1
  N  N53  1  0.46113304  0.39551770  0.08153852  1
  N  N54  1  0.21802186  0.53756812  0.87805148  1
  N  N55  1  0.11598781  0.40293950  0.62145713  1
  N  N56  1  0.88374602  0.54085925  0.37710720  1
  N  N57  1  0.77400377  0.43419031  0.10536257  1
  N  N58  1  0.55639291  0.53099194  0.83310187  1
  N  N59  1  0.45591932  0.39691153  0.58397030  1
  N  N60  1  0.21560768  0.87359052  0.38287767  1
  N  N61  1  0.10862866  0.76342945  0.12685695  1
  N  N62  1  0.88614460  0.87706930  0.87869900  1
  N  N63  1  0.79383850  0.75742338  0.62434490  1
  N  N64  1  0.54460164  0.88463341  0.33622846  1
  N  N65  1  0.43754036  0.76507837  0.12355036  1
  N  N66  1  0.21837024  0.87506433  0.87332875  1
  N  N67  1  0.11590411  0.75454317  0.62639635  1
  N  N68  1  0.87155470  0.90292266  0.36887732  1
  N  N69  1  0.78092985  0.76122290  0.13161788  1
  N  N70  1  0.55851087  0.87343260  0.83164528  1
  N  N71  1  0.44533072  0.75961984  0.62107704  1
