# generated using pymatgen
data_Al31B5N36
_symmetry_space_group_name_H-M   'P 1'
_cell_length_a   9.35431257
_cell_length_b   9.14406333
_cell_length_c   9.80971251
_cell_angle_alpha   90.30372323
_cell_angle_beta   90.85377830
_cell_angle_gamma   60.59981988
_symmetry_Int_Tables_number   1
_chemical_formula_structural   Al31B5N36
_chemical_formula_sum   'Al31 B5 N36'
_cell_volume   730.94043142
_cell_formula_units_Z   1
loop_
 _symmetry_equiv_pos_site_id
 _symmetry_equiv_pos_as_xyz
  1  'x, y, z'
loop_
 _atom_site_type_symbol
 _atom_site_label
 _atom_site_symmetry_multiplicity
 _atom_site_fract_x
 _atom_site_fract_y
 _atom_site_fract_z
 _atom_site_occupancy
  Al  Al0  1  0.12255927  0.09482014  0.41401478  1
  Al  Al1  1  0.22266431  0.20719592  0.15168033  1
  Al  Al2  1  0.75911528  0.10170538  0.89414498  1
  Al  Al3  1  0.45511367  0.10077448  0.40129600  1
  Al  Al4  1  0.09782732  0.09823959  0.88962155  1
  Al  Al5  1  0.87896604  0.20281418  0.15495660  1
  Al  Al6  1  0.43411781  0.10154833  0.89335881  1
  Al  Al7  1  0.11357871  0.41953308  0.40865413  1
  Al  Al8  1  0.22110426  0.53630677  0.15670598  1
  Al  Al9  1  0.77139415  0.42761467  0.90250471  1
  Al  Al10  1  0.88776733  0.52945496  0.65615714  1
  Al  Al11  1  0.44954072  0.41259066  0.39904695  1
  Al  Al12  1  0.55406109  0.53296138  0.15567816  1
  Al  Al13  1  0.10330644  0.43173108  0.90367580  1
  Al  Al14  1  0.22403141  0.52732220  0.65635163  1
  Al  Al15  1  0.77920026  0.41506685  0.40769474  1
  Al  Al16  1  0.88639302  0.53954918  0.15749275  1
  Al  Al17  1  0.43903280  0.42628200  0.90501964  1
  Al  Al18  1  0.55475009  0.52691140  0.65498957  1
  Al  Al19  1  0.11641129  0.76179006  0.40677319  1
  Al  Al20  1  0.21866056  0.87742837  0.15405531  1
  Al  Al21  1  0.77347991  0.76539583  0.90629695  1
  Al  Al22  1  0.89766545  0.87439564  0.65078542  1
  Al  Al23  1  0.45010564  0.75901954  0.40415662  1
  Al  Al24  1  0.55284383  0.88277710  0.15359217  1
  Al  Al25  1  0.10482708  0.76506269  0.90628208  1
  Al  Al26  1  0.23198604  0.87318685  0.65521704  1
  Al  Al27  1  0.77875074  0.76891260  0.40668745  1
  Al  Al28  1  0.87524734  0.89160632  0.15943399  1
  Al  Al29  1  0.44107174  0.76295842  0.90499885  1
  Al  Al30  1  0.56240302  0.87783482  0.65245326  1
  B  B31  1  0.84628844  0.22284472  0.65963392  1
  B  B32  1  0.53920148  0.21624363  0.15605683  1
  B  B33  1  0.17264651  0.22676956  0.67060823  1
  B  B34  1  0.84829356  0.07213916  0.42655931  1
  B  B35  1  0.50308046  0.22724691  0.66363436  1
  N  N36  1  0.22805652  0.20203361  0.34224389  1
  N  N37  1  0.09960985  0.10163657  0.08607840  1
  N  N38  1  0.87327418  0.20822937  0.81723808  1
  N  N39  1  0.83708040  0.09033651  0.57740979  1
  N  N40  1  0.54233885  0.21206408  0.30914821  1
  N  N41  1  0.44496561  0.11218447  0.08846225  1
  N  N42  1  0.20873784  0.21250569  0.82588580  1
  N  N43  1  0.14980603  0.09915487  0.60337016  1
  N  N44  1  0.89529050  0.18621629  0.35037098  1
  N  N45  1  0.74478651  0.11384937  0.08856900  1
  N  N46  1  0.54097279  0.21270955  0.81801326  1
  N  N47  1  0.48779754  0.09891942  0.59225390  1
  N  N48  1  0.21936585  0.53861652  0.35083925  1
  N  N49  1  0.10398675  0.43083841  0.09482417  1
  N  N50  1  0.88228686  0.54024778  0.84778571  1
  N  N51  1  0.78248264  0.40018160  0.60283321  1
  N  N52  1  0.55840718  0.53245686  0.34977094  1
  N  N53  1  0.44672252  0.41042692  0.09717835  1
  N  N54  1  0.21789168  0.54004054  0.84838903  1
  N  N55  1  0.11460274  0.40176544  0.60616906  1
  N  N56  1  0.88929311  0.53593142  0.35259220  1
  N  N57  1  0.77396062  0.42712609  0.09650216  1
  N  N58  1  0.55047995  0.53789983  0.84727420  1
  N  N59  1  0.44914950  0.40012521  0.59881833  1
  N  N60  1  0.22759741  0.87277217  0.34850561  1
  N  N61  1  0.10178719  0.76683327  0.10084821  1
  N  N62  1  0.88452638  0.87649018  0.84344774  1
  N  N63  1  0.78651763  0.75475808  0.59774242  1
  N  N64  1  0.55925468  0.87326411  0.34678418  1
  N  N65  1  0.44106039  0.76323725  0.09835795  1
  N  N66  1  0.22058221  0.87154717  0.84662145  1
  N  N67  1  0.12212061  0.75247249  0.59859125  1
  N  N68  1  0.88600540  0.90120316  0.35969709  1
  N  N69  1  0.77507174  0.76600995  0.10140678  1
  N  N70  1  0.55260740  0.87471344  0.84592234  1
  N  N71  1  0.45462856  0.75358177  0.59725127  1
