# generated using pymatgen
data_Al31B5N36
_symmetry_space_group_name_H-M   'P 1'
_cell_length_a   9.29393183
_cell_length_b   9.15654307
_cell_length_c   9.98402876
_cell_angle_alpha   90.37443032
_cell_angle_beta   89.93034050
_cell_angle_gamma   60.42243534
_symmetry_Int_Tables_number   1
_chemical_formula_structural   Al31B5N36
_chemical_formula_sum   'Al31 B5 N36'
_cell_volume   738.89976178
_cell_formula_units_Z   1
loop_
 _symmetry_equiv_pos_site_id
 _symmetry_equiv_pos_as_xyz
  1  'x, y, z'
loop_
 _atom_site_type_symbol
 _atom_site_label
 _atom_site_symmetry_multiplicity
 _atom_site_fract_x
 _atom_site_fract_y
 _atom_site_fract_z
 _atom_site_occupancy
  Al  Al0  1  0.09655510  0.09855750  0.33277716  1
  Al  Al1  1  0.22529176  0.20636982  0.07698554  1
  Al  Al2  1  0.79130388  0.09473194  0.80246156  1
  Al  Al3  1  0.44642317  0.10914461  0.40272676  1
  Al  Al4  1  0.11913260  0.09741747  0.81191944  1
  Al  Al5  1  0.88683524  0.20422168  0.07206319  1
  Al  Al6  1  0.45629390  0.10039164  0.88997379  1
  Al  Al7  1  0.10300889  0.43109803  0.32095243  1
  Al  Al8  1  0.22724817  0.53121901  0.06785227  1
  Al  Al9  1  0.78208280  0.41751835  0.81134700  1
  Al  Al10  1  0.88664619  0.52913042  0.56461811  1
  Al  Al11  1  0.44168628  0.42919548  0.31394214  1
  Al  Al12  1  0.55807294  0.53103836  0.06735996  1
  Al  Al13  1  0.11517820  0.41804007  0.81458401  1
  Al  Al14  1  0.22027985  0.52961083  0.56416039  1
  Al  Al15  1  0.76804789  0.42874995  0.31883312  1
  Al  Al16  1  0.89020433  0.53552727  0.06628748  1
  Al  Al17  1  0.44060203  0.43600691  0.81815598  1
  Al  Al18  1  0.55250032  0.52807053  0.56514075  1
  Al  Al19  1  0.10309450  0.76850063  0.31576804  1
  Al  Al20  1  0.22124349  0.87497734  0.06857785  1
  Al  Al21  1  0.78173551  0.76025681  0.81695027  1
  Al  Al22  1  0.89051505  0.88194839  0.55900525  1
  Al  Al23  1  0.43779176  0.76755524  0.31950709  1
  Al  Al24  1  0.56213675  0.86911258  0.07338716  1
  Al  Al25  1  0.10946479  0.76288689  0.81654593  1
  Al  Al26  1  0.22650148  0.87676346  0.56979467  1
  Al  Al27  1  0.76862611  0.77155213  0.31808249  1
  Al  Al28  1  0.88431583  0.87853634  0.07077467  1
  Al  Al29  1  0.44675431  0.76182102  0.81869903  1
  Al  Al30  1  0.56325847  0.87124490  0.57654352  1
  B  B31  1  0.83238377  0.22203216  0.54412001  1
  B  B32  1  0.55951978  0.19720445  0.15518200  1
  B  B33  1  0.16913109  0.22849540  0.55803097  1
  B  B34  1  0.77246244  0.09393185  0.31128878  1
  B  B35  1  0.50742805  0.22431639  0.65726251  1
  N  N36  1  0.20399540  0.21581443  0.40311997  1
  N  N37  1  0.10896466  0.09761806  0.14008016  1
  N  N38  1  0.89665004  0.20165485  0.88214572  1
  N  N39  1  0.82435484  0.09594975  0.61962940  1
  N  N40  1  0.56991480  0.19220980  0.31543925  1
  N  N41  1  0.46644902  0.10889223  0.08820642  1
  N  N42  1  0.22598644  0.20462141  0.88760237  1
  N  N43  1  0.15229965  0.09971504  0.62540678  1
  N  N44  1  0.85900271  0.20251126  0.38696787  1
  N  N45  1  0.76806373  0.10128798  0.14628593  1
  N  N46  1  0.55785299  0.20280736  0.80624373  1
  N  N47  1  0.48560738  0.10320674  0.58613277  1
  N  N48  1  0.21815720  0.54050982  0.37503363  1
  N  N49  1  0.10928122  0.42820409  0.13264994  1
  N  N50  1  0.89177011  0.53370122  0.87251012  1
  N  N51  1  0.78149191  0.39858795  0.61245412  1
  N  N52  1  0.54721212  0.54235412  0.37689597  1
  N  N53  1  0.45452334  0.40649649  0.12265790  1
  N  N54  1  0.22099662  0.53734246  0.87597731  1
  N  N55  1  0.11362563  0.40357430  0.62049410  1
  N  N56  1  0.88107172  0.54319564  0.37664717  1
  N  N57  1  0.77633392  0.42789787  0.12967458  1
  N  N58  1  0.56071334  0.53573988  0.87604575  1
  N  N59  1  0.44124251  0.41140751  0.62414011  1
  N  N60  1  0.21753721  0.87397404  0.38062724  1
  N  N61  1  0.11103713  0.76032215  0.12555438  1
  N  N62  1  0.88726016  0.87810254  0.87848750  1
  N  N63  1  0.78836011  0.75507352  0.62627167  1
  N  N64  1  0.55031462  0.87464168  0.38194443  1
  N  N65  1  0.44321602  0.76089972  0.12791074  1
  N  N66  1  0.22381607  0.87341381  0.87637159  1
  N  N67  1  0.11486996  0.75615214  0.62493194  1
  N  N68  1  0.87186006  0.90039481  0.36687773  1
  N  N69  1  0.78037542  0.75863432  0.12843800  1
  N  N70  1  0.56230521  0.86691970  0.87946078  1
  N  N71  1  0.45190791  0.75261551  0.62931539  1
