# generated using pymatgen
data_Al31B5N36
_symmetry_space_group_name_H-M   'P 1'
_cell_length_a   9.29398939
_cell_length_b   9.15656535
_cell_length_c   9.98387744
_cell_angle_alpha   90.37249021
_cell_angle_beta   89.92891456
_cell_angle_gamma   60.42282621
_symmetry_Int_Tables_number   1
_chemical_formula_structural   Al31B5N36
_chemical_formula_sum   'Al31 B5 N36'
_cell_volume   738.89792605
_cell_formula_units_Z   1
loop_
 _symmetry_equiv_pos_site_id
 _symmetry_equiv_pos_as_xyz
  1  'x, y, z'
loop_
 _atom_site_type_symbol
 _atom_site_label
 _atom_site_symmetry_multiplicity
 _atom_site_fract_x
 _atom_site_fract_y
 _atom_site_fract_z
 _atom_site_occupancy
  Al  Al0  1  0.09673670  0.09849643  0.32464146  1
  Al  Al1  1  0.22547202  0.20630943  0.06884366  1
  Al  Al2  1  0.79147759  0.09466419  0.79432997  1
  Al  Al3  1  0.44660249  0.10908036  0.39460286  1
  Al  Al4  1  0.11929911  0.09735098  0.80378014  1
  Al  Al5  1  0.88701216  0.20416296  0.06393055  1
  Al  Al6  1  0.45646180  0.10032191  0.88181681  1
  Al  Al7  1  0.10319200  0.43103612  0.31281522  1
  Al  Al8  1  0.22742620  0.53116038  0.05971848  1
  Al  Al9  1  0.78225468  0.41745228  0.80321466  1
  Al  Al10  1  0.88682414  0.52906256  0.55648173  1
  Al  Al11  1  0.44186853  0.42913171  0.30581159  1
  Al  Al12  1  0.55824983  0.53098085  0.05922876  1
  Al  Al13  1  0.11534932  0.41797435  0.80644874  1
  Al  Al14  1  0.22045624  0.52954426  0.55602599  1
  Al  Al15  1  0.76822986  0.42868789  0.31069967  1
  Al  Al16  1  0.89038151  0.53546834  0.05815481  1
  Al  Al17  1  0.44077704  0.43593873  0.81002477  1
  Al  Al18  1  0.55267769  0.52800384  0.55700627  1
  Al  Al19  1  0.10327663  0.76843982  0.30763299  1
  Al  Al20  1  0.22142103  0.87492030  0.06044285  1
  Al  Al21  1  0.78191359  0.76018673  0.80881453  1
  Al  Al22  1  0.89069363  0.88188190  0.55087044  1
  Al  Al23  1  0.43797576  0.76749586  0.31137241  1
  Al  Al24  1  0.56231474  0.86905755  0.06524501  1
  Al  Al25  1  0.10963957  0.76281879  0.80841095  1
  Al  Al26  1  0.22667895  0.87669597  0.56165742  1
  Al  Al27  1  0.76880529  0.77149223  0.30994852  1
  Al  Al28  1  0.88449382  0.87847717  0.06264077  1
  Al  Al29  1  0.44692568  0.76175212  0.81056446  1
  Al  Al30  1  0.56343856  0.87117360  0.56841728  1
  B  B31  1  0.83256018  0.22196514  0.53598478  1
  B  B32  1  0.55969315  0.19714636  0.14704351  1
  B  B33  1  0.16930283  0.22843035  0.54989331  1
  B  B34  1  0.77264002  0.09386898  0.30315183  1
  B  B35  1  0.50760692  0.22424872  0.64913106  1
  N  N36  1  0.20417771  0.21575146  0.39498299  1
  N  N37  1  0.10914179  0.09756000  0.13194205  1
  N  N38  1  0.89682162  0.20158734  0.87401107  1
  N  N39  1  0.82452302  0.09588348  0.61149391  1
  N  N40  1  0.57009238  0.19214585  0.30730711  1
  N  N41  1  0.46662562  0.10883517  0.08005928  1
  N  N42  1  0.22615798  0.20455049  0.87945746  1
  N  N43  1  0.15246220  0.09965005  0.61726443  1
  N  N44  1  0.85918341  0.20244792  0.37883182  1
  N  N45  1  0.76823906  0.10122836  0.13814995  1
  N  N46  1  0.55803182  0.20274368  0.79811208  1
  N  N47  1  0.48577630  0.10313771  0.57801523  1
  N  N48  1  0.21833782  0.54044798  0.36689696  1
  N  N49  1  0.10945996  0.42814165  0.12451015  1
  N  N50  1  0.89194357  0.53363294  0.86437564  1
  N  N51  1  0.78166673  0.39852087  0.60431930  1
  N  N52  1  0.54739395  0.54229213  0.36875916  1
  N  N53  1  0.45469887  0.40643833  0.11452530  1
  N  N54  1  0.22117082  0.53727348  0.86784062  1
  N  N55  1  0.11379950  0.40350646  0.61235739  1
  N  N56  1  0.88125468  0.54313221  0.36850840  1
  N  N57  1  0.77651065  0.42783774  0.12153928  1
  N  N58  1  0.56088612  0.53567300  0.86791184  1
  N  N59  1  0.44141799  0.41133903  0.61600283  1
  N  N60  1  0.21772050  0.87391132  0.37248792  1
  N  N61  1  0.11121466  0.76026273  0.11741750  1
  N  N62  1  0.88743618  0.87803214  0.87035128  1
  N  N63  1  0.78854058  0.75500226  0.61813455  1
  N  N64  1  0.55049686  0.87457961  0.37381591  1
  N  N65  1  0.44339445  0.76084410  0.11977265  1
  N  N66  1  0.22398813  0.87334728  0.86823387  1
  N  N67  1  0.11504594  0.75608471  0.61679447  1
  N  N68  1  0.87204165  0.90033198  0.35874073  1
  N  N69  1  0.78054985  0.75857609  0.12030065  1
  N  N70  1  0.56247904  0.86685206  0.87131455  1
  N  N71  1  0.45208115  0.75254654  0.62117954  1
