# generated using pymatgen
data_Al31B5N36
_symmetry_space_group_name_H-M   'P 1'
_cell_length_a   9.31965706
_cell_length_b   9.17884199
_cell_length_c   10.02244808
_cell_angle_alpha   90.03453227
_cell_angle_beta   90.62629552
_cell_angle_gamma   60.20491678
_symmetry_Int_Tables_number   1
_chemical_formula_structural   Al31B5N36
_chemical_formula_sum   'Al31 B5 N36'
_cell_volume   743.96528064
_cell_formula_units_Z   1
loop_
 _symmetry_equiv_pos_site_id
 _symmetry_equiv_pos_as_xyz
  1  'x, y, z'
loop_
 _atom_site_type_symbol
 _atom_site_label
 _atom_site_symmetry_multiplicity
 _atom_site_fract_x
 _atom_site_fract_y
 _atom_site_fract_z
 _atom_site_occupancy
  Al  Al0  1  0.11366465  0.09208297  0.32781962  1
  Al  Al1  1  0.22041278  0.20916567  0.07353160  1
  Al  Al2  1  0.76387130  0.10369243  0.87063841  1
  Al  Al3  1  0.46021090  0.09946837  0.39604619  1
  Al  Al4  1  0.11431103  0.09860427  0.79959884  1
  Al  Al5  1  0.87339034  0.20401813  0.14110538  1
  Al  Al6  1  0.44936946  0.09482598  0.88792965  1
  Al  Al7  1  0.11472021  0.42613007  0.32643249  1
  Al  Al8  1  0.21943740  0.53622542  0.07438478  1
  Al  Al9  1  0.77884217  0.42287292  0.88300710  1
  Al  Al10  1  0.88395267  0.53049475  0.63448125  1
  Al  Al11  1  0.45689336  0.41174114  0.38309898  1
  Al  Al12  1  0.55529272  0.53316241  0.13786458  1
  Al  Al13  1  0.12098299  0.41683084  0.81578350  1
  Al  Al14  1  0.21825889  0.53225547  0.56764388  1
  Al  Al15  1  0.77698185  0.41590978  0.39196874  1
  Al  Al16  1  0.88124829  0.53830085  0.14121530  1
  Al  Al17  1  0.44889783  0.42119826  0.89000827  1
  Al  Al18  1  0.55153913  0.53069738  0.64057876  1
  Al  Al19  1  0.10415730  0.76972206  0.31904503  1
  Al  Al20  1  0.21344652  0.88054838  0.06871713  1
  Al  Al21  1  0.77605521  0.75359160  0.88593156  1
  Al  Al22  1  0.89367178  0.88206142  0.57227730  1
  Al  Al23  1  0.45245705  0.75629613  0.38714338  1
  Al  Al24  1  0.55455467  0.88082719  0.14107284  1
  Al  Al25  1  0.10913177  0.76230191  0.81690714  1
  Al  Al26  1  0.22496552  0.87823856  0.56879635  1
  Al  Al27  1  0.77309598  0.76624514  0.38816149  1
  Al  Al28  1  0.88448096  0.87796661  0.07004045  1
  Al  Al29  1  0.44541813  0.76164620  0.88655544  1
  Al  Al30  1  0.56106834  0.87873206  0.63910005  1
  B  B31  1  0.82994415  0.23295350  0.63749429  1
  B  B32  1  0.55905614  0.20448038  0.14067076  1
  B  B33  1  0.17632997  0.22641221  0.55486913  1
  B  B34  1  0.80011141  0.09688092  0.39850667  1
  B  B35  1  0.50745928  0.22716525  0.64874829  1
  N  N36  1  0.21388486  0.21130430  0.40355954  1
  N  N37  1  0.11211403  0.09749435  0.13648922  1
  N  N38  1  0.87225704  0.20975526  0.79131272  1
  N  N39  1  0.80828164  0.11307678  0.55847318  1
  N  N40  1  0.57091551  0.19811150  0.30629158  1
  N  N41  1  0.46136638  0.10830198  0.08280940  1
  N  N42  1  0.21616749  0.20429972  0.88625025  1
  N  N43  1  0.15875190  0.09700221  0.61996473  1
  N  N44  1  0.87591151  0.19294711  0.32999587  1
  N  N45  1  0.74597227  0.11485857  0.06912325  1
  N  N46  1  0.54237611  0.21225627  0.80173792  1
  N  N47  1  0.49474579  0.09689362  0.58058311  1
  N  N48  1  0.21804248  0.54447075  0.37918650  1
  N  N49  1  0.11381402  0.42543715  0.13727703  1
  N  N50  1  0.88778966  0.53438653  0.82472559  1
  N  N51  1  0.77837968  0.40643105  0.58231108  1
  N  N52  1  0.55694541  0.53474487  0.32790452  1
  N  N53  1  0.45839968  0.40158793  0.08388998  1
  N  N54  1  0.21661862  0.53998427  0.88043805  1
  N  N55  1  0.12154832  0.39956588  0.61980534  1
  N  N56  1  0.88006362  0.53844594  0.33448978  1
  N  N57  1  0.77812574  0.42274277  0.07323027  1
  N  N58  1  0.55267804  0.53772386  0.82914074  1
  N  N59  1  0.45422654  0.39919531  0.58346686  1
  N  N60  1  0.22107525  0.87134184  0.37950477  1
  N  N61  1  0.10710027  0.76448881  0.12944474  1
  N  N62  1  0.88958799  0.87197081  0.87077451  1
  N  N63  1  0.78443613  0.75399587  0.57970127  1
  N  N64  1  0.55151494  0.87846799  0.32960920  1
  N  N65  1  0.44713348  0.76068209  0.07954163  1
  N  N66  1  0.21123688  0.88210857  0.87545148  1
  N  N67  1  0.11787333  0.75779475  0.62903991  1
  N  N68  1  0.87968750  0.89900306  0.37487176  1
  N  N69  1  0.77342254  0.75721331  0.07929908  1
  N  N70  1  0.55467643  0.87344418  0.82791847  1
  N  N71  1  0.45979904  0.75181775  0.57922562  1
