# generated using pymatgen
data_Al31B5N36
_symmetry_space_group_name_H-M   'P 1'
_cell_length_a   9.30396139
_cell_length_b   9.17638936
_cell_length_c   10.04483341
_cell_angle_alpha   89.85784530
_cell_angle_beta   90.50574932
_cell_angle_gamma   60.12614377
_symmetry_Int_Tables_number   1
_chemical_formula_structural   Al31B5N36
_chemical_formula_sum   'Al31 B5 N36'
_cell_volume   743.58933761
_cell_formula_units_Z   1
loop_
 _symmetry_equiv_pos_site_id
 _symmetry_equiv_pos_as_xyz
  1  'x, y, z'
loop_
 _atom_site_type_symbol
 _atom_site_label
 _atom_site_symmetry_multiplicity
 _atom_site_fract_x
 _atom_site_fract_y
 _atom_site_fract_z
 _atom_site_occupancy
  Al  Al0  1  0.11151710  0.09134359  0.32780774  1
  Al  Al1  1  0.22065199  0.20956902  0.07336692  1
  Al  Al2  1  0.76609811  0.10333003  0.86700500  1
  Al  Al3  1  0.46031875  0.09699026  0.39758110  1
  Al  Al4  1  0.11559593  0.09901160  0.80050711  1
  Al  Al5  1  0.87367913  0.20529184  0.13879152  1
  Al  Al6  1  0.45041705  0.09525935  0.88706187  1
  Al  Al7  1  0.11444581  0.42537661  0.32664279  1
  Al  Al8  1  0.21923603  0.53642052  0.07395196  1
  Al  Al9  1  0.77917216  0.42540100  0.88481404  1
  Al  Al10  1  0.88433014  0.53104295  0.63480110  1
  Al  Al11  1  0.45879174  0.41092085  0.38502514  1
  Al  Al12  1  0.55520087  0.53355152  0.13854057  1
  Al  Al13  1  0.12185748  0.41698768  0.81542642  1
  Al  Al14  1  0.21860004  0.53202730  0.56761398  1
  Al  Al15  1  0.77725520  0.41247997  0.39405290  1
  Al  Al16  1  0.88097370  0.53883223  0.14221847  1
  Al  Al17  1  0.44988529  0.42069893  0.88951432  1
  Al  Al18  1  0.55233517  0.53078312  0.64092713  1
  Al  Al19  1  0.10354975  0.76955074  0.31904565  1
  Al  Al20  1  0.21312052  0.88069299  0.06820411  1
  Al  Al21  1  0.77657331  0.75419721  0.88607530  1
  Al  Al22  1  0.88925204  0.88892025  0.57058532  1
  Al  Al23  1  0.45216410  0.75568186  0.38764347  1
  Al  Al24  1  0.55469090  0.88054969  0.14095530  1
  Al  Al25  1  0.10919636  0.76248993  0.81538452  1
  Al  Al26  1  0.22437421  0.87848124  0.56909961  1
  Al  Al27  1  0.77263996  0.76409399  0.38866823  1
  Al  Al28  1  0.88496631  0.87793653  0.06852203  1
  Al  Al29  1  0.44563885  0.76179625  0.88658734  1
  Al  Al30  1  0.56137086  0.87891109  0.63914222  1
  B  B31  1  0.82922472  0.23415741  0.64508483  1
  B  B32  1  0.56214110  0.20310032  0.13497634  1
  B  B33  1  0.17761770  0.22558675  0.55564620  1
  B  B34  1  0.77843461  0.09947633  0.37337449  1
  B  B35  1  0.51680675  0.22396463  0.64676738  1
  N  N36  1  0.21383048  0.21009584  0.40332637  1
  N  N37  1  0.11234390  0.09756921  0.13664707  1
  N  N38  1  0.87551290  0.21309366  0.79800708  1
  N  N39  1  0.79675865  0.11746859  0.57658782  1
  N  N40  1  0.58344821  0.19100533  0.31014524  1
  N  N41  1  0.46256836  0.10868664  0.08307497  1
  N  N42  1  0.21738891  0.20448948  0.88676405  1
  N  N43  1  0.15900613  0.09669433  0.62064589  1
  N  N44  1  0.87196990  0.19090590  0.32787457  1
  N  N45  1  0.74622404  0.11528408  0.06776264  1
  N  N46  1  0.54362035  0.21228947  0.80156259  1
  N  N47  1  0.49437798  0.09715589  0.58041448  1
  N  N48  1  0.21910448  0.54256682  0.37879015  1
  N  N49  1  0.11406321  0.42539129  0.13781414  1
  N  N50  1  0.88841800  0.53586845  0.82466281  1
  N  N51  1  0.77964245  0.40604362  0.58428859  1
  N  N52  1  0.55710701  0.53414926  0.32811156  1
  N  N53  1  0.45939316  0.40047716  0.08442210  1
  N  N54  1  0.21722561  0.54017490  0.88056357  1
  N  N55  1  0.12246363  0.39896803  0.61990797  1
  N  N56  1  0.87978651  0.53634633  0.33503566  1
  N  N57  1  0.77751841  0.42473823  0.07383803  1
  N  N58  1  0.55297936  0.53818834  0.82934568  1
  N  N59  1  0.45508581  0.39986186  0.58287029  1
  N  N60  1  0.22034437  0.87077045  0.38000170  1
  N  N61  1  0.10727174  0.76440679  0.12993757  1
  N  N62  1  0.89082167  0.87167117  0.87202776  1
  N  N63  1  0.78500454  0.75444294  0.57881946  1
  N  N64  1  0.55092848  0.87795876  0.32899633  1
  N  N65  1  0.44703915  0.76095407  0.07941790  1
  N  N66  1  0.21138707  0.88184550  0.87537917  1
  N  N67  1  0.11612781  0.75855023  0.62753751  1
  N  N68  1  0.87517395  0.90077032  0.37184028  1
  N  N69  1  0.77359966  0.75745037  0.07932843  1
  N  N70  1  0.55498032  0.87370712  0.82778845  1
  N  N71  1  0.45996227  0.75214759  0.57906330  1
