# generated using pymatgen
data_Al31B5N36
_symmetry_space_group_name_H-M   'P 1'
_cell_length_a   9.39126929
_cell_length_b   9.13645450
_cell_length_c   9.82011863
_cell_angle_alpha   90.28079561
_cell_angle_beta   90.97388120
_cell_angle_gamma   60.69906050
_symmetry_Int_Tables_number   1
_chemical_formula_structural   Al31B5N36
_chemical_formula_sum   'Al31 B5 N36'
_cell_volume   734.68240106
_cell_formula_units_Z   1
loop_
 _symmetry_equiv_pos_site_id
 _symmetry_equiv_pos_as_xyz
  1  'x, y, z'
loop_
 _atom_site_type_symbol
 _atom_site_label
 _atom_site_symmetry_multiplicity
 _atom_site_fract_x
 _atom_site_fract_y
 _atom_site_fract_z
 _atom_site_occupancy
  Al  Al0  1  0.12222797  0.09454315  0.41185122  1
  Al  Al1  1  0.21935404  0.20867209  0.15007681  1
  Al  Al2  1  0.76539003  0.09821581  0.89063168  1
  Al  Al3  1  0.45085729  0.10050178  0.40121469  1
  Al  Al4  1  0.09905358  0.09748893  0.88719465  1
  Al  Al5  1  0.88368052  0.20014067  0.15051215  1
  Al  Al6  1  0.43450754  0.10249527  0.89023175  1
  Al  Al7  1  0.11167876  0.42066873  0.40655389  1
  Al  Al8  1  0.21774393  0.53878338  0.15483339  1
  Al  Al9  1  0.77233708  0.42620374  0.90046374  1
  Al  Al10  1  0.88756681  0.52955582  0.65376332  1
  Al  Al11  1  0.44597067  0.41612882  0.39860458  1
  Al  Al12  1  0.55504584  0.53068120  0.15345906  1
  Al  Al13  1  0.10305930  0.43185670  0.90115401  1
  Al  Al14  1  0.22398890  0.52712419  0.65426327  1
  Al  Al15  1  0.77902414  0.41496877  0.40465251  1
  Al  Al16  1  0.88516607  0.54064070  0.15489316  1
  Al  Al17  1  0.43978547  0.42466551  0.90220902  1
  Al  Al18  1  0.55553186  0.52640976  0.65339292  1
  Al  Al19  1  0.11613330  0.76251942  0.40430576  1
  Al  Al20  1  0.22051413  0.87658613  0.15116122  1
  Al  Al21  1  0.77447006  0.76538159  0.90396589  1
  Al  Al22  1  0.89917634  0.87278108  0.64718744  1
  Al  Al23  1  0.45030870  0.75867783  0.40175016  1
  Al  Al24  1  0.55375682  0.88354259  0.15145007  1
  Al  Al25  1  0.10577105  0.76426129  0.90343747  1
  Al  Al26  1  0.23314487  0.87246704  0.65306519  1
  Al  Al27  1  0.77820547  0.76996652  0.40362664  1
  Al  Al28  1  0.87900749  0.89157962  0.15469850  1
  Al  Al29  1  0.44194305  0.76233002  0.90328005  1
  Al  Al30  1  0.56359712  0.87702410  0.65093188  1
  B  B31  1  0.84746981  0.22305292  0.65658421  1
  B  B32  1  0.50553384  0.23138115  0.15908050  1
  B  B33  1  0.17234777  0.22690714  0.66832664  1
  B  B34  1  0.85378239  0.06981907  0.42446361  1
  B  B35  1  0.50358094  0.22688734  0.66200002  1
  N  N36  1  0.22574531  0.20304710  0.34048883  1
  N  N37  1  0.10403210  0.10079666  0.08330619  1
  N  N38  1  0.87567968  0.20789078  0.81261413  1
  N  N39  1  0.83939282  0.08942875  0.57420698  1
  N  N40  1  0.52773025  0.21845958  0.30566740  1
  N  N41  1  0.44089704  0.11654052  0.08669203  1
  N  N42  1  0.20949780  0.21238057  0.82328956  1
  N  N43  1  0.15102219  0.09850801  0.60081257  1
  N  N44  1  0.89608726  0.18614548  0.34752309  1
  N  N45  1  0.76877398  0.10293044  0.07831936  1
  N  N46  1  0.54372795  0.21122784  0.81583879  1
  N  N47  1  0.48801180  0.09857720  0.59068227  1
  N  N48  1  0.21745395  0.53982503  0.34888163  1
  N  N49  1  0.10224570  0.43210470  0.09258300  1
  N  N50  1  0.88236815  0.53981035  0.84542588  1
  N  N51  1  0.78196163  0.40069865  0.59970377  1
  N  N52  1  0.55813294  0.53157733  0.34745638  1
  N  N53  1  0.44219461  0.41122823  0.09499867  1
  N  N54  1  0.21909754  0.53866134  0.84588662  1
  N  N55  1  0.11379257  0.40226345  0.60386720  1
  N  N56  1  0.88834792  0.53677159  0.34990629  1
  N  N57  1  0.77411772  0.42685926  0.09450794  1
  N  N58  1  0.55134268  0.53676256  0.84596688  1
  N  N59  1  0.44872728  0.40047203  0.59724444  1
  N  N60  1  0.22825014  0.87244991  0.34601933  1
  N  N61  1  0.10502575  0.76491193  0.09789535  1
  N  N62  1  0.88716531  0.87281145  0.83815307  1
  N  N63  1  0.78605805  0.75482982  0.59453500  1
  N  N64  1  0.55865610  0.87404738  0.34447447  1
  N  N65  1  0.44268917  0.76238854  0.09652214  1
  N  N66  1  0.22208347  0.87054840  0.84433361  1
  N  N67  1  0.12303393  0.75210631  0.59578254  1
  N  N68  1  0.88631982  0.90179100  0.35696573  1
  N  N69  1  0.77502595  0.76741359  0.09921330  1
  N  N70  1  0.55314566  0.87490683  0.84483699  1
  N  N71  1  0.45521845  0.75324935  0.59515984  1
