# generated using pymatgen
data_Al31B5N36
_symmetry_space_group_name_H-M   'P 1'
_cell_length_a   9.36843299
_cell_length_b   9.13924654
_cell_length_c   9.81406454
_cell_angle_alpha   90.29811292
_cell_angle_beta   90.92681025
_cell_angle_gamma   60.67071662
_symmetry_Int_Tables_number   1
_chemical_formula_structural   Al31B5N36
_chemical_formula_sum   'Al31 B5 N36'
_cell_volume   732.47645893
_cell_formula_units_Z   1
loop_
 _symmetry_equiv_pos_site_id
 _symmetry_equiv_pos_as_xyz
  1  'x, y, z'
loop_
 _atom_site_type_symbol
 _atom_site_label
 _atom_site_symmetry_multiplicity
 _atom_site_fract_x
 _atom_site_fract_y
 _atom_site_fract_z
 _atom_site_occupancy
  Al  Al0  1  0.12256186  0.09461340  0.40783380  1
  Al  Al1  1  0.22136340  0.20785170  0.14574183  1
  Al  Al2  1  0.76180053  0.10020497  0.88760632  1
  Al  Al3  1  0.45330108  0.10073529  0.39596443  1
  Al  Al4  1  0.09864238  0.09777806  0.88328703  1
  Al  Al5  1  0.88064031  0.20160293  0.14773640  1
  Al  Al6  1  0.43452283  0.10187000  0.88670737  1
  Al  Al7  1  0.11276297  0.42001883  0.40247226  1
  Al  Al8  1  0.21978021  0.53733537  0.15062609  1
  Al  Al9  1  0.77199968  0.42693621  0.89640467  1
  Al  Al10  1  0.88784136  0.52943365  0.64986666  1
  Al  Al11  1  0.44796765  0.41401723  0.39350836  1
  Al  Al12  1  0.55456081  0.53192908  0.14945673  1
  Al  Al13  1  0.10336311  0.43171430  0.89737488  1
  Al  Al14  1  0.22420907  0.52711149  0.65017497  1
  Al  Al15  1  0.77917431  0.41492718  0.40112371  1
  Al  Al16  1  0.88594299  0.53998417  0.15117130  1
  Al  Al17  1  0.43956325  0.42553635  0.89849698  1
  Al  Al18  1  0.55529417  0.52658255  0.64902017  1
  Al  Al19  1  0.11642337  0.76204934  0.40045955  1
  Al  Al20  1  0.21961500  0.87702947  0.14756783  1
  Al  Al21  1  0.77414518  0.76528742  0.90008562  1
  Al  Al22  1  0.89866818  0.87354249  0.64409302  1
  Al  Al23  1  0.45037100  0.75878604  0.39785664  1
  Al  Al24  1  0.55337373  0.88314508  0.14741152  1
  Al  Al25  1  0.10557080  0.76454450  0.89976854  1
  Al  Al26  1  0.23282650  0.87272129  0.64903863  1
  Al  Al27  1  0.77859998  0.76940225  0.40011315  1
  Al  Al28  1  0.87666995  0.89185317  0.15209542  1
  Al  Al29  1  0.44174952  0.76255928  0.89901377  1
  Al  Al30  1  0.56321565  0.87738056  0.64655391  1
  B  B31  1  0.84708368  0.22277604  0.65316313  1
  B  B32  1  0.52578175  0.22210051  0.15163627  1
  B  B33  1  0.17263865  0.22678167  0.66439100  1
  B  B34  1  0.85126061  0.07084043  0.42054003  1
  B  B35  1  0.50347119  0.22701993  0.65766379  1
  N  N36  1  0.22702407  0.20249830  0.33623121  1
  N  N37  1  0.10135134  0.10124969  0.07961201  1
  N  N38  1  0.87454193  0.20794531  0.81014892  1
  N  N39  1  0.83861373  0.08966181  0.57084040  1
  N  N40  1  0.53568897  0.21499053  0.30218419  1
  N  N41  1  0.44345638  0.11406633  0.08237957  1
  N  N42  1  0.20926745  0.21241485  0.81954327  1
  N  N43  1  0.15056858  0.09873099  0.59703853  1
  N  N44  1  0.89573183  0.18610348  0.34386949  1
  N  N45  1  0.75305757  0.11004529  0.07943640  1
  N  N46  1  0.54241546  0.21201601  0.81180244  1
  N  N47  1  0.48815080  0.09863484  0.58631937  1
  N  N48  1  0.21848660  0.53921901  0.34471764  1
  N  N49  1  0.10325176  0.43137377  0.08861424  1
  N  N50  1  0.88250931  0.54001925  0.84151209  1
  N  N51  1  0.78244858  0.40022585  0.59626621  1
  N  N52  1  0.55835449  0.53204508  0.34352076  1
  N  N53  1  0.44484835  0.41078780  0.09085989  1
  N  N54  1  0.21861267  0.53935426  0.84203328  1
  N  N55  1  0.11433972  0.40190790  0.59992431  1
  N  N56  1  0.88888341  0.53632139  0.34621781  1
  N  N57  1  0.77408728  0.42693316  0.09040905  1
  N  N58  1  0.55110689  0.53734328  0.84141200  1
  N  N59  1  0.44906722  0.40020572  0.59287251  1
  N  N60  1  0.22804131  0.87258387  0.34218102  1
  N  N61  1  0.10308081  0.76616030  0.09427892  1
  N  N62  1  0.88593255  0.87494546  0.83607123  1
  N  N63  1  0.78656431  0.75471584  0.59113181  1
  N  N64  1  0.55909468  0.87361238  0.34052688  1
  N  N65  1  0.44187674  0.76285421  0.09231408  1
  N  N66  1  0.22155001  0.87100762  0.84038076  1
  N  N67  1  0.12275871  0.75217563  0.59214665  1
  N  N68  1  0.88629437  0.90147757  0.35324662  1
  N  N69  1  0.77515072  0.76654698  0.09523446  1
  N  N70  1  0.55311897  0.87472976  0.84020233  1
  N  N71  1  0.45514369  0.75331586  0.59109014  1
