# generated using pymatgen
data_Al31B5N36
_symmetry_space_group_name_H-M   'P 1'
_cell_length_a   9.29394728
_cell_length_b   9.15658091
_cell_length_c   9.98397164
_cell_angle_alpha   90.37324936
_cell_angle_beta   89.93020772
_cell_angle_gamma   60.42191821
_symmetry_Int_Tables_number   1
_chemical_formula_structural   Al31B5N36
_chemical_formula_sum   'Al31 B5 N36'
_cell_volume   738.89616489
_cell_formula_units_Z   1
loop_
 _symmetry_equiv_pos_site_id
 _symmetry_equiv_pos_as_xyz
  1  'x, y, z'
loop_
 _atom_site_type_symbol
 _atom_site_label
 _atom_site_symmetry_multiplicity
 _atom_site_fract_x
 _atom_site_fract_y
 _atom_site_fract_z
 _atom_site_occupancy
  Al  Al0  1  0.09652851  0.09856074  0.33500470  1
  Al  Al1  1  0.22524905  0.20639433  0.07922713  1
  Al  Al2  1  0.79122785  0.09476272  0.80469613  1
  Al  Al3  1  0.44639364  0.10916885  0.40494741  1
  Al  Al4  1  0.11906174  0.09744871  0.81415572  1
  Al  Al5  1  0.88679097  0.20424361  0.07430235  1
  Al  Al6  1  0.45623155  0.10040008  0.89220981  1
  Al  Al7  1  0.10297542  0.43110635  0.32318621  1
  Al  Al8  1  0.22721561  0.53123821  0.07008377  1
  Al  Al9  1  0.78202027  0.41753775  0.81357530  1
  Al  Al10  1  0.88659166  0.52914044  0.56685637  1
  Al  Al11  1  0.44165694  0.42921506  0.31617600  1
  Al  Al12  1  0.55803921  0.53105673  0.06958796  1
  Al  Al13  1  0.11512606  0.41805677  0.81681260  1
  Al  Al14  1  0.22022140  0.52962383  0.56639124  1
  Al  Al15  1  0.76801349  0.42876610  0.32107213  1
  Al  Al16  1  0.89016655  0.53554612  0.06850619  1
  Al  Al17  1  0.44053821  0.43602333  0.82038617  1
  Al  Al18  1  0.55243626  0.52809601  0.56737289  1
  Al  Al19  1  0.10306336  0.76850581  0.31799865  1
  Al  Al20  1  0.22120787  0.87499370  0.07080120  1
  Al  Al21  1  0.78166646  0.76028554  0.81918356  1
  Al  Al22  1  0.89044851  0.88196681  0.56123523  1
  Al  Al23  1  0.43775256  0.76757659  0.32173978  1
  Al  Al24  1  0.56209969  0.86913153  0.07563200  1
  Al  Al25  1  0.10939635  0.76291265  0.81877432  1
  Al  Al26  1  0.22643581  0.87678410  0.57203666  1
  Al  Al27  1  0.76860192  0.77155795  0.32031157  1
  Al  Al28  1  0.88427744  0.87855753  0.07301096  1
  Al  Al29  1  0.44669500  0.76183961  0.82093150  1
  Al  Al30  1  0.56319689  0.87126552  0.57875820  1
  B  B31  1  0.83232089  0.22204710  0.54634416  1
  B  B32  1  0.55949264  0.19722665  0.15741314  1
  B  B33  1  0.16909810  0.22850241  0.56026029  1
  B  B34  1  0.77243347  0.09395191  0.31352223  1
  B  B35  1  0.50735826  0.22433808  0.65949799  1
  N  N36  1  0.20396830  0.21581656  0.40534745  1
  N  N37  1  0.10892794  0.09763094  0.14230870  1
  N  N38  1  0.89657933  0.20167813  0.88438294  1
  N  N39  1  0.82427112  0.09597169  0.62185868  1
  N  N40  1  0.56988836  0.19223378  0.31767270  1
  N  N41  1  0.46641533  0.10891412  0.09043904  1
  N  N42  1  0.22592365  0.20464086  0.88984253  1
  N  N43  1  0.15223961  0.09973123  0.62764294  1
  N  N44  1  0.85896396  0.20251734  0.38919437  1
  N  N45  1  0.76803193  0.10130504  0.14852125  1
  N  N46  1  0.55777759  0.20282380  0.80847702  1
  N  N47  1  0.48554055  0.10322556  0.58835857  1
  N  N48  1  0.21812820  0.54051183  0.37726417  1
  N  N49  1  0.10924145  0.42823022  0.13488128  1
  N  N50  1  0.89171322  0.53371923  0.87472789  1
  N  N51  1  0.78143089  0.39859973  0.61467962  1
  N  N52  1  0.54717541  0.54237740  0.37912870  1
  N  N53  1  0.45449420  0.40651621  0.12489084  1
  N  N54  1  0.22093488  0.53736555  0.87820783  1
  N  N55  1  0.11357651  0.40358122  0.62272408  1
  N  N56  1  0.88103996  0.54320425  0.37888474  1
  N  N57  1  0.77629959  0.42791953  0.13190932  1
  N  N58  1  0.56065235  0.53575406  0.87827171  1
  N  N59  1  0.44118030  0.41142798  0.62637357  1
  N  N60  1  0.21750094  0.87397979  0.38286552  1
  N  N61  1  0.11100413  0.76033983  0.12778238  1
  N  N62  1  0.88719242  0.87813121  0.88072091  1
  N  N63  1  0.78829169  0.75509155  0.62850263  1
  N  N64  1  0.55028024  0.87466693  0.38415656  1
  N  N65  1  0.44317941  0.76091432  0.13014176  1
  N  N66  1  0.22375296  0.87343758  0.87859304  1
  N  N67  1  0.11480237  0.75616804  0.62715994  1
  N  N68  1  0.87182714  0.90040448  0.36910703  1
  N  N69  1  0.78034591  0.75864681  0.13066738  1
  N  N70  1  0.56224371  0.86693001  0.88170759  1
  N  N71  1  0.45184729  0.75264189  0.63154512  1
