# generated using pymatgen
data_Al31B5N36
_symmetry_space_group_name_H-M   'P 1'
_cell_length_a   9.31600245
_cell_length_b   9.20939167
_cell_length_c   10.05237425
_cell_angle_alpha   89.67687701
_cell_angle_beta   90.16382527
_cell_angle_gamma   59.91490464
_symmetry_Int_Tables_number   1
_chemical_formula_structural   Al31B5N36
_chemical_formula_sum   'Al31 B5 N36'
_cell_volume   746.22620752
_cell_formula_units_Z   1
loop_
 _symmetry_equiv_pos_site_id
 _symmetry_equiv_pos_as_xyz
  1  'x, y, z'
loop_
 _atom_site_type_symbol
 _atom_site_label
 _atom_site_symmetry_multiplicity
 _atom_site_fract_x
 _atom_site_fract_y
 _atom_site_fract_z
 _atom_site_occupancy
  Al  Al0  1  0.09843440  0.09472535  0.32296261  1
  Al  Al1  1  0.22362032  0.20774002  0.07160146  1
  Al  Al2  1  0.78508624  0.09730035  0.80947219  1
  Al  Al3  1  0.45157305  0.10074048  0.40040274  1
  Al  Al4  1  0.10643856  0.10148116  0.82123460  1
  Al  Al5  1  0.88488365  0.20214319  0.09018747  1
  Al  Al6  1  0.45764940  0.09189576  0.88856431  1
  Al  Al7  1  0.10734618  0.42905482  0.32424035  1
  Al  Al8  1  0.22024602  0.53526948  0.07298935  1
  Al  Al9  1  0.78320231  0.42236898  0.84669768  1
  Al  Al10  1  0.88416865  0.53518729  0.56770704  1
  Al  Al11  1  0.45737642  0.41069743  0.38773064  1
  Al  Al12  1  0.54913040  0.53149300  0.13591761  1
  Al  Al13  1  0.11689982  0.41844739  0.81579294  1
  Al  Al14  1  0.21768924  0.53234776  0.56726696  1
  Al  Al15  1  0.77953310  0.41839926  0.31843795  1
  Al  Al16  1  0.88932972  0.54134488  0.07160045  1
  Al  Al17  1  0.45294353  0.41576865  0.89029917  1
  Al  Al18  1  0.56168261  0.51746985  0.63741856  1
  Al  Al19  1  0.10268672  0.76831423  0.31696801  1
  Al  Al20  1  0.22000600  0.87500842  0.06528836  1
  Al  Al21  1  0.78909952  0.75708378  0.81823043  1
  Al  Al22  1  0.88917618  0.89166529  0.56049408  1
  Al  Al23  1  0.43281297  0.76675445  0.32525078  1
  Al  Al24  1  0.55059985  0.88549878  0.13838909  1
  Al  Al25  1  0.10867374  0.76108819  0.81587718  1
  Al  Al26  1  0.21882036  0.87802899  0.56856809  1
  Al  Al27  1  0.77722536  0.76799697  0.32305841  1
  Al  Al28  1  0.88025408  0.87865832  0.06866020  1
  Al  Al29  1  0.43843679  0.76454667  0.81937576  1
  Al  Al30  1  0.55922120  0.88310451  0.63439447  1
  B  B31  1  0.89976048  0.20886166  0.61178730  1
  B  B32  1  0.55428020  0.20279134  0.14750337  1
  B  B33  1  0.15589777  0.23972502  0.55508487  1
  B  B34  1  0.77678984  0.09525947  0.29925654  1
  B  B35  1  0.50594774  0.22826419  0.65032770  1
  N  N36  1  0.20109012  0.21254702  0.40839769  1
  N  N37  1  0.11887714  0.09335825  0.13392211  1
  N  N38  1  0.89068325  0.19951777  0.89612722  1
  N  N39  1  0.83702143  0.09659227  0.63263018  1
  N  N40  1  0.56012460  0.19988554  0.30712826  1
  N  N41  1  0.46314400  0.10888340  0.08112719  1
  N  N42  1  0.22358747  0.20187663  0.88266184  1
  N  N43  1  0.09812638  0.12623698  0.62023196  1
  N  N44  1  0.86977209  0.18989760  0.33733661  1
  N  N45  1  0.75822080  0.09772546  0.13739397  1
  N  N46  1  0.54617147  0.21046684  0.80068818  1
  N  N47  1  0.48721263  0.10156452  0.58221739  1
  N  N48  1  0.21673932  0.54145915  0.37854079  1
  N  N49  1  0.11150026  0.42532346  0.13703257  1
  N  N50  1  0.89653510  0.53618119  0.88082873  1
  N  N51  1  0.79829389  0.39784608  0.62854722  1
  N  N52  1  0.54987622  0.53541810  0.33431372  1
  N  N53  1  0.46124297  0.39549301  0.08187403  1
  N  N54  1  0.21846838  0.53757855  0.87843336  1
  N  N55  1  0.11627397  0.40268767  0.62175926  1
  N  N56  1  0.88295800  0.53949219  0.37992806  1
  N  N57  1  0.77676585  0.43264163  0.12053257  1
  N  N58  1  0.55458148  0.53246401  0.83290911  1
  N  N59  1  0.45553879  0.39661627  0.58349672  1
  N  N60  1  0.21538912  0.87383843  0.38265124  1
  N  N61  1  0.10884646  0.76306112  0.12709810  1
  N  N62  1  0.88649134  0.87717851  0.87954054  1
  N  N63  1  0.79386401  0.75760007  0.62508945  1
  N  N64  1  0.54476453  0.88448202  0.33627219  1
  N  N65  1  0.43746249  0.76526651  0.12336718  1
  N  N66  1  0.21827721  0.87502630  0.87386079  1
  N  N67  1  0.11606512  0.75444419  0.62663258  1
  N  N68  1  0.87174480  0.90193968  0.36907011  1
  N  N69  1  0.78148599  0.75984560  0.13125511  1
  N  N70  1  0.55849762  0.87386364  0.83162566  1
  N  N71  1  0.44447534  0.76091436  0.62114780  1
