# generated using pymatgen
data_Al31B5N36
_symmetry_space_group_name_H-M   'P 1'
_cell_length_a   9.34397807
_cell_length_b   9.16733319
_cell_length_c   9.83924741
_cell_angle_alpha   90.02241485
_cell_angle_beta   90.39223735
_cell_angle_gamma   60.43316622
_symmetry_Int_Tables_number   1
_chemical_formula_structural   Al31B5N36
_chemical_formula_sum   'Al31 B5 N36'
_cell_volume   733.05024034
_cell_formula_units_Z   1
loop_
 _symmetry_equiv_pos_site_id
 _symmetry_equiv_pos_as_xyz
  1  'x, y, z'
loop_
 _atom_site_type_symbol
 _atom_site_label
 _atom_site_symmetry_multiplicity
 _atom_site_fract_x
 _atom_site_fract_y
 _atom_site_fract_z
 _atom_site_occupancy
  Al  Al0  1  0.11623908  0.09475634  0.37293908  1
  Al  Al1  1  0.22186647  0.20725558  0.13486050  1
  Al  Al2  1  0.76180752  0.10141326  0.88996864  1
  Al  Al3  1  0.44870754  0.10414207  0.39024563  1
  Al  Al4  1  0.10660287  0.10732033  0.81143619  1
  Al  Al5  1  0.87768504  0.20290254  0.15229043  1
  Al  Al6  1  0.43838493  0.09822174  0.90223445  1
  Al  Al7  1  0.11350900  0.42357614  0.39697725  1
  Al  Al8  1  0.22243490  0.53738991  0.15213387  1
  Al  Al9  1  0.77497311  0.42576499  0.89782549  1
  Al  Al10  1  0.89400781  0.52320756  0.64961720  1
  Al  Al11  1  0.45012796  0.41388490  0.39435272  1
  Al  Al12  1  0.55486931  0.53220129  0.14923073  1
  Al  Al13  1  0.10515732  0.43108028  0.90580867  1
  Al  Al14  1  0.22144574  0.53011211  0.65260348  1
  Al  Al15  1  0.77714060  0.41647027  0.40341686  1
  Al  Al16  1  0.88558452  0.53977285  0.15458736  1
  Al  Al17  1  0.43843121  0.42626039  0.90223979  1
  Al  Al18  1  0.55662407  0.52506162  0.65398898  1
  Al  Al19  1  0.11383887  0.76133946  0.40146072  1
  Al  Al20  1  0.22069116  0.87372820  0.15179536  1
  Al  Al21  1  0.77553084  0.76258982  0.90144049  1
  Al  Al22  1  0.89562763  0.87549987  0.64791161  1
  Al  Al23  1  0.45284963  0.75565680  0.40001038  1
  Al  Al24  1  0.55502954  0.88016666  0.15172020  1
  Al  Al25  1  0.10574153  0.76943319  0.90051096  1
  Al  Al26  1  0.23726516  0.86425668  0.63825951  1
  Al  Al27  1  0.77798009  0.76991472  0.40364105  1
  Al  Al28  1  0.87736774  0.88970207  0.15340066  1
  Al  Al29  1  0.43760166  0.76618438  0.89967970  1
  Al  Al30  1  0.55510337  0.87834785  0.65134202  1
  B  B31  1  0.83486420  0.22597128  0.65098967  1
  B  B32  1  0.54824686  0.20864722  0.15493092  1
  B  B33  1  0.23206787  0.20500198  0.61154990  1
  B  B34  1  0.83442078  0.07687304  0.42043754  1
  B  B35  1  0.48829994  0.23767552  0.66527432  1
  N  N36  1  0.22874681  0.20698269  0.33490926  1
  N  N37  1  0.10006126  0.09824955  0.12444395  1
  N  N38  1  0.86930137  0.21004246  0.80569351  1
  N  N39  1  0.82334874  0.09318215  0.57288138  1
  N  N40  1  0.55247930  0.20830273  0.31243437  1
  N  N41  1  0.45693931  0.10830426  0.09466559  1
  N  N42  1  0.21787161  0.20824726  0.87116674  1
  N  N43  1  0.15774001  0.09624340  0.60553461  1
  N  N44  1  0.88305468  0.19044928  0.34834694  1
  N  N45  1  0.74468114  0.11377963  0.08474912  1
  N  N46  1  0.54022325  0.21052991  0.81244074  1
  N  N47  1  0.42856364  0.12488030  0.59783804  1
  N  N48  1  0.22206492  0.53971763  0.34488115  1
  N  N49  1  0.10169364  0.43800270  0.09662863  1
  N  N50  1  0.88599309  0.53789391  0.84060798  1
  N  N51  1  0.78113505  0.40063217  0.59623742  1
  N  N52  1  0.55856203  0.53251737  0.34316030  1
  N  N53  1  0.44928820  0.40743184  0.09432608  1
  N  N54  1  0.21733898  0.54219784  0.84376229  1
  N  N55  1  0.12481362  0.39796817  0.59417666  1
  N  N56  1  0.88674471  0.53795223  0.35012131  1
  N  N57  1  0.77538613  0.42662268  0.09091765  1
  N  N58  1  0.55106509  0.53758602  0.84471668  1
  N  N59  1  0.44925935  0.39958167  0.59609939  1
  N  N60  1  0.23210498  0.86402076  0.34848428  1
  N  N61  1  0.10411642  0.76619935  0.09444655  1
  N  N62  1  0.88435626  0.87679723  0.83966856  1
  N  N63  1  0.78130775  0.75969300  0.59483276  1
  N  N64  1  0.55797599  0.87498078  0.34598037  1
  N  N65  1  0.44240050  0.76300634  0.09314932  1
  N  N66  1  0.21989479  0.87339610  0.83224798  1
  N  N67  1  0.11845744  0.75252639  0.59193732  1
  N  N68  1  0.88419282  0.90090165  0.35400038  1
  N  N69  1  0.77612064  0.76478990  0.09672878  1
  N  N70  1  0.55379792  0.87447186  0.84273487  1
  N  N71  1  0.46018766  0.74711184  0.59157124  1
