# generated using pymatgen
data_Al31B5N36
_symmetry_space_group_name_H-M   'P 1'
_cell_length_a   9.39416779
_cell_length_b   9.14658324
_cell_length_c   10.10259682
_cell_angle_alpha   89.76680178
_cell_angle_beta   90.31730786
_cell_angle_gamma   60.78361090
_symmetry_Int_Tables_number   1
_chemical_formula_structural   Al31B5N36
_chemical_formula_sum   'Al31 B5 N36'
_cell_volume   757.59397610
_cell_formula_units_Z   1
loop_
 _symmetry_equiv_pos_site_id
 _symmetry_equiv_pos_as_xyz
  1  'x, y, z'
loop_
 _atom_site_type_symbol
 _atom_site_label
 _atom_site_symmetry_multiplicity
 _atom_site_fract_x
 _atom_site_fract_y
 _atom_site_fract_z
 _atom_site_occupancy
  Al  Al0  1  0.12080531  0.09054913  0.32641211  1
  Al  Al1  1  0.21240869  0.21228157  0.06864869  1
  Al  Al2  1  0.77282808  0.09940337  0.86486300  1
  Al  Al3  1  0.44772714  0.10161820  0.39845828  1
  Al  Al4  1  0.11545430  0.09538159  0.80002513  1
  Al  Al5  1  0.88009225  0.19856179  0.14167129  1
  Al  Al6  1  0.44598610  0.09671288  0.88411833  1
  Al  Al7  1  0.11354237  0.42839683  0.32543130  1
  Al  Al8  1  0.21250410  0.54027785  0.06926006  1
  Al  Al9  1  0.77786749  0.42098648  0.88746290  1
  Al  Al10  1  0.88177390  0.53032783  0.63657208  1
  Al  Al11  1  0.44499119  0.42068467  0.38463336  1
  Al  Al12  1  0.55520147  0.52950502  0.13831721  1
  Al  Al13  1  0.11525159  0.41816509  0.81512606  1
  Al  Al14  1  0.21741639  0.53054461  0.56911673  1
  Al  Al15  1  0.77800433  0.41658717  0.39129386  1
  Al  Al16  1  0.87795407  0.54401160  0.14182644  1
  Al  Al17  1  0.44739966  0.41853746  0.88740876  1
  Al  Al18  1  0.55292826  0.52852047  0.64117447  1
  Al  Al19  1  0.10724580  0.76878523  0.32033747  1
  Al  Al20  1  0.21498903  0.88031334  0.07031013  1
  Al  Al21  1  0.77342569  0.75531549  0.88049366  1
  Al  Al22  1  0.89877324  0.87356145  0.60120224  1
  Al  Al23  1  0.45797099  0.75389799  0.38543326  1
  Al  Al24  1  0.55577507  0.88449048  0.13996837  1
  Al  Al25  1  0.11533680  0.75820534  0.81523687  1
  Al  Al26  1  0.23034212  0.87405934  0.56680576  1
  Al  Al27  1  0.77626651  0.77298329  0.39377648  1
  Al  Al28  1  0.89268412  0.87630672  0.06434481  1
  Al  Al29  1  0.44578949  0.75977390  0.88909217  1
  Al  Al30  1  0.56142527  0.87703145  0.63931138  1
  B  B31  1  0.84031867  0.23396020  0.64158481  1
  B  B32  1  0.48155352  0.24144677  0.15019597  1
  B  B33  1  0.16924780  0.22798666  0.55681657  1
  B  B34  1  0.85783969  0.07119333  0.42282661  1
  B  B35  1  0.50524575  0.22693960  0.64805082  1
  N  N36  1  0.20632171  0.21566978  0.40837519  1
  N  N37  1  0.11694114  0.09596455  0.13976148  1
  N  N38  1  0.87608008  0.21354179  0.78984953  1
  N  N39  1  0.83840277  0.09951694  0.56690420  1
  N  N40  1  0.49665338  0.23220967  0.29106605  1
  N  N41  1  0.44931027  0.11344021  0.07605279  1
  N  N42  1  0.21358073  0.20519224  0.88362380  1
  N  N43  1  0.16314282  0.09199209  0.62224903  1
  N  N44  1  0.88452053  0.18862920  0.33503593  1
  N  N45  1  0.79078469  0.09924110  0.04647252  1
  N  N46  1  0.54469458  0.21044321  0.79910213  1
  N  N47  1  0.49916919  0.09433597  0.57857163  1
  N  N48  1  0.21160405  0.54960875  0.38359158  1
  N  N49  1  0.10973236  0.42747595  0.13614542  1
  N  N50  1  0.88471945  0.53390009  0.82568828  1
  N  N51  1  0.77830781  0.40617290  0.58127893  1
  N  N52  1  0.55884368  0.53038547  0.32765797  1
  N  N53  1  0.44736665  0.40652989  0.07888743  1
  N  N54  1  0.21555863  0.53750276  0.87843182  1
  N  N55  1  0.11690479  0.40028885  0.62180362  1
  N  N56  1  0.87865161  0.54484756  0.33381210  1
  N  N57  1  0.77721219  0.42341103  0.07797781  1
  N  N58  1  0.55329870  0.53567532  0.83012726  1
  N  N59  1  0.45337149  0.39850491  0.58256110  1
  N  N60  1  0.22772604  0.86926886  0.37792233  1
  N  N61  1  0.10869218  0.76207137  0.12970941  1
  N  N62  1  0.88845396  0.86718502  0.83882174  1
  N  N63  1  0.78283563  0.75309129  0.58226125  1
  N  N64  1  0.55636582  0.87970473  0.32890371  1
  N  N65  1  0.44866888  0.75970181  0.08088837  1
  N  N66  1  0.21304936  0.87973207  0.87878673  1
  N  N67  1  0.12865865  0.75123860  0.63056978  1
  N  N68  1  0.89196206  0.89750786  0.38623712  1
  N  N69  1  0.77366893  0.76280713  0.07313081  1
  N  N70  1  0.55205664  0.87398515  0.82739388  1
  N  N71  1  0.46292416  0.74901553  0.57676831  1
