# generated using pymatgen
data_Al31B5N36
_symmetry_space_group_name_H-M   'P 1'
_cell_length_a   9.29387736
_cell_length_b   9.20205223
_cell_length_c   10.03259326
_cell_angle_alpha   89.92109260
_cell_angle_beta   90.34321837
_cell_angle_gamma   60.03854754
_symmetry_Int_Tables_number   1
_chemical_formula_structural   Al31B5N36
_chemical_formula_sum   'Al31 B5 N36'
_cell_volume   743.32838346
_cell_formula_units_Z   1
loop_
 _symmetry_equiv_pos_site_id
 _symmetry_equiv_pos_as_xyz
  1  'x, y, z'
loop_
 _atom_site_type_symbol
 _atom_site_label
 _atom_site_symmetry_multiplicity
 _atom_site_fract_x
 _atom_site_fract_y
 _atom_site_fract_z
 _atom_site_occupancy
  Al  Al0  1  0.09658214  0.09643936  0.32558652  1
  Al  Al1  1  0.22346345  0.20694106  0.07249904  1
  Al  Al2  1  0.78543158  0.09646425  0.80637390  1
  Al  Al3  1  0.45137199  0.10084148  0.40105213  1
  Al  Al4  1  0.10675651  0.10108144  0.81550305  1
  Al  Al5  1  0.88428292  0.20595289  0.07810052  1
  Al  Al6  1  0.45802560  0.09266687  0.88935607  1
  Al  Al7  1  0.10639961  0.42939429  0.32308630  1
  Al  Al8  1  0.22149849  0.53426207  0.07329261  1
  Al  Al9  1  0.78697168  0.41944238  0.82215223  1
  Al  Al10  1  0.88430395  0.53543216  0.56779269  1
  Al  Al11  1  0.45570566  0.41156421  0.38811874  1
  Al  Al12  1  0.55184075  0.53069896  0.13902678  1
  Al  Al13  1  0.11820645  0.41739982  0.81674311  1
  Al  Al14  1  0.21643211  0.53167103  0.56752805  1
  Al  Al15  1  0.78003886  0.41826422  0.32483893  1
  Al  Al16  1  0.88761710  0.53878530  0.07001682  1
  Al  Al17  1  0.45572211  0.41643630  0.89029192  1
  Al  Al18  1  0.55595974  0.52203972  0.63191274  1
  Al  Al19  1  0.10339496  0.76754030  0.31708408  1
  Al  Al20  1  0.21944365  0.87536359  0.06621966  1
  Al  Al21  1  0.78896649  0.75696205  0.82046952  1
  Al  Al22  1  0.88912839  0.88799126  0.56127556  1
  Al  Al23  1  0.43273737  0.76787337  0.32643132  1
  Al  Al24  1  0.55138490  0.88527739  0.13805685  1
  Al  Al25  1  0.10899287  0.76084480  0.81698445  1
  Al  Al26  1  0.21716384  0.87927321  0.56778487  1
  Al  Al27  1  0.77770688  0.76745837  0.32251436  1
  Al  Al28  1  0.88139438  0.87988413  0.07162609  1
  Al  Al29  1  0.43871310  0.76412997  0.81970057  1
  Al  Al30  1  0.55837765  0.88388146  0.63564149  1
  B  B31  1  0.89211956  0.20526463  0.58620285  1
  B  B32  1  0.55759165  0.20345061  0.15040915  1
  B  B33  1  0.15695111  0.23795540  0.55425884  1
  B  B34  1  0.77828066  0.09624569  0.30896322  1
  B  B35  1  0.50543878  0.22822624  0.65062998  1
  N  N36  1  0.20177715  0.21349095  0.40678845  1
  N  N37  1  0.11349274  0.09542807  0.13554675  1
  N  N38  1  0.88952525  0.20328556  0.88923868  1
  N  N39  1  0.83334279  0.09410159  0.62982581  1
  N  N40  1  0.56274451  0.19935414  0.30987492  1
  N  N41  1  0.46549265  0.10902369  0.08246493  1
  N  N42  1  0.22389560  0.20056983  0.88321143  1
  N  N43  1  0.09830712  0.12453211  0.61638751  1
  N  N44  1  0.86973460  0.19213040  0.36924438  1
  N  N45  1  0.76527835  0.10099703  0.14442018  1
  N  N46  1  0.54629908  0.21091445  0.80106372  1
  N  N47  1  0.48465088  0.10178926  0.58328138  1
  N  N48  1  0.21606765  0.54164398  0.37825888  1
  N  N49  1  0.11103215  0.42530415  0.13569948  1
  N  N50  1  0.89535772  0.53385554  0.87843194  1
  N  N51  1  0.79473558  0.39816891  0.62281704  1
  N  N52  1  0.54918833  0.53693873  0.33847172  1
  N  N53  1  0.46392003  0.39500552  0.08332544  1
  N  N54  1  0.22008009  0.53716003  0.87913166  1
  N  N55  1  0.11591387  0.40159918  0.62234566  1
  N  N56  1  0.88361525  0.54130325  0.38110465  1
  N  N57  1  0.78094903  0.42791905  0.13130606  1
  N  N58  1  0.55623245  0.53235593  0.82876513  1
  N  N59  1  0.45348590  0.39623605  0.58295350  1
  N  N60  1  0.21487161  0.87458565  0.38166708  1
  N  N61  1  0.11024154  0.76162340  0.12762121  1
  N  N62  1  0.88631584  0.87860904  0.88161528  1
  N  N63  1  0.79302596  0.75694184  0.62690491  1
  N  N64  1  0.54555424  0.88499558  0.33599168  1
  N  N65  1  0.43805145  0.76460800  0.12382042  1
  N  N66  1  0.21804546  0.87605112  0.87434110  1
  N  N67  1  0.11610261  0.75366928  0.62717677  1
  N  N68  1  0.87249591  0.90133257  0.36990751  1
  N  N69  1  0.78232237  0.75886789  0.13003755  1
  N  N70  1  0.55832298  0.87432814  0.83310911  1
  N  N71  1  0.44224476  0.76360828  0.62026641  1
