# generated using pymatgen
data_Al31B5N36
_symmetry_space_group_name_H-M   'P 1'
_cell_length_a   9.28618242
_cell_length_b   9.15507824
_cell_length_c   10.19154232
_cell_angle_alpha   89.42561140
_cell_angle_beta   90.34103989
_cell_angle_gamma   60.02329158
_symmetry_Int_Tables_number   1
_chemical_formula_structural   Al31B5N36
_chemical_formula_sum   'Al31 B5 N36'
_cell_volume   750.43848328
_cell_formula_units_Z   1
loop_
 _symmetry_equiv_pos_site_id
 _symmetry_equiv_pos_as_xyz
  1  'x, y, z'
loop_
 _atom_site_type_symbol
 _atom_site_label
 _atom_site_symmetry_multiplicity
 _atom_site_fract_x
 _atom_site_fract_y
 _atom_site_fract_z
 _atom_site_occupancy
  Al  Al0  1  0.10920245  0.09068659  0.32749501  1
  Al  Al1  1  0.22226992  0.20882568  0.07147880  1
  Al  Al2  1  0.77853750  0.09034468  0.79708638  1
  Al  Al3  1  0.45481744  0.09680490  0.39806943  1
  Al  Al4  1  0.12009705  0.09950559  0.80250224  1
  Al  Al5  1  0.88013406  0.20849247  0.14005288  1
  Al  Al6  1  0.45367744  0.09496838  0.88770269  1
  Al  Al7  1  0.11296699  0.42496199  0.32539454  1
  Al  Al8  1  0.22042617  0.53516600  0.07060952  1
  Al  Al9  1  0.77932579  0.43114131  0.88664429  1
  Al  Al10  1  0.88376170  0.53597958  0.63422579  1
  Al  Al11  1  0.45496076  0.41197464  0.38581748  1
  Al  Al12  1  0.55542445  0.53127747  0.13872147  1
  Al  Al13  1  0.12207180  0.41878066  0.81394284  1
  Al  Al14  1  0.21519809  0.53478984  0.56566948  1
  Al  Al15  1  0.77730430  0.40848124  0.39450933  1
  Al  Al16  1  0.88127834  0.53854241  0.14215165  1
  Al  Al17  1  0.45343474  0.41834355  0.88884178  1
  Al  Al18  1  0.55419457  0.52911649  0.64088733  1
  Al  Al19  1  0.10354318  0.76820643  0.31432126  1
  Al  Al20  1  0.21430025  0.87914975  0.06532134  1
  Al  Al21  1  0.77602371  0.75823081  0.88792765  1
  Al  Al22  1  0.88892328  0.89614142  0.55252105  1
  Al  Al23  1  0.45090596  0.75449947  0.38782495  1
  Al  Al24  1  0.55462971  0.87862511  0.13998182  1
  Al  Al25  1  0.10673861  0.76502108  0.81397355  1
  Al  Al26  1  0.22360978  0.87846327  0.56914800  1
  Al  Al27  1  0.77074996  0.76272812  0.38433559  1
  Al  Al28  1  0.88394494  0.88076162  0.06853354  1
  Al  Al29  1  0.44697392  0.76107105  0.88552128  1
  Al  Al30  1  0.56277461  0.87850678  0.63776209  1
  B  B31  1  0.84521373  0.23646457  0.65447594  1
  B  B32  1  0.55187240  0.20378062  0.14406439  1
  B  B33  1  0.17409320  0.22701618  0.55637294  1
  B  B34  1  0.77151808  0.08981625  0.29748866  1
  B  B35  1  0.50538359  0.22934693  0.64485839  1
  N  N36  1  0.20862069  0.21069856  0.40583299  1
  N  N37  1  0.11721316  0.09429743  0.13709059  1
  N  N38  1  0.88277929  0.22337296  0.80677784  1
  N  N39  1  0.81608730  0.10306288  0.61817024  1
  N  N40  1  0.56135019  0.19884729  0.30453276  1
  N  N41  1  0.46398799  0.10625868  0.07983031  1
  N  N42  1  0.21956526  0.20610709  0.88719745  1
  N  N43  1  0.15844129  0.09679021  0.62299797  1
  N  N44  1  0.87045861  0.19255792  0.32606630  1
  N  N45  1  0.75619222  0.09698041  0.13532716  1
  N  N46  1  0.54050319  0.21396451  0.79713267  1
  N  N47  1  0.49396002  0.09812184  0.57793954  1
  N  N48  1  0.21513732  0.54353190  0.37951201  1
  N  N49  1  0.11613400  0.42368960  0.13853913  1
  N  N50  1  0.88748561  0.54288244  0.82186934  1
  N  N51  1  0.78392393  0.40479880  0.58404587  1
  N  N52  1  0.55540713  0.53295102  0.32712395  1
  N  N53  1  0.46309824  0.39623773  0.08041606  1
  N  N54  1  0.21758506  0.54132659  0.87995595  1
  N  N55  1  0.12223225  0.39928549  0.62039595  1
  N  N56  1  0.87759691  0.53499767  0.33195978  1
  N  N57  1  0.77743567  0.42536897  0.07201166  1
  N  N58  1  0.55406950  0.53824907  0.82701494  1
  N  N59  1  0.45408603  0.40114825  0.58062970  1
  N  N60  1  0.21784288  0.86979419  0.38190736  1
  N  N61  1  0.10961616  0.76216675  0.12805765  1
  N  N62  1  0.88665212  0.88235219  0.87946567  1
  N  N63  1  0.78545722  0.75837158  0.57204057  1
  N  N64  1  0.54739768  0.87849024  0.32631618  1
  N  N65  1  0.44887402  0.75850227  0.07635158  1
  N  N66  1  0.21226437  0.88124731  0.87476673  1
  N  N67  1  0.11320772  0.75943030  0.62659973  1
  N  N68  1  0.87069107  0.90187633  0.36072379  1
  N  N69  1  0.77404706  0.75645372  0.07714340  1
  N  N70  1  0.55562507  0.87455425  0.82492345  1
  N  N71  1  0.46133223  0.75148742  0.57708697  1
