# generated using pymatgen
data_Al31B5N36
_symmetry_space_group_name_H-M   'P 1'
_cell_length_a   9.31490675
_cell_length_b   9.16898987
_cell_length_c   9.97569247
_cell_angle_alpha   90.26939950
_cell_angle_beta   89.91453781
_cell_angle_gamma   60.33234811
_symmetry_Int_Tables_number   1
_chemical_formula_structural   Al31B5N36
_chemical_formula_sum   'Al31 B5 N36'
_cell_volume   740.30282733
_cell_formula_units_Z   1
loop_
 _symmetry_equiv_pos_site_id
 _symmetry_equiv_pos_as_xyz
  1  'x, y, z'
loop_
 _atom_site_type_symbol
 _atom_site_label
 _atom_site_symmetry_multiplicity
 _atom_site_fract_x
 _atom_site_fract_y
 _atom_site_fract_z
 _atom_site_occupancy
  Al  Al0  1  0.09685884  0.09874283  0.33560879  1
  Al  Al1  1  0.22316643  0.20776548  0.07862098  1
  Al  Al2  1  0.79056411  0.09529825  0.80524038  1
  Al  Al3  1  0.45097789  0.10188644  0.40530150  1
  Al  Al4  1  0.11941791  0.09741683  0.81480469  1
  Al  Al5  1  0.88664401  0.20467876  0.07472083  1
  Al  Al6  1  0.45991454  0.09451398  0.89616888  1
  Al  Al7  1  0.10482094  0.42917900  0.32393002  1
  Al  Al8  1  0.22673725  0.53156938  0.07080873  1
  Al  Al9  1  0.78234746  0.41709265  0.81366013  1
  Al  Al10  1  0.88623615  0.52956645  0.56742672  1
  Al  Al11  1  0.44168381  0.42822705  0.31742165  1
  Al  Al12  1  0.55798375  0.53169062  0.06949071  1
  Al  Al13  1  0.11680978  0.41623022  0.81732631  1
  Al  Al14  1  0.22013846  0.52952449  0.56703140  1
  Al  Al15  1  0.76821977  0.42835171  0.32126551  1
  Al  Al16  1  0.88885833  0.53670295  0.06890006  1
  Al  Al17  1  0.44065377  0.43455017  0.82112471  1
  Al  Al18  1  0.55258222  0.52816088  0.56767378  1
  Al  Al19  1  0.10277881  0.76852112  0.31815744  1
  Al  Al20  1  0.21977178  0.87522877  0.07049900  1
  Al  Al21  1  0.78826462  0.75660906  0.82105677  1
  Al  Al22  1  0.89036506  0.88213503  0.56169313  1
  Al  Al23  1  0.43416368  0.76415724  0.32325330  1
  Al  Al24  1  0.55280066  0.88323791  0.13752404  1
  Al  Al25  1  0.10946068  0.76264592  0.81873605  1
  Al  Al26  1  0.22587662  0.87668787  0.57240243  1
  Al  Al27  1  0.77617848  0.76707188  0.32331031  1
  Al  Al28  1  0.88346018  0.87895996  0.07292184  1
  Al  Al29  1  0.44400391  0.75906510  0.82259217  1
  Al  Al30  1  0.55747581  0.88304753  0.63665854  1
  B  B31  1  0.83223400  0.22218436  0.54668664  1
  B  B32  1  0.55964703  0.19996246  0.15786211  1
  B  B33  1  0.16928497  0.22820534  0.56042065  1
  B  B34  1  0.77211684  0.09439327  0.31376762  1
  B  B35  1  0.50786187  0.22422471  0.65951674  1
  N  N36  1  0.20578604  0.21404507  0.40626911  1
  N  N37  1  0.10890044  0.09778358  0.14269591  1
  N  N38  1  0.89668090  0.20139051  0.88470888  1
  N  N39  1  0.82417721  0.09623076  0.62230268  1
  N  N40  1  0.57026942  0.19242248  0.31839524  1
  N  N41  1  0.46591403  0.11018356  0.08987343  1
  N  N42  1  0.22745486  0.20303767  0.89053204  1
  N  N43  1  0.15340803  0.09914170  0.62844769  1
  N  N44  1  0.85931336  0.20244840  0.38951427  1
  N  N45  1  0.76765902  0.10203298  0.14858266  1
  N  N46  1  0.55692633  0.20203578  0.80928966  1
  N  N47  1  0.48841703  0.10213137  0.58640725  1
  N  N48  1  0.21801945  0.54045700  0.37755646  1
  N  N49  1  0.10878925  0.42856682  0.13537132  1
  N  N50  1  0.89298896  0.53170774  0.87531362  1
  N  N51  1  0.78147611  0.39868857  0.61496577  1
  N  N52  1  0.54778798  0.54093452  0.37945962  1
  N  N53  1  0.45468469  0.40648161  0.12535360  1
  N  N54  1  0.22093917  0.53707026  0.87856632  1
  N  N55  1  0.11400924  0.40291500  0.62303833  1
  N  N56  1  0.88252427  0.54078068  0.37946123  1
  N  N57  1  0.77596938  0.42827990  0.13216279  1
  N  N58  1  0.56111602  0.53431050  0.87826856  1
  N  N59  1  0.44149657  0.41088481  0.62651756  1
  N  N60  1  0.21588795  0.87421208  0.38355095  1
  N  N61  1  0.11009222  0.76072667  0.12806572  1
  N  N62  1  0.88807880  0.87839820  0.88115350  1
  N  N63  1  0.79165267  0.75404584  0.62671854  1
  N  N64  1  0.54615602  0.88276704  0.34030158  1
  N  N65  1  0.43992418  0.75934040  0.12773679  1
  N  N66  1  0.22239253  0.87347439  0.87880214  1
  N  N67  1  0.11474928  0.75604566  0.62741265  1
  N  N68  1  0.87260466  0.90067693  0.36983828  1
  N  N69  1  0.78207142  0.75832017  0.12913176  1
  N  N70  1  0.55907600  0.87444496  0.83926017  1
  N  N71  1  0.44951871  0.75174335  0.62888127  1
