# generated using pymatgen
data_Al31B5N36
_symmetry_space_group_name_H-M   'P 1'
_cell_length_a   9.33683482
_cell_length_b   9.21214793
_cell_length_c   9.93114871
_cell_angle_alpha   89.93262393
_cell_angle_beta   89.94096044
_cell_angle_gamma   60.20582929
_symmetry_Int_Tables_number   1
_chemical_formula_structural   Al31B5N36
_chemical_formula_sum   'Al31 B5 N36'
_cell_volume   741.28867419
_cell_formula_units_Z   1
loop_
 _symmetry_equiv_pos_site_id
 _symmetry_equiv_pos_as_xyz
  1  'x, y, z'
loop_
 _atom_site_type_symbol
 _atom_site_label
 _atom_site_symmetry_multiplicity
 _atom_site_fract_x
 _atom_site_fract_y
 _atom_site_fract_z
 _atom_site_occupancy
  Al  Al0  1  0.09628000  0.09995933  0.33394906  1
  Al  Al1  1  0.22373776  0.20750725  0.07728827  1
  Al  Al2  1  0.78734234  0.09725592  0.80273029  1
  Al  Al3  1  0.45073977  0.09994190  0.40141347  1
  Al  Al4  1  0.11735867  0.09801502  0.81394135  1
  Al  Al5  1  0.88608406  0.20537240  0.07433088  1
  Al  Al6  1  0.45840921  0.09328640  0.89046103  1
  Al  Al7  1  0.10643231  0.42971726  0.32441076  1
  Al  Al8  1  0.22083543  0.53508973  0.07421730  1
  Al  Al9  1  0.78707342  0.41517449  0.81392905  1
  Al  Al10  1  0.88738642  0.52987798  0.56732898  1
  Al  Al11  1  0.45055025  0.41392622  0.38608673  1
  Al  Al12  1  0.55399555  0.53244215  0.12176615  1
  Al  Al13  1  0.11866701  0.41639141  0.81819042  1
  Al  Al14  1  0.21430637  0.53313869  0.57047025  1
  Al  Al15  1  0.77357957  0.42688697  0.32623478  1
  Al  Al16  1  0.88831223  0.53744563  0.06886729  1
  Al  Al17  1  0.45447977  0.41701116  0.88773419  1
  Al  Al18  1  0.55381185  0.52657635  0.61191318  1
  Al  Al19  1  0.10263701  0.76930430  0.31803014  1
  Al  Al20  1  0.21854278  0.87688862  0.06922427  1
  Al  Al21  1  0.78873399  0.75605666  0.82054823  1
  Al  Al22  1  0.88925517  0.88337715  0.56095938  1
  Al  Al23  1  0.43194837  0.76789081  0.32819388  1
  Al  Al24  1  0.55239519  0.88475070  0.13796574  1
  Al  Al25  1  0.11049399  0.76157039  0.81910167  1
  Al  Al26  1  0.22296433  0.87965093  0.57146031  1
  Al  Al27  1  0.77726201  0.76698302  0.32274236  1
  Al  Al28  1  0.88182177  0.88041641  0.07154125  1
  Al  Al29  1  0.44185013  0.76068887  0.82068361  1
  Al  Al30  1  0.55830203  0.88361104  0.63569212  1
  B  B31  1  0.83444385  0.22117028  0.54485457  1
  B  B32  1  0.55629557  0.20493402  0.15137729  1
  B  B33  1  0.16936283  0.22830730  0.56007867  1
  B  B34  1  0.77080248  0.09486071  0.30996024  1
  B  B35  1  0.50433840  0.22863298  0.65125057  1
  N  N36  1  0.20583612  0.21414115  0.40544365  1
  N  N37  1  0.10893111  0.09834454  0.14098265  1
  N  N38  1  0.89513147  0.20040784  0.88428709  1
  N  N39  1  0.82519692  0.09597541  0.62076559  1
  N  N40  1  0.56439627  0.19867480  0.31180591  1
  N  N41  1  0.46635650  0.10927289  0.08598211  1
  N  N42  1  0.22628166  0.20223258  0.88885004  1
  N  N43  1  0.15104903  0.10083620  0.62746483  1
  N  N44  1  0.85989352  0.20154030  0.38799312  1
  N  N45  1  0.76719227  0.10255122  0.14652989  1
  N  N46  1  0.54925038  0.20998384  0.80199116  1
  N  N47  1  0.49065408  0.09980211  0.58317676  1
  N  N48  1  0.21431054  0.54388215  0.37812569  1
  N  N49  1  0.10920590  0.42730467  0.13563593  1
  N  N50  1  0.89428868  0.53133858  0.87527310  1
  N  N51  1  0.78792272  0.39556177  0.61169262  1
  N  N52  1  0.54834463  0.54035014  0.35555673  1
  N  N53  1  0.46232509  0.39541619  0.08587640  1
  N  N54  1  0.22037094  0.53748138  0.87885688  1
  N  N55  1  0.11505379  0.40214315  0.62373530  1
  N  N56  1  0.88448018  0.54175850  0.37941643  1
  N  N57  1  0.78091301  0.42625111  0.13370533  1
  N  N58  1  0.56051886  0.53154631  0.83982149  1
  N  N59  1  0.44935837  0.39770272  0.58429462  1
  N  N60  1  0.21299367  0.87670758  0.38267710  1
  N  N61  1  0.10895378  0.76264192  0.12746880  1
  N  N62  1  0.88631312  0.87979665  0.87928791  1
  N  N63  1  0.79270953  0.75347196  0.62546206  1
  N  N64  1  0.54679827  0.88335801  0.33722667  1
  N  N65  1  0.43736613  0.76479873  0.12638617  1
  N  N66  1  0.22130195  0.87421416  0.87730372  1
  N  N67  1  0.11427754  0.75741543  0.62754884  1
  N  N68  1  0.87065725  0.90264629  0.36825082  1
  N  N69  1  0.78197622  0.75862542  0.12780992  1
  N  N70  1  0.55890395  0.87416252  0.83546466  1
  N  N71  1  0.44680624  0.75925847  0.62126632  1
