# generated using pymatgen
data_Al31B5N36
_symmetry_space_group_name_H-M   'P 1'
_cell_length_a   9.35518901
_cell_length_b   9.14362269
_cell_length_c   9.80994802
_cell_angle_alpha   90.30315466
_cell_angle_beta   90.85911749
_cell_angle_gamma   60.60707375
_symmetry_Int_Tables_number   1
_chemical_formula_structural   Al31B5N36
_chemical_formula_sum   'Al31 B5 N36'
_cell_volume   731.04225672
_cell_formula_units_Z   1
loop_
 _symmetry_equiv_pos_site_id
 _symmetry_equiv_pos_as_xyz
  1  'x, y, z'
loop_
 _atom_site_type_symbol
 _atom_site_label
 _atom_site_symmetry_multiplicity
 _atom_site_fract_x
 _atom_site_fract_y
 _atom_site_fract_z
 _atom_site_occupancy
  Al  Al0  1  0.12258829  0.09479364  0.41152087  1
  Al  Al1  1  0.22261327  0.20723737  0.14920186  1
  Al  Al2  1  0.75931187  0.10160238  0.89163219  1
  Al  Al3  1  0.45500333  0.10077950  0.39885321  1
  Al  Al4  1  0.09793668  0.09818547  0.88711289  1
  Al  Al5  1  0.87908006  0.20273448  0.15239745  1
  Al  Al6  1  0.43418933  0.10154859  0.89082934  1
  Al  Al7  1  0.11353714  0.41956618  0.40615924  1
  Al  Al8  1  0.22105591  0.53635905  0.15421934  1
  Al  Al9  1  0.77148157  0.42755379  0.90001406  1
  Al  Al10  1  0.88781030  0.52944406  0.65365328  1
  Al  Al11  1  0.44945492  0.41266593  0.39658502  1
  Al  Al12  1  0.55412164  0.53287977  0.15317790  1
  Al  Al13  1  0.10335364  0.43171400  0.90117216  1
  Al  Al14  1  0.22408446  0.52729212  0.65385376  1
  Al  Al15  1  0.77921939  0.41504681  0.40517675  1
  Al  Al16  1  0.88639123  0.53957224  0.15499714  1
  Al  Al17  1  0.43911118  0.42622064  0.90249668  1
  Al  Al18  1  0.55483029  0.52686923  0.65250309  1
  Al  Al19  1  0.11644303  0.76179936  0.40427080  1
  Al  Al20  1  0.21876401  0.87739048  0.15153677  1
  Al  Al21  1  0.77357146  0.76536950  0.90380645  1
  Al  Al22  1  0.89778826  0.87431871  0.64826971  1
  Al  Al23  1  0.45015689  0.75898994  0.40164756  1
  Al  Al24  1  0.55290505  0.88280294  0.15109415  1
  Al  Al25  1  0.10493466  0.76500518  0.90376633  1
  Al  Al26  1  0.23209891  0.87313371  0.65272066  1
  Al  Al27  1  0.77875891  0.76895215  0.40416818  1
  Al  Al28  1  0.87535384  0.89162521  0.15686813  1
  Al  Al29  1  0.44117513  0.76290650  0.90251587  1
  Al  Al30  1  0.56250257  0.87778924  0.64997630  1
  B  B31  1  0.84639339  0.22281792  0.65712611  1
  B  B32  1  0.53851485  0.21653020  0.15362145  1
  B  B33  1  0.17268677  0.22675720  0.66810975  1
  B  B34  1  0.84854455  0.07203075  0.42408437  1
  B  B35  1  0.50313850  0.22721950  0.66115249  1
  N  N36  1  0.22799436  0.20206906  0.33976048  1
  N  N37  1  0.09973240  0.10160063  0.08356216  1
  N  N38  1  0.87340899  0.20818790  0.81469743  1
  N  N39  1  0.83724725  0.09026241  0.57489652  1
  N  N40  1  0.54190372  0.21225601  0.30658698  1
  N  N41  1  0.44489859  0.11229161  0.08596115  1
  N  N42  1  0.20881982  0.21248633  0.82337920  1
  N  N43  1  0.14989947  0.09910741  0.60086750  1
  N  N44  1  0.89534979  0.18619838  0.34785450  1
  N  N45  1  0.74515931  0.11368269  0.08593582  1
  N  N46  1  0.54111598  0.21264778  0.81551319  1
  N  N47  1  0.48784237  0.09889055  0.58977930  1
  N  N48  1  0.21932169  0.53865876  0.34835077  1
  N  N49  1  0.10395907  0.43087083  0.09232759  1
  N  N50  1  0.88234846  0.54021999  0.84528434  1
  N  N51  1  0.78252349  0.40016220  0.60031721  1
  N  N52  1  0.55843014  0.53241770  0.34727239  1
  N  N53  1  0.44662898  0.41045050  0.09466070  1
  N  N54  1  0.21798479  0.53997980  0.84587957  1
  N  N55  1  0.11461552  0.40176489  0.60367055  1
  N  N56  1  0.88927942  0.53596125  0.35009204  1
  N  N57  1  0.77399923  0.42710097  0.09401391  1
  N  N58  1  0.55057704  0.53784278  0.84479385  1
  N  N59  1  0.44917566  0.40011712  0.59633886  1
  N  N60  1  0.22766081  0.87275085  0.34599891  1
  N  N61  1  0.10188675  0.76679737  0.09832779  1
  N  N62  1  0.88467031  0.87638348  0.84089623  1
  N  N63  1  0.78656256  0.75474943  0.59522376  1
  N  N64  1  0.55926671  0.87328761  0.34428453  1
  N  N65  1  0.44115102  0.76319858  0.09587204  1
  N  N66  1  0.22070689  0.87148943  0.84412342  1
  N  N67  1  0.12220649  0.75243760  0.59608255  1
  N  N68  1  0.88606018  0.90121607  0.35718306  1
  N  N69  1  0.77510613  0.76603806  0.09891833  1
  N  N70  1  0.55269810  0.87469414  0.84345648  1
  N  N71  1  0.45471016  0.75354363  0.59475413  1
