# generated using pymatgen
data_Al31B5N36
_symmetry_space_group_name_H-M   'P 1'
_cell_length_a   9.30352980
_cell_length_b   9.16260900
_cell_length_c   9.95219686
_cell_angle_alpha   90.20981364
_cell_angle_beta   89.77361876
_cell_angle_gamma   60.43453941
_symmetry_Int_Tables_number   1
_chemical_formula_structural   Al31B5N36
_chemical_formula_sum   'Al31 B5 N36'
_cell_volume   737.88573003
_cell_formula_units_Z   1
loop_
 _symmetry_equiv_pos_site_id
 _symmetry_equiv_pos_as_xyz
  1  'x, y, z'
loop_
 _atom_site_type_symbol
 _atom_site_label
 _atom_site_symmetry_multiplicity
 _atom_site_fract_x
 _atom_site_fract_y
 _atom_site_fract_z
 _atom_site_occupancy
  Al  Al0  1  0.09798325  0.09881499  0.32290722  1
  Al  Al1  1  0.22885381  0.20569639  0.06598168  1
  Al  Al2  1  0.79128521  0.09419270  0.79419210  1
  Al  Al3  1  0.44672957  0.10910082  0.39622599  1
  Al  Al4  1  0.11684946  0.09711292  0.80221905  1
  Al  Al5  1  0.88706062  0.20440353  0.06373827  1
  Al  Al6  1  0.45283210  0.09699905  0.86531842  1
  Al  Al7  1  0.10433960  0.43080074  0.31089415  1
  Al  Al8  1  0.22763641  0.53153032  0.05922023  1
  Al  Al9  1  0.78168558  0.41719303  0.80257833  1
  Al  Al10  1  0.88741228  0.52866336  0.55489991  1
  Al  Al11  1  0.44266530  0.42942387  0.30587857  1
  Al  Al12  1  0.55813448  0.53169324  0.05928130  1
  Al  Al13  1  0.11405678  0.41867022  0.80532816  1
  Al  Al14  1  0.22062472  0.52933180  0.55506967  1
  Al  Al15  1  0.76905733  0.42885613  0.30979824  1
  Al  Al16  1  0.89016216  0.53593639  0.05754187  1
  Al  Al17  1  0.44062575  0.43522677  0.81014252  1
  Al  Al18  1  0.55312021  0.52792420  0.55578881  1
  Al  Al19  1  0.10401417  0.76873187  0.30668727  1
  Al  Al20  1  0.22159588  0.87575203  0.05964634  1
  Al  Al21  1  0.78306378  0.75889207  0.80766086  1
  Al  Al22  1  0.89123588  0.88163965  0.54999267  1
  Al  Al23  1  0.43914911  0.76861991  0.30968590  1
  Al  Al24  1  0.56122113  0.87312248  0.06198796  1
  Al  Al25  1  0.10961458  0.76245187  0.80765314  1
  Al  Al26  1  0.22702463  0.87643165  0.56010861  1
  Al  Al27  1  0.76895935  0.77222088  0.30848634  1
  Al  Al28  1  0.88427979  0.87922538  0.06210213  1
  Al  Al29  1  0.44621946  0.75979031  0.80954442  1
  Al  Al30  1  0.56472923  0.86900151  0.56858335  1
  B  B31  1  0.83275609  0.22182516  0.53493453  1
  B  B32  1  0.55847106  0.19699251  0.14694596  1
  B  B33  1  0.16836285  0.22859990  0.54882120  1
  B  B34  1  0.77298662  0.09417835  0.30279584  1
  B  B35  1  0.51016568  0.22412762  0.64811460  1
  N  N36  1  0.20500040  0.21587831  0.39413956  1
  N  N37  1  0.10977139  0.09860391  0.12981238  1
  N  N38  1  0.89590529  0.20131412  0.87328514  1
  N  N39  1  0.82187194  0.09654995  0.61024573  1
  N  N40  1  0.57059495  0.19262838  0.30926621  1
  N  N41  1  0.46562188  0.10951610  0.07999890  1
  N  N42  1  0.22477461  0.20397718  0.87557248  1
  N  N43  1  0.15021594  0.09977339  0.61540405  1
  N  N44  1  0.86036951  0.20241176  0.37784079  1
  N  N45  1  0.76776504  0.10163258  0.13803769  1
  N  N46  1  0.55916267  0.20328310  0.79763782  1
  N  N47  1  0.48327136  0.10213771  0.58249276  1
  N  N48  1  0.21865615  0.54066466  0.36559554  1
  N  N49  1  0.10980702  0.42777819  0.12205416  1
  N  N50  1  0.89135655  0.53312634  0.86340150  1
  N  N51  1  0.78181601  0.39835087  0.60324120  1
  N  N52  1  0.54813075  0.54321838  0.36721818  1
  N  N53  1  0.45432424  0.40712730  0.11448676  1
  N  N54  1  0.22081351  0.53686793  0.86657899  1
  N  N55  1  0.11353801  0.40339905  0.61118267  1
  N  N56  1  0.88219611  0.54325239  0.36647301  1
  N  N57  1  0.77650607  0.42804805  0.12045683  1
  N  N58  1  0.56056925  0.53483303  0.86730675  1
  N  N59  1  0.44204404  0.41080099  0.61422195  1
  N  N60  1  0.21877419  0.87408685  0.37052380  1
  N  N61  1  0.11121077  0.76085114  0.11609822  1
  N  N62  1  0.88750159  0.87734416  0.86920672  1
  N  N63  1  0.78975863  0.75399337  0.61678536  1
  N  N64  1  0.55144082  0.87492819  0.37438310  1
  N  N65  1  0.44402331  0.76248424  0.11753174  1
  N  N66  1  0.22347967  0.87316400  0.86686064  1
  N  N67  1  0.11524056  0.75604748  0.61549879  1
  N  N68  1  0.87282814  0.90025164  0.35769948  1
  N  N69  1  0.77938436  0.75971403  0.11812470  1
  N  N70  1  0.56239377  0.86531279  0.86701513  1
  N  N71  1  0.45174197  0.75182087  0.61998213  1
