# generated using pymatgen
data_Al31B5N36
_symmetry_space_group_name_H-M   'P 1'
_cell_length_a   9.38230805
_cell_length_b   9.12349721
_cell_length_c   10.11008703
_cell_angle_alpha   90.18074093
_cell_angle_beta   90.50545128
_cell_angle_gamma   60.76746890
_symmetry_Int_Tables_number   1
_chemical_formula_structural   Al31B5N36
_chemical_formula_sum   'Al31 B5 N36'
_cell_volume   755.17259733
_cell_formula_units_Z   1
loop_
 _symmetry_equiv_pos_site_id
 _symmetry_equiv_pos_as_xyz
  1  'x, y, z'
loop_
 _atom_site_type_symbol
 _atom_site_label
 _atom_site_symmetry_multiplicity
 _atom_site_fract_x
 _atom_site_fract_y
 _atom_site_fract_z
 _atom_site_occupancy
  Al  Al0  1  0.12117912  0.09072543  0.33283674  1
  Al  Al1  1  0.21304725  0.21266762  0.07490735  1
  Al  Al2  1  0.77643859  0.09375933  0.87807631  1
  Al  Al3  1  0.44727335  0.10136636  0.40646164  1
  Al  Al4  1  0.11378925  0.09635980  0.80640070  1
  Al  Al5  1  0.88348682  0.20219534  0.14433532  1
  Al  Al6  1  0.44555652  0.09699515  0.89072816  1
  Al  Al7  1  0.11330601  0.42772509  0.33197945  1
  Al  Al8  1  0.21014946  0.54288191  0.07592138  1
  Al  Al9  1  0.77688091  0.42258930  0.88947296  1
  Al  Al10  1  0.88111401  0.53161620  0.64178216  1
  Al  Al11  1  0.44612304  0.41902984  0.39272648  1
  Al  Al12  1  0.55450224  0.52925227  0.14423446  1
  Al  Al13  1  0.11340549  0.41990291  0.82206441  1
  Al  Al14  1  0.21714484  0.53054202  0.57769724  1
  Al  Al15  1  0.77771700  0.41645224  0.39672810  1
  Al  Al16  1  0.87778977  0.54475934  0.14760467  1
  Al  Al17  1  0.44622880  0.41947600  0.89437146  1
  Al  Al18  1  0.55402702  0.52640758  0.64799520  1
  Al  Al19  1  0.11769608  0.76257612  0.32817965  1
  Al  Al20  1  0.21260791  0.87977918  0.07606352  1
  Al  Al21  1  0.77832823  0.76236291  0.89541931  1
  Al  Al22  1  0.89219726  0.87630365  0.63457359  1
  Al  Al23  1  0.45840876  0.75354072  0.39398453  1
  Al  Al24  1  0.55196812  0.88431067  0.14695964  1
  Al  Al25  1  0.11363383  0.76031964  0.82356929  1
  Al  Al26  1  0.23005591  0.87387717  0.57539456  1
  Al  Al27  1  0.77614709  0.77264324  0.39657414  1
  Al  Al28  1  0.87701176  0.89277263  0.14438416  1
  Al  Al29  1  0.44658702  0.76031691  0.89548285  1
  Al  Al30  1  0.56478827  0.87509897  0.64716658  1
  B  B31  1  0.84302184  0.22520694  0.64141767  1
  B  B32  1  0.48025045  0.24158588  0.15708357  1
  B  B33  1  0.16850882  0.22856420  0.56412960  1
  B  B34  1  0.85712887  0.06800674  0.41578694  1
  B  B35  1  0.50540202  0.22612868  0.65698810  1
  N  N36  1  0.20624334  0.21588329  0.41598005  1
  N  N37  1  0.11968669  0.09574442  0.14656345  1
  N  N38  1  0.87397908  0.20984980  0.79246255  1
  N  N39  1  0.84407253  0.08754871  0.56114746  1
  N  N40  1  0.49689578  0.23076053  0.29800038  1
  N  N41  1  0.44914092  0.11286021  0.08256946  1
  N  N42  1  0.21212249  0.20674030  0.89024608  1
  N  N43  1  0.16164356  0.09304673  0.62921582  1
  N  N44  1  0.88446595  0.19086843  0.33688986  1
  N  N45  1  0.79977815  0.08987704  0.05720338  1
  N  N46  1  0.54469934  0.21040849  0.80785418  1
  N  N47  1  0.49955649  0.09304582  0.58684742  1
  N  N48  1  0.21257313  0.54719552  0.39292441  1
  N  N49  1  0.10959402  0.42810760  0.14292708  1
  N  N50  1  0.88219849  0.53946623  0.83210253  1
  N  N51  1  0.77999911  0.40145096  0.58612066  1
  N  N52  1  0.55810143  0.53012027  0.33388663  1
  N  N53  1  0.44682437  0.40573140  0.08560307  1
  N  N54  1  0.21351956  0.53989901  0.88575979  1
  N  N55  1  0.11621667  0.40080263  0.62938249  1
  N  N56  1  0.87842396  0.54321060  0.33899961  1
  N  N57  1  0.77665204  0.42510692  0.08039511  1
  N  N58  1  0.55216384  0.53593875  0.83597008  1
  N  N59  1  0.45403337  0.39684419  0.59022764  1
  N  N60  1  0.22797093  0.87057018  0.38758399  1
  N  N61  1  0.11262390  0.76021776  0.14060737  1
  N  N62  1  0.88218671  0.87248884  0.82205435  1
  N  N63  1  0.78580085  0.75420321  0.58175915  1
  N  N64  1  0.55427236  0.87977309  0.33560843  1
  N  N65  1  0.44783984  0.75887341  0.08667207  1
  N  N66  1  0.21270334  0.88105180  0.88533148  1
  N  N67  1  0.12797262  0.75189476  0.63675248  1
  N  N68  1  0.88128492  0.90526174  0.34770169  1
  N  N69  1  0.77496498  0.76817987  0.08713914  1
  N  N70  1  0.55569016  0.87277671  0.83602490  1
  N  N71  1  0.46466910  0.74769938  0.58478520  1
