# generated using pymatgen
data_Al31B5N36
_symmetry_space_group_name_H-M   'P 1'
_cell_length_a   9.33389117
_cell_length_b   9.20604712
_cell_length_c   9.93397735
_cell_angle_alpha   89.90037349
_cell_angle_beta   89.91643043
_cell_angle_gamma   60.18217839
_symmetry_Int_Tables_number   1
_chemical_formula_structural   Al31B5N36
_chemical_formula_sum   'Al31 B5 N36'
_cell_volume   740.59930000
_cell_formula_units_Z   1
loop_
 _symmetry_equiv_pos_site_id
 _symmetry_equiv_pos_as_xyz
  1  'x, y, z'
loop_
 _atom_site_type_symbol
 _atom_site_label
 _atom_site_symmetry_multiplicity
 _atom_site_fract_x
 _atom_site_fract_y
 _atom_site_fract_z
 _atom_site_occupancy
  Al  Al0  1  0.09640423  0.09989658  0.33436115  1
  Al  Al1  1  0.22391353  0.20741871  0.07731527  1
  Al  Al2  1  0.78769403  0.09720598  0.80289800  1
  Al  Al3  1  0.45082115  0.09936617  0.40165808  1
  Al  Al4  1  0.11728038  0.09806810  0.81415237  1
  Al  Al5  1  0.88623405  0.20527279  0.07473858  1
  Al  Al6  1  0.45856597  0.09289567  0.89073924  1
  Al  Al7  1  0.10581933  0.42964455  0.32449358  1
  Al  Al8  1  0.22156357  0.53472282  0.07502879  1
  Al  Al9  1  0.78373976  0.41691259  0.81410503  1
  Al  Al10  1  0.88753495  0.52965186  0.56770910  1
  Al  Al11  1  0.44898713  0.41364694  0.38335586  1
  Al  Al12  1  0.55904065  0.53479673  0.08259486  1
  Al  Al13  1  0.11802906  0.41641654  0.81814299  1
  Al  Al14  1  0.21495513  0.53277458  0.57076194  1
  Al  Al15  1  0.76977686  0.42869554  0.32441710  1
  Al  Al16  1  0.88876807  0.53726596  0.06912820  1
  Al  Al17  1  0.45220520  0.41584787  0.88639425  1
  Al  Al18  1  0.55543978  0.53035481  0.57944314  1
  Al  Al19  1  0.10250661  0.76964983  0.31804289  1
  Al  Al20  1  0.21884042  0.87652629  0.06974314  1
  Al  Al21  1  0.78884567  0.75600066  0.82074276  1
  Al  Al22  1  0.88925626  0.88324487  0.56099735  1
  Al  Al23  1  0.43331737  0.76450071  0.32587961  1
  Al  Al24  1  0.55221397  0.88459597  0.13857295  1
  Al  Al25  1  0.11040039  0.76185154  0.81913996  1
  Al  Al26  1  0.22353784  0.87898293  0.57197847  1
  Al  Al27  1  0.77722862  0.76678782  0.32296359  1
  Al  Al28  1  0.88172955  0.88050397  0.07160149  1
  Al  Al29  1  0.44285912  0.75853508  0.82082941  1
  Al  Al30  1  0.55819664  0.88349322  0.63662706  1
  B  B31  1  0.83425451  0.22123397  0.54559278  1
  B  B32  1  0.55571071  0.20610301  0.15132362  1
  B  B33  1  0.16962438  0.22812911  0.56007669  1
  B  B34  1  0.77071556  0.09483669  0.30997849  1
  B  B35  1  0.50428715  0.22905256  0.65101411  1
  N  N36  1  0.20601958  0.21404375  0.40555320  1
  N  N37  1  0.10907475  0.09827658  0.14126925  1
  N  N38  1  0.89477082  0.20100945  0.88443027  1
  N  N39  1  0.82543714  0.09570040  0.62097273  1
  N  N40  1  0.56470031  0.19824287  0.31187647  1
  N  N41  1  0.46625283  0.10901153  0.08611178  1
  N  N42  1  0.22635598  0.20223750  0.88888009  1
  N  N43  1  0.15135657  0.10045987  0.62751224  1
  N  N44  1  0.85949951  0.20253930  0.38839254  1
  N  N45  1  0.76739671  0.10252609  0.14669074  1
  N  N46  1  0.54976214  0.20969730  0.80176722  1
  N  N47  1  0.49064757  0.09966650  0.58333331  1
  N  N48  1  0.21392991  0.54397861  0.37785853  1
  N  N49  1  0.10912352  0.42722072  0.13578168  1
  N  N50  1  0.89400096  0.53119854  0.87534033  1
  N  N51  1  0.78563220  0.39699110  0.61478935  1
  N  N52  1  0.54986899  0.54211609  0.37926131  1
  N  N53  1  0.46193192  0.39514154  0.08746741  1
  N  N54  1  0.21970184  0.53765986  0.87873698  1
  N  N55  1  0.11503537  0.40202530  0.62370469  1
  N  N56  1  0.88382312  0.54121645  0.37953652  1
  N  N57  1  0.77881808  0.42742962  0.13450975  1
  N  N58  1  0.56261682  0.53482250  0.87146710  1
  N  N59  1  0.44930616  0.39805330  0.58544444  1
  N  N60  1  0.21413914  0.87594540  0.38295301  1
  N  N61  1  0.10872176  0.76272627  0.12758163  1
  N  N62  1  0.88633847  0.87979416  0.87938737  1
  N  N63  1  0.79264834  0.75344273  0.62554782  1
  N  N64  1  0.54658049  0.88259490  0.33756033  1
  N  N65  1  0.43832260  0.76207153  0.12870192  1
  N  N66  1  0.22167763  0.87399102  0.87774363  1
  N  N67  1  0.11414382  0.75740180  0.62756559  1
  N  N68  1  0.87064227  0.90266292  0.36836353  1
  N  N69  1  0.78190244  0.75858038  0.12795081  1
  N  N70  1  0.55897200  0.87391397  0.83581094  1
  N  N71  1  0.44770223  0.75643428  0.62594762  1
