# generated using pymatgen
data_Al31B5N36
_symmetry_space_group_name_H-M   'P 1'
_cell_length_a   9.29116249
_cell_length_b   9.16374158
_cell_length_c   9.91522715
_cell_angle_alpha   90.05917115
_cell_angle_beta   89.56814174
_cell_angle_gamma   60.27160999
_symmetry_Int_Tables_number   1
_chemical_formula_structural   Al31B5N36
_chemical_formula_sum   'Al31 B5 N36'
_cell_volume   733.05985203
_cell_formula_units_Z   1
loop_
 _symmetry_equiv_pos_site_id
 _symmetry_equiv_pos_as_xyz
  1  'x, y, z'
loop_
 _atom_site_type_symbol
 _atom_site_label
 _atom_site_symmetry_multiplicity
 _atom_site_fract_x
 _atom_site_fract_y
 _atom_site_fract_z
 _atom_site_occupancy
  Al  Al0  1  0.09986264  0.09863772  0.32162248  1
  Al  Al1  1  0.23750158  0.20243207  0.06358191  1
  Al  Al2  1  0.78794067  0.09431079  0.80253256  1
  Al  Al3  1  0.44718279  0.10666339  0.39122010  1
  Al  Al4  1  0.11659378  0.09697113  0.80434885  1
  Al  Al5  1  0.88718399  0.20354555  0.06448570  1
  Al  Al6  1  0.44308187  0.09166939  0.79547592  1
  Al  Al7  1  0.10731475  0.42912724  0.30925486  1
  Al  Al8  1  0.22902879  0.53028407  0.05889718  1
  Al  Al9  1  0.78038228  0.41748333  0.80289847  1
  Al  Al10  1  0.88985162  0.52766289  0.55398294  1
  Al  Al11  1  0.44415344  0.43050744  0.30883094  1
  Al  Al12  1  0.55739883  0.53116842  0.05947374  1
  Al  Al13  1  0.11374154  0.41900628  0.80647547  1
  Al  Al14  1  0.22489660  0.52676757  0.55707745  1
  Al  Al15  1  0.77043960  0.42929573  0.30912607  1
  Al  Al16  1  0.88970478  0.53605394  0.05725402  1
  Al  Al17  1  0.44195712  0.43046726  0.80745727  1
  Al  Al18  1  0.55177317  0.53275041  0.55478934  1
  Al  Al19  1  0.10506490  0.76792240  0.30774900  1
  Al  Al20  1  0.22173497  0.87569998  0.05994915  1
  Al  Al21  1  0.78164507  0.75935788  0.80863921  1
  Al  Al22  1  0.88425946  0.88517438  0.55093366  1
  Al  Al23  1  0.44045120  0.76963976  0.30625560  1
  Al  Al24  1  0.55590882  0.88474953  0.05854673  1
  Al  Al25  1  0.11045723  0.76216636  0.80777466  1
  Al  Al26  1  0.22730996  0.87693341  0.55948795  1
  Al  Al27  1  0.77003066  0.77167335  0.30590220  1
  Al  Al28  1  0.88462707  0.87880819  0.06299919  1
  Al  Al29  1  0.44677567  0.75883211  0.81154276  1
  Al  Al30  1  0.56866047  0.86370774  0.56479204  1
  B  B31  1  0.82183408  0.22977922  0.53368448  1
  B  B32  1  0.55504162  0.19625171  0.15506258  1
  B  B33  1  0.16646103  0.22892555  0.54915042  1
  B  B34  1  0.77345527  0.09411616  0.30484209  1
  B  B35  1  0.55914829  0.20795042  0.63968027  1
  N  N36  1  0.20554714  0.21489451  0.39623883  1
  N  N37  1  0.11009736  0.09941687  0.12830760  1
  N  N38  1  0.89602561  0.20038256  0.87218601  1
  N  N39  1  0.77291991  0.11809112  0.60698432  1
  N  N40  1  0.57550556  0.19541691  0.31929595  1
  N  N41  1  0.45893113  0.10777426  0.11464618  1
  N  N42  1  0.23002956  0.20119592  0.87134122  1
  N  N43  1  0.14281038  0.10133811  0.61568018  1
  N  N44  1  0.86192283  0.20169474  0.38122399  1
  N  N45  1  0.76807468  0.10079904  0.14027378  1
  N  N46  1  0.56187517  0.20170389  0.80329779  1
  N  N47  1  0.48449503  0.09765401  0.59428235  1
  N  N48  1  0.21929555  0.54013893  0.36716503  1
  N  N49  1  0.11012301  0.42690295  0.11955274  1
  N  N50  1  0.89003470  0.53283648  0.86276878  1
  N  N51  1  0.78186539  0.39826434  0.60249452  1
  N  N52  1  0.54958543  0.54569852  0.36614463  1
  N  N53  1  0.45404112  0.40666804  0.11745906  1
  N  N54  1  0.22115483  0.53681893  0.86478031  1
  N  N55  1  0.11486958  0.40212051  0.61197197  1
  N  N56  1  0.88420699  0.54243477  0.36521681  1
  N  N57  1  0.77680003  0.42719039  0.11993814  1
  N  N58  1  0.55953766  0.53360421  0.86685420  1
  N  N59  1  0.45071884  0.40872858  0.61133915  1
  N  N60  1  0.22003075  0.87393270  0.36966675  1
  N  N61  1  0.11178635  0.76003562  0.11652441  1
  N  N62  1  0.88884673  0.87557191  0.86896237  1
  N  N63  1  0.79135526  0.75151805  0.61696227  1
  N  N64  1  0.55399317  0.87248423  0.37488303  1
  N  N65  1  0.44507146  0.76351285  0.11440479  1
  N  N66  1  0.22300214  0.87301815  0.86686677  1
  N  N67  1  0.11040956  0.76206277  0.61476961  1
  N  N68  1  0.87321659  0.90011624  0.35903830  1
  N  N69  1  0.77743476  0.76090840  0.11527009  1
  N  N70  1  0.55815981  0.87224925  0.86311813  1
  N  N71  1  0.45084981  0.75443928  0.62063992  1
