# generated using pymatgen
data_Al31B5N36
_symmetry_space_group_name_H-M   'P 1'
_cell_length_a   9.29359432
_cell_length_b   9.16478742
_cell_length_c   9.90724256
_cell_angle_alpha   90.06339829
_cell_angle_beta   89.58483010
_cell_angle_gamma   60.25879422
_symmetry_Int_Tables_number   1
_chemical_formula_structural   Al31B5N36
_chemical_formula_sum   'Al31 B5 N36'
_cell_volume   732.65314092
_cell_formula_units_Z   1
loop_
 _symmetry_equiv_pos_site_id
 _symmetry_equiv_pos_as_xyz
  1  'x, y, z'
loop_
 _atom_site_type_symbol
 _atom_site_label
 _atom_site_symmetry_multiplicity
 _atom_site_fract_x
 _atom_site_fract_y
 _atom_site_fract_z
 _atom_site_occupancy
  Al  Al0  1  0.09960783  0.09848176  0.32181455  1
  Al  Al1  1  0.23686449  0.20242730  0.06430583  1
  Al  Al2  1  0.78763056  0.09458580  0.80237764  1
  Al  Al3  1  0.44657382  0.10519229  0.38301663  1
  Al  Al4  1  0.11680224  0.09712989  0.80442777  1
  Al  Al5  1  0.88703757  0.20353920  0.06435650  1
  Al  Al6  1  0.44273046  0.09172815  0.79404599  1
  Al  Al7  1  0.10722875  0.42910108  0.30932219  1
  Al  Al8  1  0.22896924  0.53016518  0.05898877  1
  Al  Al9  1  0.78042744  0.41754481  0.80284339  1
  Al  Al10  1  0.88991047  0.52775819  0.55430920  1
  Al  Al11  1  0.44423682  0.43054627  0.30951479  1
  Al  Al12  1  0.55739158  0.53092632  0.05949082  1
  Al  Al13  1  0.11393332  0.41902716  0.80655842  1
  Al  Al14  1  0.22502833  0.52670829  0.55714757  1
  Al  Al15  1  0.77063183  0.42911948  0.30929523  1
  Al  Al16  1  0.88946333  0.53618838  0.05707026  1
  Al  Al17  1  0.44198696  0.43055546  0.80743328  1
  Al  Al18  1  0.55194007  0.53304475  0.55518070  1
  Al  Al19  1  0.10517457  0.76781311  0.30790295  1
  Al  Al20  1  0.22158447  0.87558246  0.05991925  1
  Al  Al21  1  0.78110573  0.75993415  0.80865658  1
  Al  Al22  1  0.88420285  0.88524467  0.55107227  1
  Al  Al23  1  0.44048925  0.76881507  0.30631296  1
  Al  Al24  1  0.55535528  0.88492987  0.05970910  1
  Al  Al25  1  0.11043335  0.76228146  0.80776194  1
  Al  Al26  1  0.22753589  0.87693678  0.55976100  1
  Al  Al27  1  0.77087495  0.77091047  0.30591614  1
  Al  Al28  1  0.88468937  0.87867764  0.06286494  1
  Al  Al29  1  0.44693344  0.75929145  0.81174453  1
  Al  Al30  1  0.56785019  0.86548145  0.56375439  1
  B  B31  1  0.82188191  0.22968338  0.53380024  1
  B  B32  1  0.55550711  0.19685992  0.15622584  1
  B  B33  1  0.16810711  0.22833518  0.54894364  1
  B  B34  1  0.77406534  0.09408562  0.30514268  1
  B  B35  1  0.55818350  0.20820163  0.63915293  1
  N  N36  1  0.20561193  0.21459338  0.39557452  1
  N  N37  1  0.10976100  0.09922746  0.12838159  1
  N  N38  1  0.89610053  0.20042171  0.87204184  1
  N  N39  1  0.77297737  0.11807275  0.60693047  1
  N  N40  1  0.57674734  0.19592592  0.31981337  1
  N  N41  1  0.45710572  0.10724851  0.12120275  1
  N  N42  1  0.23052720  0.20117092  0.87193072  1
  N  N43  1  0.14357066  0.10129920  0.61570908  1
  N  N44  1  0.86229554  0.20141327  0.38122612  1
  N  N45  1  0.76790880  0.10074391  0.14004305  1
  N  N46  1  0.56152410  0.20176257  0.80355772  1
  N  N47  1  0.48343825  0.09847855  0.59366787  1
  N  N48  1  0.21934118  0.54000939  0.36710370  1
  N  N49  1  0.10978965  0.42710124  0.11949197  1
  N  N50  1  0.88997563  0.53305973  0.86248986  1
  N  N51  1  0.78203717  0.39819237  0.60252172  1
  N  N52  1  0.54987137  0.54537762  0.36637012  1
  N  N53  1  0.45418678  0.40605373  0.11761767  1
  N  N54  1  0.22121320  0.53693440  0.86484427  1
  N  N55  1  0.11524535  0.40203237  0.61183950  1
  N  N56  1  0.88444429  0.54211625  0.36536595  1
  N  N57  1  0.77676068  0.42717038  0.11993975  1
  N  N58  1  0.55955557  0.53378052  0.86680776  1
  N  N59  1  0.45070409  0.40907326  0.61132988  1
  N  N60  1  0.22019850  0.87372346  0.36977084  1
  N  N61  1  0.11177725  0.75990724  0.11654047  1
  N  N62  1  0.88880797  0.87572671  0.86882034  1
  N  N63  1  0.79070934  0.75208668  0.61678533  1
  N  N64  1  0.55476572  0.87109850  0.37398786  1
  N  N65  1  0.44483148  0.76315224  0.11449275  1
  N  N66  1  0.22303012  0.87310018  0.86680711  1
  N  N67  1  0.11048731  0.76208087  0.61471335  1
  N  N68  1  0.87345976  0.89996248  0.35902272  1
  N  N69  1  0.77737134  0.76100213  0.11519874  1
  N  N70  1  0.55774865  0.87323315  0.86419547  1
  N  N71  1  0.45121690  0.75494830  0.62064296  1
