# generated using pymatgen
data_Al31B5N36
_symmetry_space_group_name_H-M   'P 1'
_cell_length_a   9.34688492
_cell_length_b   9.16893322
_cell_length_c   9.84664418
_cell_angle_alpha   90.00455665
_cell_angle_beta   90.37643083
_cell_angle_gamma   60.42775137
_symmetry_Int_Tables_number   1
_chemical_formula_structural   Al31B5N36
_chemical_formula_sum   'Al31 B5 N36'
_cell_volume   733.91909533
_cell_formula_units_Z   1
loop_
 _symmetry_equiv_pos_site_id
 _symmetry_equiv_pos_as_xyz
  1  'x, y, z'
loop_
 _atom_site_type_symbol
 _atom_site_label
 _atom_site_symmetry_multiplicity
 _atom_site_fract_x
 _atom_site_fract_y
 _atom_site_fract_z
 _atom_site_occupancy
  Al  Al0  1  0.11507843  0.09494994  0.35720811  1
  Al  Al1  1  0.22265354  0.20789301  0.13163971  1
  Al  Al2  1  0.76176074  0.10136287  0.88963282  1
  Al  Al3  1  0.44882785  0.10412974  0.39002425  1
  Al  Al4  1  0.10766129  0.10786488  0.80962684  1
  Al  Al5  1  0.87543390  0.20377137  0.15227479  1
  Al  Al6  1  0.43856880  0.09805441  0.90258172  1
  Al  Al7  1  0.11357174  0.42346953  0.39691073  1
  Al  Al8  1  0.22238057  0.53750099  0.15251923  1
  Al  Al9  1  0.77491451  0.42577235  0.89751062  1
  Al  Al10  1  0.89406569  0.52313132  0.64960691  1
  Al  Al11  1  0.45014497  0.41394860  0.39436404  1
  Al  Al12  1  0.55492530  0.53218400  0.14928210  1
  Al  Al13  1  0.10478348  0.43148568  0.90637772  1
  Al  Al14  1  0.22152144  0.53009942  0.65255735  1
  Al  Al15  1  0.77710790  0.41652473  0.40383249  1
  Al  Al16  1  0.88541398  0.54000881  0.15486739  1
  Al  Al17  1  0.43834424  0.42625342  0.90222644  1
  Al  Al18  1  0.55657726  0.52506217  0.65402471  1
  Al  Al19  1  0.11389772  0.76141339  0.40190498  1
  Al  Al20  1  0.22194624  0.87135985  0.15130944  1
  Al  Al21  1  0.77542191  0.76260342  0.90139757  1
  Al  Al22  1  0.89562802  0.87548368  0.64794933  1
  Al  Al23  1  0.45291010  0.75568229  0.40028714  1
  Al  Al24  1  0.55527174  0.88013729  0.15190615  1
  Al  Al25  1  0.10565450  0.76924820  0.90020954  1
  Al  Al26  1  0.23697416  0.86499653  0.63821692  1
  Al  Al27  1  0.77802124  0.76989692  0.40378812  1
  Al  Al28  1  0.87737122  0.88955064  0.15344808  1
  Al  Al29  1  0.43748569  0.76620809  0.89937072  1
  Al  Al30  1  0.55484146  0.87852938  0.65131279  1
  B  B31  1  0.83529774  0.22576661  0.65113387  1
  B  B32  1  0.54810010  0.20855298  0.15516397  1
  B  B33  1  0.23194266  0.20464044  0.60900170  1
  B  B34  1  0.83458250  0.07688052  0.42080197  1
  B  B35  1  0.48814973  0.23772937  0.66506340  1
  N  N36  1  0.22959242  0.20760149  0.33458861  1
  N  N37  1  0.10022407  0.09801443  0.13290698  1
  N  N38  1  0.86945573  0.20996577  0.80599017  1
  N  N39  1  0.82351332  0.09313416  0.57305169  1
  N  N40  1  0.55243822  0.20848075  0.31235181  1
  N  N41  1  0.45812598  0.10796273  0.09485909  1
  N  N42  1  0.21668982  0.20704054  0.87930273  1
  N  N43  1  0.15895818  0.09652374  0.61082219  1
  N  N44  1  0.88136250  0.19118606  0.34819264  1
  N  N45  1  0.74493106  0.11345589  0.08435333  1
  N  N46  1  0.53985778  0.21054466  0.81232384  1
  N  N47  1  0.42869777  0.12491541  0.59754253  1
  N  N48  1  0.22202652  0.53989903  0.34508452  1
  N  N49  1  0.10104287  0.43923919  0.09712665  1
  N  N50  1  0.88600964  0.53787912  0.84052613  1
  N  N51  1  0.78116274  0.40061716  0.59643336  1
  N  N52  1  0.55866197  0.53259401  0.34309769  1
  N  N53  1  0.44922245  0.40756255  0.09430449  1
  N  N54  1  0.21731043  0.54184610  0.84365852  1
  N  N55  1  0.12501689  0.39782503  0.59430994  1
  N  N56  1  0.88669539  0.53788238  0.35024897  1
  N  N57  1  0.77550985  0.42662054  0.09061296  1
  N  N58  1  0.55099880  0.53754784  0.84467796  1
  N  N59  1  0.44926582  0.39965227  0.59607477  1
  N  N60  1  0.23276586  0.86289716  0.34835242  1
  N  N61  1  0.10399771  0.76619529  0.09409933  1
  N  N62  1  0.88424142  0.87670309  0.83961127  1
  N  N63  1  0.78126936  0.75970636  0.59484680  1
  N  N64  1  0.55810015  0.87487007  0.34596660  1
  N  N65  1  0.44275988  0.76296179  0.09281637  1
  N  N66  1  0.21954813  0.87352063  0.83296957  1
  N  N67  1  0.11849874  0.75260916  0.59218847  1
  N  N68  1  0.88432813  0.90090777  0.35405742  1
  N  N69  1  0.77608654  0.76479223  0.09666498  1
  N  N70  1  0.55369538  0.87454035  0.84263545  1
  N  N71  1  0.46010116  0.74713434  0.59165064  1
