# generated using pymatgen
data_Al31B5N36
_symmetry_space_group_name_H-M   'P 1'
_cell_length_a   9.29072737
_cell_length_b   9.19183234
_cell_length_c   10.10434826
_cell_angle_alpha   89.47871113
_cell_angle_beta   90.15856891
_cell_angle_gamma   59.83329840
_symmetry_Int_Tables_number   1
_chemical_formula_structural   Al31B5N36
_chemical_formula_sum   'Al31 B5 N36'
_cell_volume   745.97649354
_cell_formula_units_Z   1
loop_
 _symmetry_equiv_pos_site_id
 _symmetry_equiv_pos_as_xyz
  1  'x, y, z'
loop_
 _atom_site_type_symbol
 _atom_site_label
 _atom_site_symmetry_multiplicity
 _atom_site_fract_x
 _atom_site_fract_y
 _atom_site_fract_z
 _atom_site_occupancy
  Al  Al0  1  0.10098294  0.09407214  0.31987301  1
  Al  Al1  1  0.22461557  0.20719799  0.07148952  1
  Al  Al2  1  0.78450512  0.09875515  0.80728838  1
  Al  Al3  1  0.45229383  0.10048217  0.40047946  1
  Al  Al4  1  0.10256754  0.10400242  0.82184935  1
  Al  Al5  1  0.88393540  0.20284037  0.09824257  1
  Al  Al6  1  0.45760051  0.09200338  0.88883689  1
  Al  Al7  1  0.11332918  0.42642267  0.32599969  1
  Al  Al8  1  0.22120775  0.53500867  0.07293425  1
  Al  Al9  1  0.77748819  0.42971316  0.89687411  1
  Al  Al10  1  0.88293656  0.53698131  0.63474157  1
  Al  Al11  1  0.45515071  0.41144532  0.38657828  1
  Al  Al12  1  0.55381798  0.53360366  0.14359027  1
  Al  Al13  1  0.12246999  0.41596547  0.81626096  1
  Al  Al14  1  0.21723332  0.53407663  0.56645267  1
  Al  Al15  1  0.77900450  0.41123424  0.38565716  1
  Al  Al16  1  0.88051791  0.54198250  0.14535004  1
  Al  Al17  1  0.45519791  0.41615270  0.89097504  1
  Al  Al18  1  0.56368890  0.51716803  0.63660702  1
  Al  Al19  1  0.10199319  0.77051030  0.31561279  1
  Al  Al20  1  0.22247502  0.87393095  0.06442884  1
  Al  Al21  1  0.77764381  0.75400197  0.89012732  1
  Al  Al22  1  0.89093958  0.89577503  0.55859805  1
  Al  Al23  1  0.44350602  0.76150425  0.37770737  1
  Al  Al24  1  0.55413893  0.87916936  0.14148794  1
  Al  Al25  1  0.10508099  0.76158634  0.81525710  1
  Al  Al26  1  0.21514134  0.88167010  0.57290093  1
  Al  Al27  1  0.77156217  0.76697543  0.38615622  1
  Al  Al28  1  0.88370972  0.88158010  0.06795560  1
  Al  Al29  1  0.44425259  0.75968190  0.84802652  1
  Al  Al30  1  0.56677477  0.87970952  0.63843723  1
  B  B31  1  0.90061221  0.20836978  0.60400146  1
  B  B32  1  0.55313954  0.20310988  0.14618390  1
  B  B33  1  0.15517650  0.24208922  0.55429461  1
  B  B34  1  0.77567219  0.09404279  0.29603161  1
  B  B35  1  0.50485271  0.22885097  0.64934788  1
  N  N36  1  0.20142054  0.21186117  0.40920071  1
  N  N37  1  0.12100833  0.09179840  0.13345320  1
  N  N38  1  0.89033467  0.19731629  0.89452127  1
  N  N39  1  0.83365139  0.10108154  0.62969834  1
  N  N40  1  0.55818275  0.20101702  0.30624845  1
  N  N41  1  0.46455519  0.10665606  0.08099854  1
  N  N42  1  0.22314252  0.20105201  0.88364191  1
  N  N43  1  0.09472033  0.13041048  0.62036750  1
  N  N44  1  0.86880774  0.19386269  0.32548207  1
  N  N45  1  0.75666114  0.09667023  0.13742298  1
  N  N46  1  0.54393564  0.21186527  0.79951823  1
  N  N47  1  0.48869936  0.10015509  0.58196316  1
  N  N48  1  0.21564469  0.54443790  0.37949636  1
  N  N49  1  0.11672632  0.42261390  0.13840566  1
  N  N50  1  0.88732367  0.53589768  0.82363268  1
  N  N51  1  0.79480860  0.39862671  0.57923136  1
  N  N52  1  0.55321099  0.53516925  0.33538778  1
  N  N53  1  0.46356584  0.39709410  0.08300563  1
  N  N54  1  0.21854155  0.53802677  0.88013528  1
  N  N55  1  0.12169493  0.40110779  0.62049474  1
  N  N56  1  0.87903392  0.54016100  0.33502603  1
  N  N57  1  0.77133679  0.43723250  0.08300341  1
  N  N58  1  0.56041067  0.52860452  0.82416297  1
  N  N59  1  0.45552192  0.39729977  0.58181872  1
  N  N60  1  0.21307381  0.87582241  0.38542914  1
  N  N61  1  0.10994762  0.76317498  0.12756315  1
  N  N62  1  0.88511422  0.87889441  0.87661179  1
  N  N63  1  0.78691850  0.75894698  0.57533593  1
  N  N64  1  0.54715793  0.88236779  0.33197217  1
  N  N65  1  0.44689799  0.75991472  0.09396491  1
  N  N66  1  0.21603155  0.87546094  0.86945678  1
  N  N67  1  0.11424592  0.75531638  0.62751111  1
  N  N68  1  0.87094359  0.90536589  0.36535724  1
  N  N69  1  0.77492105  0.75831906  0.07990253  1
  N  N70  1  0.55943980  0.87316411  0.82576142  1
  N  N71  1  0.45192234  0.75857031  0.59555118  1
