# generated using pymatgen
data_Al31B5N36
_symmetry_space_group_name_H-M   'P 1'
_cell_length_a   9.30504407
_cell_length_b   9.23319909
_cell_length_c   10.08728060
_cell_angle_alpha   89.50297934
_cell_angle_beta   90.30138937
_cell_angle_gamma   59.77966465
_symmetry_Int_Tables_number   1
_chemical_formula_structural   Al31B5N36
_chemical_formula_sum   'Al31 B5 N36'
_cell_volume   748.79605209
_cell_formula_units_Z   1
loop_
 _symmetry_equiv_pos_site_id
 _symmetry_equiv_pos_as_xyz
  1  'x, y, z'
loop_
 _atom_site_type_symbol
 _atom_site_label
 _atom_site_symmetry_multiplicity
 _atom_site_fract_x
 _atom_site_fract_y
 _atom_site_fract_z
 _atom_site_occupancy
  Al  Al0  1  0.10132377  0.09401677  0.32075026  1
  Al  Al1  1  0.22390545  0.20749756  0.07077388  1
  Al  Al2  1  0.78499019  0.09856278  0.80809810  1
  Al  Al3  1  0.45023451  0.10179239  0.40167107  1
  Al  Al4  1  0.10427134  0.10240175  0.82311087  1
  Al  Al5  1  0.88487180  0.20063150  0.09953681  1
  Al  Al6  1  0.45563306  0.09376566  0.88850604  1
  Al  Al7  1  0.10935078  0.42836645  0.32707813  1
  Al  Al8  1  0.22055923  0.53558081  0.07193427  1
  Al  Al9  1  0.77649240  0.42754425  0.89658903  1
  Al  Al10  1  0.88914958  0.53471588  0.58315437  1
  Al  Al11  1  0.45380471  0.41126825  0.38795934  1
  Al  Al12  1  0.55512472  0.52649375  0.14492769  1
  Al  Al13  1  0.11427859  0.41981932  0.81530111  1
  Al  Al14  1  0.21845824  0.53409539  0.56806428  1
  Al  Al15  1  0.77613815  0.40854403  0.38379741  1
  Al  Al16  1  0.88743719  0.53879484  0.11257371  1
  Al  Al17  1  0.45373510  0.41611221  0.89037611  1
  Al  Al18  1  0.56627165  0.51409620  0.63804034  1
  Al  Al19  1  0.10191012  0.76967856  0.31620843  1
  Al  Al20  1  0.22479301  0.87276923  0.06489347  1
  Al  Al21  1  0.77675046  0.75713184  0.88846176  1
  Al  Al22  1  0.89362894  0.89640050  0.55950475  1
  Al  Al23  1  0.43427682  0.76604486  0.32528950  1
  Al  Al24  1  0.55585995  0.88449629  0.14267190  1
  Al  Al25  1  0.10681775  0.76140724  0.81607860  1
  Al  Al26  1  0.22327886  0.87688128  0.56911670  1
  Al  Al27  1  0.76786995  0.77382227  0.38483193  1
  Al  Al28  1  0.88443448  0.88315290  0.06804716  1
  Al  Al29  1  0.44077422  0.76127202  0.81626151  1
  Al  Al30  1  0.56756498  0.88181745  0.64075709  1
  B  B31  1  0.90259948  0.20650621  0.60528739  1
  B  B32  1  0.55192735  0.20356746  0.14710944  1
  B  B33  1  0.15900044  0.23850181  0.55502102  1
  B  B34  1  0.77581952  0.09365548  0.29619593  1
  B  B35  1  0.50349409  0.22935270  0.65090923  1
  N  N36  1  0.20152862  0.21167996  0.40872957  1
  N  N37  1  0.12205299  0.09147632  0.13365379  1
  N  N38  1  0.89168363  0.19536461  0.89603987  1
  N  N39  1  0.83525122  0.10018846  0.63079853  1
  N  N40  1  0.55781408  0.20110893  0.30740392  1
  N  N41  1  0.46254679  0.10900397  0.08140446  1
  N  N42  1  0.22212553  0.20291813  0.88288641  1
  N  N43  1  0.09751343  0.12768481  0.62004538  1
  N  N44  1  0.86996487  0.19199409  0.32451386  1
  N  N45  1  0.75536401  0.09714842  0.13760888  1
  N  N46  1  0.54459044  0.21134315  0.80054133  1
  N  N47  1  0.48424601  0.10259482  0.58388762  1
  N  N48  1  0.21466855  0.54412651  0.37998544  1
  N  N49  1  0.11574434  0.42315808  0.13996655  1
  N  N50  1  0.89139433  0.53398367  0.85130247  1
  N  N51  1  0.79460204  0.39474366  0.58039003  1
  N  N52  1  0.55228927  0.53268549  0.33729071  1
  N  N53  1  0.46166344  0.39663743  0.08318775  1
  N  N54  1  0.21795007  0.53746011  0.87899471  1
  N  N55  1  0.12079297  0.40101420  0.62007935  1
  N  N56  1  0.88219442  0.53846257  0.36482229  1
  N  N57  1  0.76969830  0.43434114  0.08686103  1
  N  N58  1  0.55996888  0.52701590  0.82763021  1
  N  N59  1  0.45557647  0.39666264  0.58321200  1
  N  N60  1  0.21620160  0.87393983  0.38349954  1
  N  N61  1  0.11062963  0.76279698  0.12757040  1
  N  N62  1  0.88647996  0.87935172  0.87716657  1
  N  N63  1  0.78542478  0.76613730  0.57789622  1
  N  N64  1  0.54574728  0.88603363  0.33363885  1
  N  N65  1  0.44124286  0.76229281  0.12818801  1
  N  N66  1  0.22111379  0.87273251  0.87374767  1
  N  N67  1  0.11720539  0.75570307  0.62710262  1
  N  N68  1  0.87178479  0.90631332  0.36530489  1
  N  N69  1  0.77356085  0.76329074  0.08401690  1
  N  N70  1  0.55804254  0.87510082  0.83031376  1
  N  N71  1  0.44948061  0.75984329  0.62081659  1
