# generated using pymatgen
data_Al31B5N36
_symmetry_space_group_name_H-M   'P 1'
_cell_length_a   9.32497322
_cell_length_b   9.18248180
_cell_length_c   9.95464357
_cell_angle_alpha   90.09023133
_cell_angle_beta   89.88100816
_cell_angle_gamma   60.25786785
_symmetry_Int_Tables_number   1
_chemical_formula_structural   Al31B5N36
_chemical_formula_sum   'Al31 B5 N36'
_cell_volume   740.08867940
_cell_formula_units_Z   1
loop_
 _symmetry_equiv_pos_site_id
 _symmetry_equiv_pos_as_xyz
  1  'x, y, z'
loop_
 _atom_site_type_symbol
 _atom_site_label
 _atom_site_symmetry_multiplicity
 _atom_site_fract_x
 _atom_site_fract_y
 _atom_site_fract_z
 _atom_site_occupancy
  Al  Al0  1  0.09660439  0.09955262  0.33543638  1
  Al  Al1  1  0.22345025  0.20798972  0.07783269  1
  Al  Al2  1  0.79063279  0.09478391  0.80441115  1
  Al  Al3  1  0.45125042  0.10184568  0.40541252  1
  Al  Al4  1  0.11871140  0.09697267  0.81423400  1
  Al  Al5  1  0.88669283  0.20543969  0.07464281  1
  Al  Al6  1  0.45984196  0.09171741  0.89403491  1
  Al  Al7  1  0.10435730  0.42926465  0.32437344  1
  Al  Al8  1  0.22348922  0.53413390  0.07410046  1
  Al  Al9  1  0.78275260  0.41673994  0.81362123  1
  Al  Al10  1  0.88652335  0.52926821  0.56788676  1
  Al  Al11  1  0.44186467  0.42765114  0.32097825  1
  Al  Al12  1  0.55939989  0.53505885  0.07272456  1
  Al  Al13  1  0.11743664  0.41548475  0.81722028  1
  Al  Al14  1  0.22159251  0.52834907  0.56698526  1
  Al  Al15  1  0.76864491  0.42884299  0.32213682  1
  Al  Al16  1  0.88882063  0.53750147  0.06889203  1
  Al  Al17  1  0.44404744  0.42798892  0.84158471  1
  Al  Al18  1  0.55217856  0.52692777  0.56886469  1
  Al  Al19  1  0.10146685  0.77056227  0.31821943  1
  Al  Al20  1  0.21934707  0.87629879  0.07005211  1
  Al  Al21  1  0.78899395  0.75568493  0.82041489  1
  Al  Al22  1  0.89042800  0.88184262  0.56158056  1
  Al  Al23  1  0.43340151  0.76536116  0.32391715  1
  Al  Al24  1  0.55211924  0.88556994  0.13994405  1
  Al  Al25  1  0.11025791  0.76124105  0.81827881  1
  Al  Al26  1  0.22568792  0.87634694  0.57250522  1
  Al  Al27  1  0.77658869  0.76714012  0.32361739  1
  Al  Al28  1  0.88232736  0.88013854  0.07198767  1
  Al  Al29  1  0.44378286  0.75736668  0.82142252  1
  Al  Al30  1  0.55752918  0.88288511  0.63769581  1
  B  B31  1  0.83258822  0.22184595  0.54643518  1
  B  B32  1  0.55901144  0.20138368  0.15538573  1
  B  B33  1  0.16983647  0.22769034  0.56039909  1
  B  B34  1  0.77130122  0.09494855  0.31243032  1
  B  B35  1  0.50597128  0.22681256  0.65798349  1
  N  N36  1  0.20615893  0.21395636  0.40605871  1
  N  N37  1  0.10899822  0.09840267  0.14215947  1
  N  N38  1  0.89618312  0.20093239  0.88446774  1
  N  N39  1  0.82600221  0.09505784  0.62194829  1
  N  N40  1  0.56911950  0.19307399  0.31628931  1
  N  N41  1  0.46616280  0.11068202  0.08778543  1
  N  N42  1  0.22742273  0.20175653  0.88956074  1
  N  N43  1  0.15342204  0.09868566  0.62799206  1
  N  N44  1  0.85893383  0.20292359  0.38898789  1
  N  N45  1  0.76722144  0.10298107  0.14724259  1
  N  N46  1  0.55668474  0.20105798  0.80874746  1
  N  N47  1  0.48933983  0.10136139  0.58658165  1
  N  N48  1  0.21635791  0.54194808  0.37601319  1
  N  N49  1  0.10840405  0.42811183  0.13575463  1
  N  N50  1  0.89358501  0.53093335  0.87501032  1
  N  N51  1  0.78190666  0.39822839  0.61494905  1
  N  N52  1  0.54789455  0.54174129  0.37874788  1
  N  N53  1  0.45547345  0.40648330  0.12049376  1
  N  N54  1  0.21955026  0.53677329  0.88113168  1
  N  N55  1  0.11460191  0.40228516  0.62285786  1
  N  N56  1  0.88244833  0.54110582  0.37978385  1
  N  N57  1  0.77746066  0.42844764  0.13304114  1
  N  N58  1  0.56288177  0.53435601  0.88078642  1
  N  N59  1  0.44341929  0.40787212  0.62122543  1
  N  N60  1  0.21512676  0.87508787  0.38345480  1
  N  N61  1  0.10862069  0.76312449  0.12810253  1
  N  N62  1  0.88821992  0.87770844  0.88008596  1
  N  N63  1  0.79196915  0.75363239  0.62591479  1
  N  N64  1  0.54588607  0.88389378  0.33890193  1
  N  N65  1  0.43910533  0.76199421  0.12817167  1
  N  N66  1  0.22237643  0.87262159  0.87803385  1
  N  N67  1  0.11525416  0.75481296  0.62684510  1
  N  N68  1  0.87143691  0.90193972  0.36934803  1
  N  N69  1  0.78165133  0.75908480  0.12878876  1
  N  N70  1  0.55928407  0.87267456  0.83690389  1
  N  N71  1  0.44977578  0.75127845  0.62775682  1
