# generated using pymatgen
data_Al31B5N36
_symmetry_space_group_name_H-M   'P 1'
_cell_length_a   9.30496913
_cell_length_b   9.16440262
_cell_length_c   9.93455100
_cell_angle_alpha   90.10160659
_cell_angle_beta   89.65044736
_cell_angle_gamma   60.41491851
_symmetry_Int_Tables_number   1
_chemical_formula_structural   Al31B5N36
_chemical_formula_sum   'Al31 B5 N36'
_cell_volume   736.68861106
_cell_formula_units_Z   1
loop_
 _symmetry_equiv_pos_site_id
 _symmetry_equiv_pos_as_xyz
  1  'x, y, z'
loop_
 _atom_site_type_symbol
 _atom_site_label
 _atom_site_symmetry_multiplicity
 _atom_site_fract_x
 _atom_site_fract_y
 _atom_site_fract_z
 _atom_site_occupancy
  Al  Al0  1  0.09896101  0.09890171  0.32186605  1
  Al  Al1  1  0.23542988  0.20350682  0.06472029  1
  Al  Al2  1  0.79068349  0.09410488  0.79566141  1
  Al  Al3  1  0.44605383  0.10849357  0.39488542  1
  Al  Al4  1  0.11522961  0.09724797  0.80329017  1
  Al  Al5  1  0.88693919  0.20427446  0.06469162  1
  Al  Al6  1  0.44562066  0.09024629  0.81926813  1
  Al  Al7  1  0.10522792  0.43024930  0.30986292  1
  Al  Al8  1  0.22782557  0.53137104  0.05987255  1
  Al  Al9  1  0.78145143  0.41712732  0.80292033  1
  Al  Al10  1  0.88807393  0.52840519  0.55467664  1
  Al  Al11  1  0.44327921  0.43002857  0.30682679  1
  Al  Al12  1  0.55789746  0.53209471  0.06024390  1
  Al  Al13  1  0.11334453  0.41941756  0.80613428  1
  Al  Al14  1  0.22075332  0.52925521  0.55518591  1
  Al  Al15  1  0.76954333  0.42895556  0.30980555  1
  Al  Al16  1  0.88982712  0.53623024  0.05787715  1
  Al  Al17  1  0.44057485  0.43428387  0.81205442  1
  Al  Al18  1  0.55350138  0.52844537  0.55562352  1
  Al  Al19  1  0.10441786  0.76874428  0.30674985  1
  Al  Al20  1  0.22171864  0.87613687  0.06002868  1
  Al  Al21  1  0.78345509  0.75862206  0.80826709  1
  Al  Al22  1  0.89164548  0.88145873  0.55017066  1
  Al  Al23  1  0.43970562  0.76953313  0.30855337  1
  Al  Al24  1  0.55803472  0.88089930  0.06010733  1
  Al  Al25  1  0.10966530  0.76243165  0.80806787  1
  Al  Al26  1  0.22727458  0.87638718  0.56005595  1
  Al  Al27  1  0.76920180  0.77258533  0.30736646  1
  Al  Al28  1  0.88382021  0.87978303  0.06269671  1
  Al  Al29  1  0.44621032  0.75822601  0.81049695  1
  Al  Al30  1  0.56714513  0.86478863  0.56733417  1
  B  B31  1  0.83237713  0.22228334  0.53485727  1
  B  B32  1  0.55660304  0.19545781  0.15170262  1
  B  B33  1  0.16700639  0.22911713  0.54914176  1
  B  B34  1  0.77356294  0.09471904  0.30431428  1
  B  B35  1  0.51673050  0.22507019  0.64755765  1
  N  N36  1  0.20528159  0.21588298  0.39547588  1
  N  N37  1  0.11026181  0.09930110  0.12870145  1
  N  N38  1  0.89530244  0.20126770  0.87360482  1
  N  N39  1  0.81693627  0.09838617  0.61001729  1
  N  N40  1  0.57318897  0.19439183  0.31614858  1
  N  N41  1  0.46228925  0.10869895  0.10028187  1
  N  N42  1  0.22693762  0.20264602  0.87309805  1
  N  N43  1  0.14946505  0.09969005  0.61617422  1
  N  N44  1  0.86199900  0.20232854  0.37851451  1
  N  N45  1  0.76747361  0.10155541  0.13985871  1
  N  N46  1  0.55984918  0.20387295  0.79900526  1
  N  N47  1  0.47958740  0.10087440  0.59258422  1
  N  N48  1  0.21874770  0.54058505  0.36577016  1
  N  N49  1  0.10980058  0.42719139  0.12067897  1
  N  N50  1  0.89081986  0.53303367  0.86341929  1
  N  N51  1  0.78203646  0.39824799  0.60336167  1
  N  N52  1  0.54850587  0.54446891  0.36718325  1
  N  N53  1  0.45381926  0.40772028  0.11584376  1
  N  N54  1  0.22049060  0.53709223  0.86651505  1
  N  N55  1  0.11365005  0.40330189  0.61168291  1
  N  N56  1  0.88276802  0.54332793  0.36605228  1
  N  N57  1  0.77644572  0.42802483  0.12055036  1
  N  N58  1  0.56055247  0.53417559  0.86765488  1
  N  N59  1  0.44324308  0.41057429  0.61357464  1
  N  N60  1  0.21936147  0.87422406  0.37032154  1
  N  N61  1  0.11110638  0.76106483  0.11608962  1
  N  N62  1  0.88770428  0.87706757  0.86922272  1
  N  N63  1  0.79058117  0.75349622  0.61698939  1
  N  N64  1  0.55251074  0.87460798  0.37632459  1
  N  N65  1  0.44459929  0.76370392  0.11631522  1
  N  N66  1  0.22331624  0.87307705  0.86683137  1
  N  N67  1  0.11531891  0.75634841  0.61557559  1
  N  N68  1  0.87344741  0.89984963  0.35821023  1
  N  N69  1  0.77792793  0.76063201  0.11672924  1
  N  N70  1  0.56102269  0.86702840  0.86464189  1
  N  N71  1  0.45168348  0.75172247  0.62047726  1
