# generated using pymatgen
data_Al31B5N36
_symmetry_space_group_name_H-M   'P 1'
_cell_length_a   9.39209189
_cell_length_b   9.13798184
_cell_length_c   10.10457740
_cell_angle_alpha   89.81810196
_cell_angle_beta   90.33526771
_cell_angle_gamma   60.78818442
_symmetry_Int_Tables_number   1
_chemical_formula_structural   Al31B5N36
_chemical_formula_sum   'Al31 B5 N36'
_cell_volume   756.89979606
_cell_formula_units_Z   1
loop_
 _symmetry_equiv_pos_site_id
 _symmetry_equiv_pos_as_xyz
  1  'x, y, z'
loop_
 _atom_site_type_symbol
 _atom_site_label
 _atom_site_symmetry_multiplicity
 _atom_site_fract_x
 _atom_site_fract_y
 _atom_site_fract_z
 _atom_site_occupancy
  Al  Al0  1  0.12063752  0.09078311  0.32652528  1
  Al  Al1  1  0.21250018  0.21218811  0.06840375  1
  Al  Al2  1  0.77457751  0.09650177  0.86537527  1
  Al  Al3  1  0.44787449  0.10135952  0.39861384  1
  Al  Al4  1  0.11509263  0.09562970  0.79978487  1
  Al  Al5  1  0.88096789  0.19938987  0.14113012  1
  Al  Al6  1  0.44581495  0.09689045  0.88377757  1
  Al  Al7  1  0.11338856  0.42834008  0.32541932  1
  Al  Al8  1  0.21237355  0.54017845  0.06904541  1
  Al  Al9  1  0.77759806  0.42168076  0.88613939  1
  Al  Al10  1  0.88146000  0.53056065  0.63606714  1
  Al  Al11  1  0.44536815  0.42033755  0.38494897  1
  Al  Al12  1  0.55496577  0.52947741  0.13827688  1
  Al  Al13  1  0.11485251  0.41855744  0.81489086  1
  Al  Al14  1  0.21708188  0.53091586  0.56908962  1
  Al  Al15  1  0.77811677  0.41660873  0.39110379  1
  Al  Al16  1  0.87816230  0.54334831  0.14151810  1
  Al  Al17  1  0.44708951  0.41889017  0.88712287  1
  Al  Al18  1  0.55302767  0.52815007  0.64103956  1
  Al  Al19  1  0.10980703  0.76749970  0.32186056  1
  Al  Al20  1  0.21474800  0.88023393  0.07002748  1
  Al  Al21  1  0.77565616  0.75860319  0.88064928  1
  Al  Al22  1  0.89437086  0.87519186  0.62048985  1
  Al  Al23  1  0.45849489  0.75386882  0.38578776  1
  Al  Al24  1  0.55447552  0.88454513  0.14005184  1
  Al  Al25  1  0.11550250  0.75870035  0.81527139  1
  Al  Al26  1  0.22998031  0.87393400  0.56676811  1
  Al  Al27  1  0.77739377  0.77384175  0.39388722  1
  Al  Al28  1  0.88738883  0.88069585  0.09562459  1
  Al  Al29  1  0.44614653  0.75993230  0.88885269  1
  Al  Al30  1  0.56174917  0.87652189  0.63927104  1
  B  B31  1  0.84089764  0.23130541  0.63984058  1
  B  B32  1  0.48054769  0.24181470  0.15027206  1
  B  B33  1  0.16926355  0.22801174  0.55684214  1
  B  B34  1  0.85815077  0.06884486  0.41971130  1
  B  B35  1  0.50521501  0.22689991  0.64835346  1
  N  N36  1  0.20651127  0.21565388  0.40844163  1
  N  N37  1  0.11737117  0.09585456  0.13973292  1
  N  N38  1  0.87561083  0.21293832  0.78902521  1
  N  N39  1  0.84032827  0.09520082  0.56409771  1
  N  N40  1  0.49656129  0.23208817  0.29090384  1
  N  N41  1  0.44935762  0.11325935  0.07586199  1
  N  N42  1  0.21329937  0.20551158  0.88352705  1
  N  N43  1  0.16310980  0.09200526  0.62222934  1
  N  N44  1  0.88456194  0.18933026  0.33426426  1
  N  N45  1  0.79533707  0.09489859  0.04591518  1
  N  N46  1  0.54460740  0.21068712  0.79952923  1
  N  N47  1  0.49918330  0.09411189  0.57886698  1
  N  N48  1  0.21220762  0.54866771  0.38380968  1
  N  N49  1  0.10973012  0.42739238  0.13602386  1
  N  N50  1  0.88424540  0.53563943  0.82572619  1
  N  N51  1  0.77860533  0.40485827  0.58092674  1
  N  N52  1  0.55884403  0.53032587  0.32747460  1
  N  N53  1  0.44755841  0.40612084  0.07859049  1
  N  N54  1  0.21468455  0.53837619  0.87871554  1
  N  N55  1  0.11670564  0.40041119  0.62183071  1
  N  N56  1  0.87853314  0.54498413  0.33312075  1
  N  N57  1  0.77691209  0.42343377  0.07691013  1
  N  N58  1  0.55302376  0.53588963  0.82986385  1
  N  N59  1  0.45349928  0.39820697  0.58261148  1
  N  N60  1  0.22834092  0.86957411  0.37820200  1
  N  N61  1  0.11155107  0.76022711  0.13102329  1
  N  N62  1  0.88433087  0.87068277  0.81893610  1
  N  N63  1  0.78304261  0.75328721  0.58026304  1
  N  N64  1  0.55657809  0.87952999  0.32866617  1
  N  N65  1  0.44877963  0.75950034  0.08058205  1
  N  N66  1  0.21291159  0.88005056  0.87901588  1
  N  N67  1  0.12921448  0.75102096  0.62971168  1
  N  N68  1  0.88816059  0.90073294  0.36991338  1
  N  N69  1  0.77453738  0.76379245  0.07323752  1
  N  N70  1  0.55292739  0.87381421  0.82775268  1
  N  N71  1  0.46310048  0.74880162  0.57689084  1
