# generated using pymatgen
data_Al31B5N36
_symmetry_space_group_name_H-M   'P 1'
_cell_length_a   9.31255105
_cell_length_b   9.17887263
_cell_length_c   10.02381474
_cell_angle_alpha   89.98816266
_cell_angle_beta   90.61640462
_cell_angle_gamma   60.17468981
_symmetry_Int_Tables_number   1
_chemical_formula_structural   Al31B5N36
_chemical_formula_sum   'Al31 B5 N36'
_cell_volume   743.27482668
_cell_formula_units_Z   1
loop_
 _symmetry_equiv_pos_site_id
 _symmetry_equiv_pos_as_xyz
  1  'x, y, z'
loop_
 _atom_site_type_symbol
 _atom_site_label
 _atom_site_symmetry_multiplicity
 _atom_site_fract_x
 _atom_site_fract_y
 _atom_site_fract_z
 _atom_site_occupancy
  Al  Al0  1  0.11242613  0.09198096  0.32805724  1
  Al  Al1  1  0.22057351  0.20926382  0.07367759  1
  Al  Al2  1  0.76463599  0.10352167  0.86982186  1
  Al  Al3  1  0.46052310  0.09845697  0.39678694  1
  Al  Al4  1  0.11465556  0.09873309  0.79976013  1
  Al  Al5  1  0.87357982  0.20456450  0.14057774  1
  Al  Al6  1  0.44983413  0.09493176  0.88780338  1
  Al  Al7  1  0.11454678  0.42587444  0.32655290  1
  Al  Al8  1  0.21949706  0.53620326  0.07444518  1
  Al  Al9  1  0.77907673  0.42337199  0.88323653  1
  Al  Al10  1  0.88405625  0.53063706  0.63449543  1
  Al  Al11  1  0.45765652  0.41162209  0.38400553  1
  Al  Al12  1  0.55541498  0.53330988  0.13815053  1
  Al  Al13  1  0.12138057  0.41683046  0.81571585  1
  Al  Al14  1  0.21822174  0.53232609  0.56762391  1
  Al  Al15  1  0.77720939  0.41482872  0.39242441  1
  Al  Al16  1  0.88118591  0.53841169  0.14145137  1
  Al  Al17  1  0.44935020  0.42098545  0.88998613  1
  Al  Al18  1  0.55176164  0.53082452  0.64072347  1
  Al  Al19  1  0.10345411  0.76994170  0.31914169  1
  Al  Al20  1  0.21336681  0.88060389  0.06862732  1
  Al  Al21  1  0.77633563  0.75369078  0.88595995  1
  Al  Al22  1  0.89239225  0.88418352  0.57090614  1
  Al  Al23  1  0.45220477  0.75620053  0.38731180  1
  Al  Al24  1  0.55470114  0.88061777  0.14113400  1
  Al  Al25  1  0.10915244  0.76237142  0.81645248  1
  Al  Al26  1  0.22469819  0.87837562  0.56887882  1
  Al  Al27  1  0.77305815  0.76540175  0.38821862  1
  Al  Al28  1  0.88475515  0.87779534  0.06986987  1
  Al  Al29  1  0.44550182  0.76170907  0.88657656  1
  Al  Al30  1  0.56118820  0.87871512  0.63920467  1
  B  B31  1  0.82897829  0.23308897  0.63829520  1
  B  B32  1  0.56159613  0.20340930  0.13885763  1
  B  B33  1  0.17695123  0.22609071  0.55508479  1
  B  B34  1  0.78869183  0.10064818  0.39177727  1
  B  B35  1  0.50965201  0.22648892  0.64833887  1
  N  N36  1  0.21418187  0.21080353  0.40335189  1
  N  N37  1  0.11230063  0.09747742  0.13651390  1
  N  N38  1  0.87299658  0.21025221  0.79240729  1
  N  N39  1  0.80361784  0.11517756  0.56051628  1
  N  N40  1  0.57877915  0.19436207  0.30996342  1
  N  N41  1  0.46212726  0.10855984  0.08352718  1
  N  N42  1  0.21669218  0.20427539  0.88650259  1
  N  N43  1  0.15903421  0.09688910  0.62010729  1
  N  N44  1  0.87441510  0.19275623  0.32912402  1
  N  N45  1  0.74618676  0.11494912  0.06872113  1
  N  N46  1  0.54291666  0.21221641  0.80175322  1
  N  N47  1  0.49438217  0.09703471  0.58086126  1
  N  N48  1  0.21864319  0.54361636  0.37891990  1
  N  N49  1  0.11393154  0.42540965  0.13742790  1
  N  N50  1  0.88810768  0.53469632  0.82472686  1
  N  N51  1  0.77854317  0.40651927  0.58274431  1
  N  N52  1  0.55690170  0.53472605  0.32802574  1
  N  N53  1  0.45910326  0.40078497  0.08459964  1
  N  N54  1  0.21698635  0.53998563  0.88058315  1
  N  N55  1  0.12190151  0.39937027  0.61981076  1
  N  N56  1  0.87999814  0.53772616  0.33462568  1
  N  N57  1  0.77798402  0.42332411  0.07315050  1
  N  N58  1  0.55275840  0.53787001  0.82929286  1
  N  N59  1  0.45431908  0.39953793  0.58354099  1
  N  N60  1  0.22072101  0.87115326  0.37965875  1
  N  N61  1  0.10736347  0.76433110  0.12956309  1
  N  N62  1  0.88996889  0.87191081  0.87122533  1
  N  N63  1  0.78454694  0.75413989  0.57955451  1
  N  N64  1  0.55122026  0.87833828  0.32950146  1
  N  N65  1  0.44716891  0.76073849  0.07954082  1
  N  N66  1  0.21128293  0.88206348  0.87538464  1
  N  N67  1  0.11718008  0.75816840  0.62856097  1
  N  N68  1  0.87801107  0.89913143  0.37365969  1
  N  N69  1  0.77351283  0.75724622  0.07930383  1
  N  N70  1  0.55477727  0.87356963  0.82804037  1
  N  N71  1  0.45977601  0.75197123  0.57929053  1
