# generated using pymatgen
data_Al31B5N36
_symmetry_space_group_name_H-M   'P 1'
_cell_length_a   9.39095251
_cell_length_b   9.13542523
_cell_length_c   10.10555222
_cell_angle_alpha   89.84087292
_cell_angle_beta   90.34554754
_cell_angle_gamma   60.78872201
_symmetry_Int_Tables_number   1
_chemical_formula_structural   Al31B5N36
_chemical_formula_sum   'Al31 B5 N36'
_cell_volume   756.67419973
_cell_formula_units_Z   1
loop_
 _symmetry_equiv_pos_site_id
 _symmetry_equiv_pos_as_xyz
  1  'x, y, z'
loop_
 _atom_site_type_symbol
 _atom_site_label
 _atom_site_symmetry_multiplicity
 _atom_site_fract_x
 _atom_site_fract_y
 _atom_site_fract_z
 _atom_site_occupancy
  Al  Al0  1  0.12068197  0.09083890  0.32646042  1
  Al  Al1  1  0.21256186  0.21217308  0.06835158  1
  Al  Al2  1  0.77504096  0.09576854  0.86609851  1
  Al  Al3  1  0.44783284  0.10135806  0.39866290  1
  Al  Al4  1  0.11500170  0.09565771  0.79974287  1
  Al  Al5  1  0.88120630  0.19970800  0.14077604  1
  Al  Al6  1  0.44582019  0.09689048  0.88375161  1
  Al  Al7  1  0.11339087  0.42828726  0.32535900  1
  Al  Al8  1  0.21214638  0.54041446  0.06895879  1
  Al  Al9  1  0.77753098  0.42179420  0.88574741  1
  Al  Al10  1  0.88141790  0.53068181  0.63594061  1
  Al  Al11  1  0.44547849  0.42021207  0.38504002  1
  Al  Al12  1  0.55488653  0.52947157  0.13819013  1
  Al  Al13  1  0.11473497  0.41866902  0.81487686  1
  Al  Al14  1  0.21706123  0.53089723  0.56921946  1
  Al  Al15  1  0.77809042  0.41668231  0.39101767  1
  Al  Al16  1  0.87814954  0.54336569  0.14139826  1
  Al  Al17  1  0.44703377  0.41893291  0.88710293  1
  Al  Al18  1  0.55311239  0.52799087  0.64106101  1
  Al  Al19  1  0.11101155  0.76683372  0.32188518  1
  Al  Al20  1  0.21448399  0.88014499  0.06989617  1
  Al  Al21  1  0.77623823  0.75928822  0.88150288  1
  Al  Al22  1  0.89377749  0.87541353  0.62271541  1
  Al  Al23  1  0.45855646  0.75386260  0.38590543  1
  Al  Al24  1  0.55416857  0.88447275  0.14001651  1
  Al  Al25  1  0.11523359  0.75892476  0.81543900  1
  Al  Al26  1  0.22996336  0.87392874  0.56689947  1
  Al  Al27  1  0.77736500  0.77380270  0.39341810  1
  Al  Al28  1  0.88561404  0.88242772  0.10421674  1
  Al  Al29  1  0.44624649  0.75997120  0.88881549  1
  Al  Al30  1  0.56201309  0.87641565  0.63933346  1
  B  B31  1  0.84118059  0.23041460  0.63920918  1
  B  B32  1  0.48045149  0.24184618  0.15023417  1
  B  B33  1  0.16922423  0.22804824  0.55685806  1
  B  B34  1  0.85806264  0.06865754  0.41822992  1
  B  B35  1  0.50522398  0.22685305  0.64851098  1
  N  N36  1  0.20652053  0.21567083  0.40848971  1
  N  N37  1  0.11757535  0.09580262  0.13973363  1
  N  N38  1  0.87543756  0.21254475  0.78862955  1
  N  N39  1  0.84094767  0.09389846  0.56278689  1
  N  N40  1  0.49656965  0.23201896  0.29088319  1
  N  N41  1  0.44934581  0.11321477  0.07582911  1
  N  N42  1  0.21320475  0.20559026  0.88350243  1
  N  N43  1  0.16300815  0.09206954  0.62223500  1
  N  N44  1  0.88455634  0.18968421  0.33386378  1
  N  N45  1  0.79631074  0.09379724  0.04635678  1
  N  N46  1  0.54466813  0.21064927  0.79965261  1
  N  N47  1  0.49920266  0.09405482  0.57893177  1
  N  N48  1  0.21231664  0.54843052  0.38404087  1
  N  N49  1  0.10973364  0.42738753  0.13600989  1
  N  N50  1  0.88404229  0.53614328  0.82567869  1
  N  N51  1  0.77875257  0.40440560  0.58078301  1
  N  N52  1  0.55880037  0.53033435  0.32742269  1
  N  N53  1  0.44753547  0.40605184  0.07853242  1
  N  N54  1  0.21455607  0.53853303  0.87868092  1
  N  N55  1  0.11664576  0.40043407  0.62186470  1
  N  N56  1  0.87854221  0.54487359  0.33298205  1
  N  N57  1  0.77684797  0.42355213  0.07655019  1
  N  N58  1  0.55296667  0.53590940  0.82977370  1
  N  N59  1  0.45355909  0.39810875  0.58266120  1
  N  N60  1  0.22838659  0.86972411  0.37846534  1
  N  N61  1  0.11209468  0.75987956  0.13143942  1
  N  N62  1  0.88384051  0.87112000  0.81719916  1
  N  N63  1  0.78339333  0.75349492  0.57948019  1
  N  N64  1  0.55641711  0.87956008  0.32863206  1
  N  N65  1  0.44869820  0.75945503  0.08047890  1
  N  N66  1  0.21291794  0.88009486  0.87894693  1
  N  N67  1  0.12899957  0.75113741  0.62954021  1
  N  N68  1  0.88692425  0.90172780  0.36437223  1
  N  N69  1  0.77469955  0.76425133  0.07392815  1
  N  N70  1  0.55332006  0.87368281  0.82786654  1
  N  N71  1  0.46326992  0.74870574  0.57696168  1
