# generated using pymatgen
data_Al31B5N36
_symmetry_space_group_name_H-M   'P 1'
_cell_length_a   9.30031445
_cell_length_b   9.20395011
_cell_length_c   9.99854558
_cell_angle_alpha   89.96871605
_cell_angle_beta   90.36851515
_cell_angle_gamma   60.04842463
_symmetry_Int_Tables_number   1
_chemical_formula_structural   Al31B5N36
_chemical_formula_sum   'Al31 B5 N36'
_cell_volume   741.54582725
_cell_formula_units_Z   1
loop_
 _symmetry_equiv_pos_site_id
 _symmetry_equiv_pos_as_xyz
  1  'x, y, z'
loop_
 _atom_site_type_symbol
 _atom_site_label
 _atom_site_symmetry_multiplicity
 _atom_site_fract_x
 _atom_site_fract_y
 _atom_site_fract_z
 _atom_site_occupancy
  Al  Al0  1  0.09824677  0.09718734  0.32845800  1
  Al  Al1  1  0.22332866  0.20695488  0.07318252  1
  Al  Al2  1  0.78599242  0.09687961  0.80424047  1
  Al  Al3  1  0.45071280  0.10084565  0.40146450  1
  Al  Al4  1  0.10753284  0.10122372  0.81187142  1
  Al  Al5  1  0.88494163  0.20607531  0.07587538  1
  Al  Al6  1  0.45778093  0.09307732  0.88919134  1
  Al  Al7  1  0.10665118  0.42952074  0.32322872  1
  Al  Al8  1  0.22169187  0.53412705  0.07338874  1
  Al  Al9  1  0.78777976  0.41785757  0.81815295  1
  Al  Al10  1  0.88468668  0.53424653  0.56796082  1
  Al  Al11  1  0.45487719  0.41228061  0.38852189  1
  Al  Al12  1  0.55244633  0.53048731  0.13926758  1
  Al  Al13  1  0.11836782  0.41691448  0.81685386  1
  Al  Al14  1  0.21596193  0.53153461  0.56832098  1
  Al  Al15  1  0.77943805  0.42097758  0.32728582  1
  Al  Al16  1  0.88774936  0.53817525  0.07008334  1
  Al  Al17  1  0.45605713  0.41647348  0.89002314  1
  Al  Al18  1  0.55485123  0.52329885  0.63101434  1
  Al  Al19  1  0.10379664  0.76746862  0.31719521  1
  Al  Al20  1  0.21909866  0.87581977  0.06648228  1
  Al  Al21  1  0.78872711  0.75690197  0.82089383  1
  Al  Al22  1  0.88901624  0.88599145  0.56182710  1
  Al  Al23  1  0.43269928  0.76814600  0.32698595  1
  Al  Al24  1  0.55161146  0.88511630  0.13754977  1
  Al  Al25  1  0.10921907  0.76094531  0.81740761  1
  Al  Al26  1  0.21769445  0.88047761  0.56852232  1
  Al  Al27  1  0.77756706  0.76771606  0.32254308  1
  Al  Al28  1  0.88188665  0.88025011  0.07211306  1
  Al  Al29  1  0.43871024  0.76407065  0.82002947  1
  Al  Al30  1  0.55791994  0.88381669  0.63564466  1
  B  B31  1  0.87295049  0.20854861  0.56131422  1
  B  B32  1  0.55777866  0.20421219  0.15125431  1
  B  B33  1  0.15965473  0.23456621  0.55566406  1
  B  B34  1  0.77525816  0.09459240  0.31228312  1
  B  B35  1  0.50540279  0.22810036  0.65066566  1
  N  N36  1  0.20341233  0.21400243  0.40570475  1
  N  N37  1  0.11161792  0.09640447  0.13763819  1
  N  N38  1  0.89013251  0.20302652  0.88768533  1
  N  N39  1  0.83069967  0.09411976  0.62641620  1
  N  N40  1  0.56453400  0.19862810  0.31151658  1
  N  N41  1  0.46632558  0.10930610  0.08334042  1
  N  N42  1  0.22396843  0.20033683  0.88411185  1
  N  N43  1  0.11122366  0.11821237  0.61709050  1
  N  N44  1  0.86986808  0.19604899  0.38768238  1
  N  N45  1  0.76794469  0.10192773  0.14802614  1
  N  N46  1  0.54696853  0.21077005  0.80134001  1
  N  N47  1  0.48527242  0.10145837  0.58357108  1
  N  N48  1  0.21617820  0.54192031  0.37808543  1
  N  N49  1  0.11096557  0.42558075  0.13543390  1
  N  N50  1  0.89485538  0.53312917  0.87788281  1
  N  N51  1  0.79202216  0.39811967  0.61804693  1
  N  N52  1  0.54897173  0.53708493  0.33884906  1
  N  N53  1  0.46454232  0.39460337  0.08413867  1
  N  N54  1  0.22041426  0.53701638  0.87914015  1
  N  N55  1  0.11548127  0.40177338  0.62257438  1
  N  N56  1  0.88424235  0.54253202  0.38080945  1
  N  N57  1  0.78245225  0.42595452  0.13402551  1
  N  N58  1  0.55697453  0.53209125  0.82899658  1
  N  N59  1  0.45287748  0.39653964  0.58316387  1
  N  N60  1  0.21463285  0.87473357  0.38137998  1
  N  N61  1  0.11042415  0.76149609  0.12753653  1
  N  N62  1  0.88600900  0.87947168  0.88141230  1
  N  N63  1  0.79259243  0.75623872  0.62694785  1
  N  N64  1  0.54590115  0.88488664  0.33609610  1
  N  N65  1  0.43818640  0.76454946  0.12365216  1
  N  N66  1  0.21787888  0.87649182  0.87453920  1
  N  N67  1  0.11573994  0.75421260  0.62710849  1
  N  N68  1  0.87219467  0.90200313  0.36989311  1
  N  N69  1  0.78243394  0.75901169  0.12951006  1
  N  N70  1  0.55828161  0.87430256  0.83392562  1
  N  N71  1  0.44280365  0.76286527  0.61992022  1
