# generated using pymatgen
data_Al31B5N36
_symmetry_space_group_name_H-M   'P 1'
_cell_length_a   9.28792511
_cell_length_b   9.15974138
_cell_length_c   10.17357302
_cell_angle_alpha   89.37468577
_cell_angle_beta   90.30106341
_cell_angle_gamma   60.01193751
_symmetry_Int_Tables_number   1
_chemical_formula_structural   Al31B5N36
_chemical_formula_sum   'Al31 B5 N36'
_cell_volume   749.54759292
_cell_formula_units_Z   1
loop_
 _symmetry_equiv_pos_site_id
 _symmetry_equiv_pos_as_xyz
  1  'x, y, z'
loop_
 _atom_site_type_symbol
 _atom_site_label
 _atom_site_symmetry_multiplicity
 _atom_site_fract_x
 _atom_site_fract_y
 _atom_site_fract_z
 _atom_site_occupancy
  Al  Al0  1  0.10910272  0.09094300  0.32617405  1
  Al  Al1  1  0.22115968  0.20968611  0.07109132  1
  Al  Al2  1  0.77877821  0.09000707  0.79924969  1
  Al  Al3  1  0.45623976  0.09666436  0.39715104  1
  Al  Al4  1  0.12026806  0.09900214  0.80176936  1
  Al  Al5  1  0.87753227  0.20922980  0.13850556  1
  Al  Al6  1  0.45368794  0.09453491  0.88780937  1
  Al  Al7  1  0.11316165  0.42513783  0.32454120  1
  Al  Al8  1  0.21915067  0.53656790  0.07026004  1
  Al  Al9  1  0.77928235  0.43058967  0.88702958  1
  Al  Al10  1  0.88424666  0.53444011  0.63391430  1
  Al  Al11  1  0.45619949  0.41151023  0.38463896  1
  Al  Al12  1  0.55432150  0.53303334  0.13832782  1
  Al  Al13  1  0.12257865  0.41784699  0.81348734  1
  Al  Al14  1  0.21639607  0.53346209  0.56464920  1
  Al  Al15  1  0.77715770  0.40907048  0.39407578  1
  Al  Al16  1  0.88043673  0.54004801  0.14179337  1
  Al  Al17  1  0.45360073  0.41785962  0.88922716  1
  Al  Al18  1  0.55425588  0.52870190  0.64062415  1
  Al  Al19  1  0.10318857  0.76889552  0.31381251  1
  Al  Al20  1  0.21279097  0.88047142  0.06469827  1
  Al  Al21  1  0.77628887  0.75674015  0.88656286  1
  Al  Al22  1  0.88933582  0.89469876  0.55515954  1
  Al  Al23  1  0.45107274  0.75487673  0.38713276  1
  Al  Al24  1  0.55425359  0.87974121  0.13945481  1
  Al  Al25  1  0.10824597  0.76319367  0.81272929  1
  Al  Al26  1  0.22397421  0.87811847  0.56825827  1
  Al  Al27  1  0.77088825  0.76308787  0.38483765  1
  Al  Al28  1  0.88245077  0.88257346  0.06526253  1
  Al  Al29  1  0.44671169  0.76094697  0.88540873  1
  Al  Al30  1  0.56248967  0.87827723  0.63750873  1
  B  B31  1  0.84466753  0.23579278  0.65489669  1
  B  B32  1  0.55417489  0.20389319  0.14191099  1
  B  B33  1  0.17489827  0.22637714  0.55531602  1
  B  B34  1  0.77225065  0.09088375  0.30299969  1
  B  B35  1  0.50670474  0.22837207  0.64462848  1
  N  N36  1  0.20954574  0.21038328  0.40434728  1
  N  N37  1  0.11477227  0.09591836  0.13600927  1
  N  N38  1  0.88307735  0.22280787  0.80724119  1
  N  N39  1  0.81542793  0.10248726  0.61925582  1
  N  N40  1  0.56620219  0.19705769  0.30416484  1
  N  N41  1  0.46276307  0.10760082  0.08013232  1
  N  N42  1  0.21977843  0.20522616  0.88658676  1
  N  N43  1  0.15877153  0.09634675  0.62190764  1
  N  N44  1  0.86951594  0.19230276  0.32585580  1
  N  N45  1  0.75373876  0.10099358  0.12501132  1
  N  N46  1  0.54073440  0.21348447  0.79740027  1
  N  N47  1  0.49450943  0.09765320  0.57745608  1
  N  N48  1  0.21619289  0.54311643  0.37801663  1
  N  N49  1  0.11496861  0.42474298  0.13755569  1
  N  N50  1  0.88805478  0.54109942  0.82164924  1
  N  N51  1  0.78404297  0.40377206  0.58381501  1
  N  N52  1  0.55568556  0.53350191  0.32682871  1
  N  N53  1  0.46139962  0.39850426  0.08100435  1
  N  N54  1  0.21809119  0.54024621  0.87925746  1
  N  N55  1  0.12277277  0.39856887  0.61939476  1
  N  N56  1  0.87786071  0.53546458  0.33216282  1
  N  N57  1  0.77632374  0.42726141  0.07259440  1
  N  N58  1  0.55407839  0.53791841  0.82708796  1
  N  N59  1  0.45499486  0.40019616  0.57992667  1
  N  N60  1  0.21806537  0.87011776  0.38067582  1
  N  N61  1  0.10730098  0.76409092  0.12717396  1
  N  N62  1  0.88812416  0.87876950  0.87604696  1
  N  N63  1  0.78577134  0.75733335  0.57267183  1
  N  N64  1  0.54809994  0.87853141  0.32611037  1
  N  N65  1  0.44738514  0.76035235  0.07650969  1
  N  N66  1  0.21214585  0.88069566  0.87383389  1
  N  N67  1  0.11469955  0.75800096  0.62536567  1
  N  N68  1  0.87039454  0.90318886  0.36210619  1
  N  N69  1  0.77330807  0.75772003  0.07628042  1
  N  N70  1  0.55543671  0.87418675  0.82474350  1
  N  N71  1  0.46151396  0.75107341  0.57663259  1
