# generated using pymatgen
data_Al31B5N36
_symmetry_space_group_name_H-M   'P 1'
_cell_length_a   9.38459473
_cell_length_b   9.15061737
_cell_length_c   9.92683100
_cell_angle_alpha   89.95694802
_cell_angle_beta   90.53392992
_cell_angle_gamma   60.64382254
_symmetry_Int_Tables_number   1
_chemical_formula_structural   Al31B5N36
_chemical_formula_sum   'Al31 B5 N36'
_cell_volume   742.95301728
_cell_formula_units_Z   1
loop_
 _symmetry_equiv_pos_site_id
 _symmetry_equiv_pos_as_xyz
  1  'x, y, z'
loop_
 _atom_site_type_symbol
 _atom_site_label
 _atom_site_symmetry_multiplicity
 _atom_site_fract_x
 _atom_site_fract_y
 _atom_site_fract_z
 _atom_site_occupancy
  Al  Al0  1  0.11501685  0.09444243  0.33916890  1
  Al  Al1  1  0.21626313  0.20614162  0.09771127  1
  Al  Al2  1  0.77162092  0.09604071  0.88605686  1
  Al  Al3  1  0.44572094  0.10259820  0.39535348  1
  Al  Al4  1  0.11132366  0.10789257  0.80982770  1
  Al  Al5  1  0.87673489  0.20148331  0.14911690  1
  Al  Al6  1  0.44255065  0.09765150  0.90085449  1
  Al  Al7  1  0.10839122  0.42817091  0.39986815  1
  Al  Al8  1  0.21750153  0.53912274  0.15498729  1
  Al  Al9  1  0.77515702  0.42403900  0.89787300  1
  Al  Al10  1  0.89373339  0.52424267  0.65023376  1
  Al  Al11  1  0.44377504  0.41993409  0.39791190  1
  Al  Al12  1  0.55565158  0.52931705  0.15095983  1
  Al  Al13  1  0.10185290  0.43636631  0.90537751  1
  Al  Al14  1  0.22180362  0.53009177  0.65350802  1
  Al  Al15  1  0.77697818  0.41622927  0.40365332  1
  Al  Al16  1  0.88299391  0.54166766  0.15558880  1
  Al  Al17  1  0.43952122  0.42376520  0.90213195  1
  Al  Al18  1  0.55778373  0.52445476  0.65497334  1
  Al  Al19  1  0.11448385  0.76278550  0.40350496  1
  Al  Al20  1  0.22625565  0.86558704  0.15080102  1
  Al  Al21  1  0.77591984  0.76318735  0.90172970  1
  Al  Al22  1  0.89885502  0.87282961  0.64633830  1
  Al  Al23  1  0.45271504  0.75613166  0.40137540  1
  Al  Al24  1  0.55604640  0.88132039  0.15363186  1
  Al  Al25  1  0.10673644  0.76808666  0.90041002  1
  Al  Al26  1  0.23848958  0.86592835  0.64146330  1
  Al  Al27  1  0.77745919  0.77149717  0.40388891  1
  Al  Al28  1  0.88145438  0.88945250  0.15026434  1
  Al  Al29  1  0.43915535  0.76442791  0.90062476  1
  Al  Al30  1  0.55553865  0.87928856  0.65206743  1
  B  B31  1  0.84047056  0.22556749  0.65009201  1
  B  B32  1  0.50223282  0.23160203  0.16462304  1
  B  B33  1  0.22779925  0.20577315  0.58871756  1
  B  B34  1  0.84853514  0.07137709  0.42283049  1
  B  B35  1  0.48838062  0.23668350  0.66475183  1
  N  N36  1  0.22484706  0.20614743  0.36648067  1
  N  N37  1  0.10511928  0.09603683  0.14159303  1
  N  N38  1  0.87297828  0.21021805  0.80311796  1
  N  N39  1  0.83186328  0.09056715  0.57173815  1
  N  N40  1  0.52819891  0.22078130  0.30926307  1
  N  N41  1  0.45264237  0.11129546  0.09524287  1
  N  N42  1  0.21536970  0.20494666  0.89830396  1
  N  N43  1  0.16371236  0.09614991  0.62442305  1
  N  N44  1  0.88135775  0.19123949  0.34587001  1
  N  N45  1  0.77592660  0.09788510  0.07035640  1
  N  N46  1  0.54207160  0.20949676  0.81163255  1
  N  N47  1  0.43449451  0.12247583  0.59685084  1
  N  N48  1  0.21787545  0.54271531  0.34569448  1
  N  N49  1  0.09753406  0.44047156  0.09763627  1
  N  N50  1  0.88499632  0.53787566  0.84062086  1
  N  N51  1  0.78130366  0.40150812  0.59530756  1
  N  N52  1  0.55800118  0.53201587  0.34361415  1
  N  N53  1  0.44274507  0.40827194  0.09471772  1
  N  N54  1  0.21924038  0.53980559  0.84345259  1
  N  N55  1  0.12188703  0.40251118  0.59589846  1
  N  N56  1  0.88412403  0.54006913  0.34912150  1
  N  N57  1  0.77491984  0.42627174  0.09053770  1
  N  N58  1  0.55194939  0.53580315  0.84538791  1
  N  N59  1  0.44856493  0.40060318  0.59699885  1
  N  N60  1  0.23429487  0.86135639  0.34675243  1
  N  N61  1  0.10760541  0.76247658  0.09300121  1
  N  N62  1  0.88818841  0.87103368  0.83491019  1
  N  N63  1  0.78079262  0.76025244  0.59370580  1
  N  N64  1  0.55826852  0.87541039  0.34567671  1
  N  N65  1  0.44532467  0.76116470  0.09297661  1
  N  N66  1  0.22151789  0.87213995  0.83624123  1
  N  N67  1  0.12120749  0.75240282  0.59240206  1
  N  N68  1  0.88569861  0.90202243  0.35411953  1
  N  N69  1  0.77525044  0.76663089  0.09632033  1
  N  N70  1  0.55426259  0.87441609  0.84326097  1
  N  N71  1  0.46035832  0.74732945  0.59213545  1
