# generated using pymatgen
data_Al31B5N36
_symmetry_space_group_name_H-M   'P 1'
_cell_length_a   9.30813865
_cell_length_b   9.16931207
_cell_length_c   9.95481904
_cell_angle_alpha   90.29712802
_cell_angle_beta   89.91881503
_cell_angle_gamma   60.37048792
_symmetry_Int_Tables_number   1
_chemical_formula_structural   Al31B5N36
_chemical_formula_sum   'Al31 B5 N36'
_cell_volume   738.52036059
_cell_formula_units_Z   1
loop_
 _symmetry_equiv_pos_site_id
 _symmetry_equiv_pos_as_xyz
  1  'x, y, z'
loop_
 _atom_site_type_symbol
 _atom_site_label
 _atom_site_symmetry_multiplicity
 _atom_site_fract_x
 _atom_site_fract_y
 _atom_site_fract_z
 _atom_site_occupancy
  Al  Al0  1  0.09682602  0.09849966  0.33578496  1
  Al  Al1  1  0.22425282  0.20710200  0.07974438  1
  Al  Al2  1  0.79104341  0.09495543  0.80564458  1
  Al  Al3  1  0.44778742  0.10740972  0.40492719  1
  Al  Al4  1  0.11919172  0.09736174  0.81480943  1
  Al  Al5  1  0.88658370  0.20463034  0.07495861  1
  Al  Al6  1  0.45689338  0.09926185  0.89342579  1
  Al  Al7  1  0.10364066  0.43047850  0.32397930  1
  Al  Al8  1  0.22686606  0.53143854  0.07092904  1
  Al  Al9  1  0.78217060  0.41735918  0.81420683  1
  Al  Al10  1  0.88666497  0.52906564  0.56776879  1
  Al  Al11  1  0.44174902  0.42896169  0.31747238  1
  Al  Al12  1  0.55791284  0.53118162  0.07025219  1
  Al  Al13  1  0.11572082  0.41734590  0.81748570  1
  Al  Al14  1  0.22025164  0.52947404  0.56717019  1
  Al  Al15  1  0.76812938  0.42877922  0.32184778  1
  Al  Al16  1  0.88970547  0.53594595  0.06918848  1
  Al  Al17  1  0.44058310  0.43561309  0.82163948  1
  Al  Al18  1  0.55255924  0.52809055  0.56828625  1
  Al  Al19  1  0.10291671  0.76846718  0.31869816  1
  Al  Al20  1  0.22019691  0.87532833  0.07129976  1
  Al  Al21  1  0.78264627  0.75964650  0.82081099  1
  Al  Al22  1  0.89044261  0.88224845  0.56200605  1
  Al  Al23  1  0.43713364  0.76706581  0.32315008  1
  Al  Al24  1  0.56011634  0.87174901  0.08341814  1
  Al  Al25  1  0.10934942  0.76269709  0.81930922  1
  Al  Al26  1  0.22597213  0.87673760  0.57280258  1
  Al  Al27  1  0.76986773  0.77065797  0.32217901  1
  Al  Al28  1  0.88398381  0.87894609  0.07364877  1
  Al  Al29  1  0.44629417  0.76144319  0.82258765  1
  Al  Al30  1  0.56171625  0.87358902  0.58623307  1
  B  B31  1  0.83235297  0.22209862  0.54676671  1
  B  B32  1  0.55921053  0.19860660  0.15825768  1
  B  B33  1  0.16948364  0.22822363  0.56046427  1
  B  B34  1  0.77244365  0.09410653  0.31400105  1
  B  B35  1  0.50754640  0.22488308  0.66041931  1
  N  N36  1  0.20496247  0.21505239  0.40557870  1
  N  N37  1  0.10866219  0.09784581  0.14269724  1
  N  N38  1  0.89678589  0.20150533  0.88479257  1
  N  N39  1  0.82413267  0.09618129  0.62243171  1
  N  N40  1  0.57040981  0.19252470  0.31878632  1
  N  N41  1  0.46542812  0.11027193  0.09199920  1
  N  N42  1  0.22650228  0.20393160  0.89029508  1
  N  N43  1  0.15274814  0.09943999  0.62798811  1
  N  N44  1  0.85933676  0.20246746  0.38954876  1
  N  N45  1  0.76768864  0.10182956  0.14868787  1
  N  N46  1  0.55774396  0.20279449  0.80983730  1
  N  N47  1  0.48585189  0.10399653  0.58896642  1
  N  N48  1  0.21814807  0.54037027  0.37762238  1
  N  N49  1  0.10883595  0.42857197  0.13525711  1
  N  N50  1  0.89230780  0.53287710  0.87516366  1
  N  N51  1  0.78150008  0.39859773  0.61517860  1
  N  N52  1  0.54735456  0.54190833  0.37970048  1
  N  N53  1  0.45439050  0.40669477  0.12543607  1
  N  N54  1  0.22087008  0.53713028  0.87860551  1
  N  N55  1  0.11387768  0.40316925  0.62306836  1
  N  N56  1  0.88180977  0.54222898  0.37947327  1
  N  N57  1  0.77606369  0.42824861  0.13230969  1
  N  N58  1  0.56081629  0.53516863  0.87869011  1
  N  N59  1  0.44129969  0.41151502  0.62695362  1
  N  N60  1  0.21695139  0.87388385  0.38340709  1
  N  N61  1  0.11054432  0.76048274  0.12816283  1
  N  N62  1  0.88751755  0.87807949  0.88119081  1
  N  N63  1  0.78891189  0.75496811  0.62908859  1
  N  N64  1  0.54998151  0.87520847  0.38120074  1
  N  N65  1  0.44188987  0.76069504  0.13058945  1
  N  N66  1  0.22317555  0.87332200  0.87892331  1
  N  N67  1  0.11468001  0.75599677  0.62745112  1
  N  N68  1  0.87209206  0.90048682  0.36966606  1
  N  N69  1  0.78073195  0.75874545  0.13139550  1
  N  N70  1  0.56199474  0.86750382  0.87961154  1
  N  N71  1  0.45106930  0.75249870  0.63216324  1
