# generated using pymatgen
data_Al31B5N36
_symmetry_space_group_name_H-M   'P 1'
_cell_length_a   9.39310971
_cell_length_b   9.14055945
_cell_length_c   10.10299359
_cell_angle_alpha   89.79926172
_cell_angle_beta   90.32699301
_cell_angle_gamma   60.78746583
_symmetry_Int_Tables_number   1
_chemical_formula_structural   Al31B5N36
_chemical_formula_sum   'Al31 B5 N36'
_cell_volume   757.07040549
_cell_formula_units_Z   1
loop_
 _symmetry_equiv_pos_site_id
 _symmetry_equiv_pos_as_xyz
  1  'x, y, z'
loop_
 _atom_site_type_symbol
 _atom_site_label
 _atom_site_symmetry_multiplicity
 _atom_site_fract_x
 _atom_site_fract_y
 _atom_site_fract_z
 _atom_site_occupancy
  Al  Al0  1  0.12062227  0.09072351  0.32655768  1
  Al  Al1  1  0.21245530  0.21220682  0.06846309  1
  Al  Al2  1  0.77408769  0.09729929  0.86485693  1
  Al  Al3  1  0.44788773  0.10138256  0.39856697  1
  Al  Al4  1  0.11517895  0.09559341  0.79983951  1
  Al  Al5  1  0.88073681  0.19910213  0.14139634  1
  Al  Al6  1  0.44582555  0.09687544  0.88382444  1
  Al  Al7  1  0.11339773  0.42837998  0.32546130  1
  Al  Al8  1  0.21252588  0.54004601  0.06913784  1
  Al  Al9  1  0.77766605  0.42154401  0.88651550  1
  Al  Al10  1  0.88151671  0.53045423  0.63619327  1
  Al  Al11  1  0.44526540  0.42044755  0.38486073  1
  Al  Al12  1  0.55504095  0.52948322  0.13833310  1
  Al  Al13  1  0.11496144  0.41844882  0.81492845  1
  Al  Al14  1  0.21713170  0.53089027  0.56901353  1
  Al  Al15  1  0.77812358  0.41655052  0.39116789  1
  Al  Al16  1  0.87815186  0.54341973  0.14162012  1
  Al  Al17  1  0.44715070  0.41883239  0.88716386  1
  Al  Al18  1  0.55296542  0.52828652  0.64103291  1
  Al  Al19  1  0.10878210  0.76804492  0.32171555  1
  Al  Al20  1  0.21493631  0.88029728  0.07015256  1
  Al  Al21  1  0.77504285  0.75783483  0.88007886  1
  Al  Al22  1  0.89515721  0.87490482  0.61740153  1
  Al  Al23  1  0.45840647  0.75387510  0.38567351  1
  Al  Al24  1  0.55481154  0.88458753  0.14006053  1
  Al  Al25  1  0.11571075  0.75848362  0.81515847  1
  Al  Al26  1  0.23003001  0.87394445  0.56669027  1
  Al  Al27  1  0.77731514  0.77378401  0.39419768  1
  Al  Al28  1  0.88907175  0.87917338  0.08693179  1
  Al  Al29  1  0.44604502  0.75989320  0.88890003  1
  Al  Al30  1  0.56154434  0.87663513  0.63923645  1
  B  B31  1  0.84065710  0.23214622  0.64041039  1
  B  B32  1  0.48070606  0.24175766  0.15028806  1
  B  B33  1  0.16928550  0.22798630  0.55682858  1
  B  B34  1  0.85817952  0.06916018  0.42096757  1
  B  B35  1  0.50521417  0.22693414  0.64822647  1
  N  N36  1  0.20649038  0.21564290  0.40839782  1
  N  N37  1  0.11719951  0.09590148  0.13972805  1
  N  N38  1  0.87577020  0.21325700  0.78936300  1
  N  N39  1  0.83973102  0.09647073  0.56521801  1
  N  N40  1  0.49657901  0.23213497  0.29093837  1
  N  N41  1  0.44935936  0.11330640  0.07590267  1
  N  N42  1  0.21338958  0.20543100  0.88354682  1
  N  N43  1  0.16317218  0.09196383  0.62222291  1
  N  N44  1  0.88456093  0.18901367  0.33458881  1
  N  N45  1  0.79427160  0.09601443  0.04569457  1
  N  N46  1  0.54457121  0.21069499  0.79941599  1
  N  N47  1  0.49917144  0.09416556  0.57880436  1
  N  N48  1  0.21208663  0.54890201  0.38363464  1
  N  N49  1  0.10972636  0.42740490  0.13603918  1
  N  N50  1  0.88442350  0.53514285  0.82576150  1
  N  N51  1  0.77848190  0.40527775  0.58104813  1
  N  N52  1  0.55887134  0.53032425  0.32752794  1
  N  N53  1  0.44755074  0.40620795  0.07866089  1
  N  N54  1  0.21485050  0.53818950  0.87871488  1
  N  N55  1  0.11676133  0.40038636  0.62180513  1
  N  N56  1  0.87853900  0.54503647  0.33328242  1
  N  N57  1  0.77698313  0.42336240  0.07724487  1
  N  N58  1  0.55308458  0.53585675  0.82995028  1
  N  N59  1  0.45344976  0.39829498  0.58257758  1
  N  N60  1  0.22825325  0.86944654  0.37799845  1
  N  N61  1  0.11086473  0.76066431  0.13062529  1
  N  N62  1  0.88501500  0.87008382  0.82175010  1
  N  N63  1  0.78277964  0.75311956  0.58097853  1
  N  N64  1  0.55666727  0.87952450  0.32871412  1
  N  N65  1  0.44882062  0.75954773  0.08068474  1
  N  N66  1  0.21292287  0.87999529  0.87904135  1
  N  N67  1  0.12934787  0.75094382  0.62991186  1
  N  N68  1  0.88934241  0.89974220  0.37511618  1
  N  N69  1  0.77437166  0.76343229  0.07279493  1
  N  N70  1  0.55258029  0.87391776  0.82765442  1
  N  N71  1  0.46297354  0.74888369  0.57683750  1
