# generated using pymatgen
data_Al31B5N36
_symmetry_space_group_name_H-M   'P 1'
_cell_length_a   9.27307973
_cell_length_b   9.16806072
_cell_length_c   10.14694888
_cell_angle_alpha   89.47343733
_cell_angle_beta   90.28310552
_cell_angle_gamma   59.84240265
_symmetry_Int_Tables_number   1
_chemical_formula_structural   Al31B5N36
_chemical_formula_sum   'Al31 B5 N36'
_cell_volume   745.81450103
_cell_formula_units_Z   1
loop_
 _symmetry_equiv_pos_site_id
 _symmetry_equiv_pos_as_xyz
  1  'x, y, z'
loop_
 _atom_site_type_symbol
 _atom_site_label
 _atom_site_symmetry_multiplicity
 _atom_site_fract_x
 _atom_site_fract_y
 _atom_site_fract_z
 _atom_site_occupancy
  Al  Al0  1  0.10109250  0.09399153  0.32085411  1
  Al  Al1  1  0.22497791  0.20741947  0.07073805  1
  Al  Al2  1  0.78513058  0.09839171  0.80662839  1
  Al  Al3  1  0.45255390  0.09922941  0.39990048  1
  Al  Al4  1  0.10404958  0.10239321  0.82152564  1
  Al  Al5  1  0.88336014  0.20355880  0.09945109  1
  Al  Al6  1  0.45808677  0.09164867  0.88766044  1
  Al  Al7  1  0.11350298  0.42616998  0.32591396  1
  Al  Al8  1  0.22158638  0.53447832  0.07217384  1
  Al  Al9  1  0.77888993  0.42864305  0.89590122  1
  Al  Al10  1  0.88288300  0.53698066  0.63413906  1
  Al  Al11  1  0.45540844  0.41263525  0.38583288  1
  Al  Al12  1  0.55377437  0.53407293  0.14249502  1
  Al  Al13  1  0.12311404  0.41574235  0.81525412  1
  Al  Al14  1  0.21817368  0.53352503  0.56598000  1
  Al  Al15  1  0.77714427  0.41273873  0.38506804  1
  Al  Al16  1  0.88111019  0.54190480  0.14512099  1
  Al  Al17  1  0.45582956  0.41615416  0.89006319  1
  Al  Al18  1  0.56123947  0.52216638  0.63972693  1
  Al  Al19  1  0.10170505  0.77065254  0.31648603  1
  Al  Al20  1  0.21622710  0.87713463  0.06467647  1
  Al  Al21  1  0.77863096  0.75373844  0.88843568  1
  Al  Al22  1  0.88974266  0.89559100  0.55833725  1
  Al  Al23  1  0.44611432  0.76011912  0.39154307  1
  Al  Al24  1  0.55417651  0.87909564  0.14033611  1
  Al  Al25  1  0.10706344  0.76134242  0.81497495  1
  Al  Al26  1  0.21399980  0.88213833  0.57329901  1
  Al  Al27  1  0.76975378  0.76746621  0.38561312  1
  Al  Al28  1  0.88327098  0.88154600  0.06710542  1
  Al  Al29  1  0.45069314  0.75676507  0.88462121  1
  Al  Al30  1  0.56409975  0.87755863  0.64045924  1
  B  B31  1  0.89955621  0.20920900  0.60396807  1
  B  B32  1  0.55314243  0.20312473  0.14550097  1
  B  B33  1  0.15570815  0.24187977  0.55439342  1
  B  B34  1  0.77489635  0.09415090  0.29573692  1
  B  B35  1  0.50599801  0.22816115  0.64796762  1
  N  N36  1  0.20136171  0.21182838  0.40979217  1
  N  N37  1  0.12161238  0.09223294  0.13500065  1
  N  N38  1  0.89136903  0.19630625  0.89457981  1
  N  N39  1  0.83334538  0.10093097  0.62955826  1
  N  N40  1  0.55753851  0.20135876  0.30551154  1
  N  N41  1  0.46500068  0.10641638  0.07964860  1
  N  N42  1  0.22323448  0.20108130  0.88377661  1
  N  N43  1  0.09457150  0.13053367  0.62052949  1
  N  N44  1  0.86781572  0.19506799  0.32427939  1
  N  N45  1  0.75661109  0.09624686  0.13748002  1
  N  N46  1  0.54413491  0.21184983  0.79819578  1
  N  N47  1  0.48925817  0.09861079  0.58147098  1
  N  N48  1  0.21559946  0.54430260  0.37996564  1
  N  N49  1  0.11746021  0.42227375  0.13889779  1
  N  N50  1  0.88805929  0.53541312  0.82231057  1
  N  N51  1  0.79312732  0.39972907  0.57867019  1
  N  N52  1  0.55089793  0.53885845  0.33118338  1
  N  N53  1  0.46407729  0.39712194  0.08190169  1
  N  N54  1  0.21883215  0.53771707  0.88046945  1
  N  N55  1  0.12228762  0.40099903  0.62042340  1
  N  N56  1  0.87873709  0.54042928  0.33399730  1
  N  N57  1  0.77125253  0.43795840  0.08169253  1
  N  N58  1  0.55903445  0.53270585  0.82601315  1
  N  N59  1  0.45708764  0.39769943  0.58128458  1
  N  N60  1  0.21268310  0.87578532  0.38569159  1
  N  N61  1  0.10972764  0.76259873  0.12884574  1
  N  N62  1  0.88628905  0.87844435  0.87650976  1
  N  N63  1  0.78483393  0.75941201  0.57461381  1
  N  N64  1  0.54483657  0.88116835  0.32827863  1
  N  N65  1  0.44893752  0.75896385  0.07622825  1
  N  N66  1  0.21696885  0.87491534  0.87091772  1
  N  N67  1  0.11420601  0.75485790  0.62787526  1
  N  N68  1  0.86981856  0.90567700  0.36547199  1
  N  N69  1  0.77458784  0.75790020  0.07816063  1
  N  N70  1  0.55819715  0.87114692  0.82650202  1
  N  N71  1  0.45472039  0.75692312  0.58258041  1
