# generated using pymatgen
data_Al31B5N36
_symmetry_space_group_name_H-M   'P 1'
_cell_length_a   9.42031435
_cell_length_b   9.15327901
_cell_length_c   10.02660541
_cell_angle_alpha   90.17142899
_cell_angle_beta   90.46656899
_cell_angle_gamma   60.78270126
_symmetry_Int_Tables_number   1
_chemical_formula_structural   Al31B5N36
_chemical_formula_sum   'Al31 B5 N36'
_cell_volume   754.54216611
_cell_formula_units_Z   1
loop_
 _symmetry_equiv_pos_site_id
 _symmetry_equiv_pos_as_xyz
  1  'x, y, z'
loop_
 _atom_site_type_symbol
 _atom_site_label
 _atom_site_symmetry_multiplicity
 _atom_site_fract_x
 _atom_site_fract_y
 _atom_site_fract_z
 _atom_site_occupancy
  Al  Al0  1  0.12116094  0.09060440  0.33889005  1
  Al  Al1  1  0.21333792  0.21287221  0.08283699  1
  Al  Al2  1  0.77629232  0.09352451  0.88695489  1
  Al  Al3  1  0.44707020  0.10116429  0.41450347  1
  Al  Al4  1  0.11340079  0.09614640  0.81514426  1
  Al  Al5  1  0.88321227  0.20187172  0.15190127  1
  Al  Al6  1  0.44617866  0.09701714  0.89793549  1
  Al  Al7  1  0.10911462  0.42846440  0.34719418  1
  Al  Al8  1  0.21783497  0.53930896  0.11146017  1
  Al  Al9  1  0.77702662  0.42308723  0.89788295  1
  Al  Al10  1  0.87952447  0.53281357  0.64905475  1
  Al  Al11  1  0.44696034  0.41795727  0.40233100  1
  Al  Al12  1  0.55600953  0.52915677  0.15189089  1
  Al  Al13  1  0.11358151  0.41855481  0.82799552  1
  Al  Al14  1  0.21967932  0.52945045  0.59371068  1
  Al  Al15  1  0.77643749  0.41635986  0.40527934  1
  Al  Al16  1  0.87809715  0.54467548  0.15659976  1
  Al  Al17  1  0.44295922  0.42106698  0.90059086  1
  Al  Al18  1  0.55397751  0.52681724  0.65688492  1
  Al  Al19  1  0.11450617  0.76633650  0.34400556  1
  Al  Al20  1  0.21279225  0.87869147  0.08380191  1
  Al  Al21  1  0.78001651  0.76179176  0.90332515  1
  Al  Al22  1  0.88918519  0.87902409  0.64114706  1
  Al  Al23  1  0.45832507  0.75327558  0.40120773  1
  Al  Al24  1  0.55202619  0.88374599  0.15431849  1
  Al  Al25  1  0.11440228  0.75946820  0.82739075  1
  Al  Al26  1  0.23026846  0.87563794  0.58278989  1
  Al  Al27  1  0.77365268  0.77415727  0.40530982  1
  Al  Al28  1  0.87647638  0.89285268  0.15401202  1
  Al  Al29  1  0.44692799  0.75967565  0.90276740  1
  Al  Al30  1  0.56389667  0.87538358  0.65575836  1
  B  B31  1  0.84086606  0.22725776  0.65153198  1
  B  B32  1  0.48391663  0.23801390  0.16581031  1
  B  B33  1  0.16636942  0.22812418  0.57015159  1
  B  B34  1  0.85423693  0.07114809  0.42514761  1
  B  B35  1  0.50724653  0.22496684  0.66622357  1
  N  N36  1  0.20782925  0.21325218  0.42195617  1
  N  N37  1  0.11823166  0.09594148  0.15126996  1
  N  N38  1  0.87439085  0.21012478  0.80296202  1
  N  N39  1  0.83852461  0.09204973  0.57094382  1
  N  N40  1  0.50101957  0.22867074  0.30755133  1
  N  N41  1  0.44905199  0.11256965  0.09127461  1
  N  N42  1  0.21347249  0.20597341  0.89696811  1
  N  N43  1  0.15914778  0.09397447  0.63634049  1
  N  N44  1  0.88528177  0.19103298  0.34555079  1
  N  N45  1  0.79604806  0.09090375  0.06796638  1
  N  N46  1  0.54775251  0.20893140  0.81733725  1
  N  N47  1  0.49837176  0.09341865  0.59620952  1
  N  N48  1  0.21465496  0.54566891  0.39861953  1
  N  N49  1  0.10893129  0.42632139  0.15464121  1
  N  N50  1  0.88310374  0.53894007  0.84097692  1
  N  N51  1  0.77835458  0.40268302  0.59569337  1
  N  N52  1  0.55800404  0.52966472  0.34268588  1
  N  N53  1  0.44646184  0.40585569  0.09480618  1
  N  N54  1  0.22000196  0.53552274  0.87180461  1
  N  N55  1  0.11214616  0.40100256  0.63247338  1
  N  N56  1  0.87626224  0.54434793  0.34983600  1
  N  N57  1  0.77724076  0.42496810  0.08989092  1
  N  N58  1  0.55337441  0.53509256  0.84588793  1
  N  N59  1  0.45534914  0.39601437  0.59908595  1
  N  N60  1  0.22947895  0.87181167  0.39389021  1
  N  N61  1  0.11122560  0.76267161  0.15217493  1
  N  N62  1  0.88359871  0.87236206  0.83054093  1
  N  N63  1  0.78339965  0.75577894  0.59130344  1
  N  N64  1  0.55371961  0.87989735  0.34413048  1
  N  N65  1  0.44728247  0.75865199  0.09556660  1
  N  N66  1  0.21367490  0.87922139  0.89134953  1
  N  N67  1  0.12280381  0.75775327  0.63674099  1
  N  N68  1  0.87917722  0.90713218  0.35854225  1
  N  N69  1  0.77532436  0.76779337  0.09682181  1
  N  N70  1  0.55668729  0.87219553  0.84569362  1
  N  N71  1  0.46349962  0.74814484  0.59399535  1
