# generated using pymatgen
data_Al31B5N36
_symmetry_space_group_name_H-M   'P 1'
_cell_length_a   9.28273244
_cell_length_b   9.16533890
_cell_length_c   9.79564931
_cell_angle_alpha   89.98741342
_cell_angle_beta   89.34575994
_cell_angle_gamma   60.09021099
_symmetry_Int_Tables_number   1
_chemical_formula_structural   Al31B5N36
_chemical_formula_sum   'Al31 B5 N36'
_cell_volume   722.34607027
_cell_formula_units_Z   1
loop_
 _symmetry_equiv_pos_site_id
 _symmetry_equiv_pos_as_xyz
  1  'x, y, z'
loop_
 _atom_site_type_symbol
 _atom_site_label
 _atom_site_symmetry_multiplicity
 _atom_site_fract_x
 _atom_site_fract_y
 _atom_site_fract_z
 _atom_site_occupancy
  Al  Al0  1  0.09767766  0.09847178  0.32430617  1
  Al  Al1  1  0.22840130  0.20458858  0.06312671  1
  Al  Al2  1  0.77487101  0.10072103  0.80959645  1
  Al  Al3  1  0.44551518  0.10118653  0.32470478  1
  Al  Al4  1  0.11833848  0.09712596  0.80280348  1
  Al  Al5  1  0.88342418  0.20405670  0.06530862  1
  Al  Al6  1  0.45574690  0.09738035  0.80825523  1
  Al  Al7  1  0.10801362  0.42944502  0.31052530  1
  Al  Al8  1  0.22618708  0.53288316  0.05814586  1
  Al  Al9  1  0.78228951  0.41668004  0.80367592  1
  Al  Al10  1  0.89086627  0.52784226  0.55566881  1
  Al  Al11  1  0.45063006  0.41774284  0.31083293  1
  Al  Al12  1  0.55660865  0.53293566  0.05838262  1
  Al  Al13  1  0.11676078  0.41717545  0.80500769  1
  Al  Al14  1  0.22860125  0.52468042  0.55869431  1
  Al  Al15  1  0.77075198  0.42877602  0.31018041  1
  Al  Al16  1  0.88892653  0.53712241  0.05674541  1
  Al  Al17  1  0.45081554  0.41596623  0.81172861  1
  Al  Al18  1  0.55272932  0.53286797  0.55791472  1
  Al  Al19  1  0.10500314  0.76715833  0.30936478  1
  Al  Al20  1  0.21964542  0.87632974  0.05979511  1
  Al  Al21  1  0.78073841  0.76011343  0.80753088  1
  Al  Al22  1  0.88392179  0.88553848  0.55464804  1
  Al  Al23  1  0.44018447  0.76508364  0.30877695  1
  Al  Al24  1  0.55532474  0.88052036  0.06078619  1
  Al  Al25  1  0.11093480  0.76210659  0.80816533  1
  Al  Al26  1  0.22797013  0.87639885  0.56009329  1
  Al  Al27  1  0.77230539  0.76907989  0.30862878  1
  Al  Al28  1  0.88028403  0.88220257  0.06462598  1
  Al  Al29  1  0.44753067  0.76024767  0.81068325  1
  Al  Al30  1  0.56068090  0.87905313  0.56240219  1
  B  B31  1  0.82527157  0.23045059  0.53767730  1
  B  B32  1  0.55316863  0.20860935  0.06877111  1
  B  B33  1  0.17623838  0.22477974  0.54539449  1
  B  B34  1  0.76227182  0.09898252  0.31479798  1
  B  B35  1  0.56314249  0.20250683  0.55754354  1
  N  N36  1  0.21275655  0.21044141  0.38942297  1
  N  N37  1  0.10628054  0.09973581  0.12914818  1
  N  N38  1  0.89688618  0.19863975  0.87148576  1
  N  N39  1  0.76878908  0.12220303  0.61026207  1
  N  N40  1  0.57707542  0.19532789  0.38598483  1
  N  N41  1  0.45364465  0.11122859  0.12537430  1
  N  N42  1  0.23311018  0.19982970  0.87218400  1
  N  N43  1  0.14351056  0.10207721  0.61187003  1
  N  N44  1  0.86127559  0.20179937  0.38265682  1
  N  N45  1  0.75081243  0.11031643  0.14125122  1
  N  N46  1  0.56348072  0.20224121  0.90005091  1
  N  N47  1  0.49473711  0.09770902  0.61989521  1
  N  N48  1  0.22233433  0.53816552  0.36638125  1
  N  N49  1  0.10883000  0.42841356  0.11916778  1
  N  N50  1  0.89172309  0.53250751  0.86106608  1
  N  N51  1  0.78423187  0.39878124  0.60375858  1
  N  N52  1  0.54941939  0.54164255  0.36631501  1
  N  N53  1  0.45455787  0.40439598  0.11602815  1
  N  N54  1  0.22411303  0.53499804  0.86269032  1
  N  N55  1  0.11839578  0.40002008  0.60887727  1
  N  N56  1  0.88483374  0.54074527  0.36532954  1
  N  N57  1  0.77572661  0.42838103  0.11923980  1
  N  N58  1  0.55947810  0.53337440  0.86434038  1
  N  N59  1  0.45740738  0.39991924  0.61355913  1
  N  N60  1  0.21927121  0.87321142  0.36926719  1
  N  N61  1  0.10874928  0.76189898  0.11610547  1
  N  N62  1  0.88782170  0.87621675  0.86812716  1
  N  N63  1  0.78839780  0.75302936  0.61418879  1
  N  N64  1  0.55174795  0.87467755  0.36950237  1
  N  N65  1  0.44273830  0.76306506  0.11550206  1
  N  N66  1  0.22325427  0.87329652  0.86583327  1
  N  N67  1  0.11137270  0.76119507  0.61412446  1
  N  N68  1  0.87177156  0.90118598  0.35994456  1
  N  N69  1  0.77645992  0.76141075  0.11653483  1
  N  N70  1  0.55851983  0.87216047  0.86781135  1
  N  N71  1  0.45218109  0.75706326  0.61831277  1
