# generated using pymatgen
data_Al31B5N36
_symmetry_space_group_name_H-M   'P 1'
_cell_length_a   9.30121864
_cell_length_b   9.16078036
_cell_length_c   9.96172693
_cell_angle_alpha   90.24774032
_cell_angle_beta   89.81517068
_cell_angle_gamma   60.43479023
_symmetry_Int_Tables_number   1
_chemical_formula_structural   Al31B5N36
_chemical_formula_sum   'Al31 B5 N36'
_cell_volume   738.26351441
_cell_formula_units_Z   1
loop_
 _symmetry_equiv_pos_site_id
 _symmetry_equiv_pos_as_xyz
  1  'x, y, z'
loop_
 _atom_site_type_symbol
 _atom_site_label
 _atom_site_symmetry_multiplicity
 _atom_site_fract_x
 _atom_site_fract_y
 _atom_site_fract_z
 _atom_site_occupancy
  Al  Al0  1  0.09757879  0.09874992  0.32318446  1
  Al  Al1  1  0.22709748  0.20617434  0.06644888  1
  Al  Al2  1  0.79126290  0.09431881  0.79381687  1
  Al  Al3  1  0.44677355  0.10910093  0.39542693  1
  Al  Al4  1  0.11768549  0.09715020  0.80220425  1
  Al  Al5  1  0.88706073  0.20440771  0.06335970  1
  Al  Al6  1  0.45455657  0.09866284  0.87352281  1
  Al  Al7  1  0.10402581  0.43094974  0.31118804  1
  Al  Al8  1  0.22757689  0.53151064  0.05895207  1
  Al  Al9  1  0.78181676  0.41724883  0.80242645  1
  Al  Al10  1  0.88721434  0.52875584  0.55502592  1
  Al  Al11  1  0.44245920  0.42925303  0.30548022  1
  Al  Al12  1  0.55820478  0.53150209  0.05885799  1
  Al  Al13  1  0.11452708  0.41825915  0.80525921  1
  Al  Al14  1  0.22059155  0.52935687  0.55501769  1
  Al  Al15  1  0.76885551  0.42881306  0.30973716  1
  Al  Al16  1  0.89027200  0.53583629  0.05735603  1
  Al  Al17  1  0.44067613  0.43541736  0.80962396  1
  Al  Al18  1  0.55297840  0.52785138  0.55583105  1
  Al  Al19  1  0.10384670  0.76868486  0.30662418  1
  Al  Al20  1  0.22154838  0.87554819  0.05947744  1
  Al  Al21  1  0.78260528  0.75929567  0.80761654  1
  Al  Al22  1  0.89105416  0.88171328  0.54990036  1
  Al  Al23  1  0.43886947  0.76823670  0.30995153  1
  Al  Al24  1  0.56191017  0.87115589  0.06261292  1
  Al  Al25  1  0.10959339  0.76250551  0.80749316  1
  Al  Al26  1  0.22692354  0.87645926  0.56018388  1
  Al  Al27  1  0.76894347  0.77202022  0.30870203  1
  Al  Al28  1  0.88443017  0.87899283  0.06185061  1
  Al  Al29  1  0.44638468  0.76055450  0.80944990  1
  Al  Al30  1  0.56419697  0.86991148  0.56840208  1
  B  B31  1  0.83270770  0.22180318  0.53490441  1
  B  B32  1  0.55900582  0.19730728  0.14611336  1
  B  B33  1  0.16869824  0.22850227  0.54869691  1
  B  B34  1  0.77283716  0.09403183  0.30235542  1
  B  B35  1  0.50895415  0.22399887  0.64823383  1
  N  N36  1  0.20481355  0.21584768  0.39388813  1
  N  N37  1  0.10952037  0.09829214  0.13018652  1
  N  N38  1  0.89617756  0.20133782  0.87310857  1
  N  N39  1  0.82286923  0.09622250  0.61028440  1
  N  N40  1  0.57021657  0.19228972  0.30764960  1
  N  N41  1  0.46627004  0.10947764  0.07793128  1
  N  N42  1  0.22522034  0.20404153  0.87648829  1
  N  N43  1  0.15073093  0.09975518  0.61541295  1
  N  N44  1  0.85990464  0.20242953  0.37771237  1
  N  N45  1  0.76793583  0.10158222  0.13749588  1
  N  N46  1  0.55867000  0.20299542  0.79743055  1
  N  N47  1  0.48426268  0.10246521  0.58019289  1
  N  N48  1  0.21862673  0.54063349  0.36560946  1
  N  N49  1  0.10973437  0.42798302  0.12251564  1
  N  N50  1  0.89155291  0.53322681  0.86333552  1
  N  N51  1  0.78174899  0.39837300  0.60319602  1
  N  N52  1  0.54796004  0.54282663  0.36731004  1
  N  N53  1  0.45449311  0.40692255  0.11402818  1
  N  N54  1  0.22092458  0.53690165  0.86658209  1
  N  N55  1  0.11360487  0.40337489  0.61110369  1
  N  N56  1  0.88196816  0.54320694  0.36672283  1
  N  N57  1  0.77652683  0.42803780  0.12041920  1
  N  N58  1  0.56060118  0.53512634  0.86710998  1
  N  N59  1  0.44178820  0.41087316  0.61443053  1
  N  N60  1  0.21851773  0.87403418  0.37071677  1
  N  N61  1  0.11125005  0.76071343  0.11613258  1
  N  N62  1  0.88745897  0.87748860  0.86918041  1
  N  N63  1  0.78938084  0.75425769  0.61678878  1
  N  N64  1  0.55116195  0.87484340  0.37376978  1
  N  N65  1  0.44380446  0.76196143  0.11793743  1
  N  N66  1  0.22357899  0.87318814  0.86688408  1
  N  N67  1  0.11517127  0.75600724  0.61548614  1
  N  N68  1  0.87260505  0.90033937  0.35758324  1
  N  N69  1  0.77986327  0.75936035  0.11854177  1
  N  N70  1  0.56237262  0.86588741  0.86803044  1
  N  N71  1  0.45181403  0.75200105  0.61993215  1
