# generated using pymatgen
data_Al31B5N36
_symmetry_space_group_name_H-M   'P 1'
_cell_length_a   9.28355775
_cell_length_b   9.15876060
_cell_length_c   9.92397710
_cell_angle_alpha   89.97169234
_cell_angle_beta   89.50346981
_cell_angle_gamma   60.15981835
_symmetry_Int_Tables_number   1
_chemical_formula_structural   Al31B5N36
_chemical_formula_sum   'Al31 B5 N36'
_cell_volume   731.88723586
_cell_formula_units_Z   1
loop_
 _symmetry_equiv_pos_site_id
 _symmetry_equiv_pos_as_xyz
  1  'x, y, z'
loop_
 _atom_site_type_symbol
 _atom_site_label
 _atom_site_symmetry_multiplicity
 _atom_site_fract_x
 _atom_site_fract_y
 _atom_site_fract_z
 _atom_site_occupancy
  Al  Al0  1  0.09766882  0.09859505  0.32251740  1
  Al  Al1  1  0.23168745  0.20387206  0.06290721  1
  Al  Al2  1  0.78290652  0.09744511  0.80652459  1
  Al  Al3  1  0.44108492  0.09812510  0.33168775  1
  Al  Al4  1  0.11928078  0.09686346  0.80250671  1
  Al  Al5  1  0.88664727  0.20366399  0.06239027  1
  Al  Al6  1  0.45012356  0.09532328  0.80211808  1
  Al  Al7  1  0.10693371  0.42945669  0.30965186  1
  Al  Al8  1  0.22904955  0.53002909  0.05775978  1
  Al  Al9  1  0.78128648  0.41741551  0.80289233  1
  Al  Al10  1  0.88988934  0.52780481  0.55433814  1
  Al  Al11  1  0.44371398  0.43024165  0.31154423  1
  Al  Al12  1  0.55742461  0.53078098  0.05805327  1
  Al  Al13  1  0.11590526  0.41806263  0.80523505  1
  Al  Al14  1  0.22611608  0.52523935  0.55807085  1
  Al  Al15  1  0.77039737  0.42857198  0.30907595  1
  Al  Al16  1  0.88923978  0.53680412  0.05606183  1
  Al  Al17  1  0.44593936  0.42605742  0.81054039  1
  Al  Al18  1  0.55228099  0.53423640  0.55727553  1
  Al  Al19  1  0.10468913  0.76765748  0.30787494  1
  Al  Al20  1  0.22115780  0.87527200  0.05927336  1
  Al  Al21  1  0.78043446  0.76063922  0.80704362  1
  Al  Al22  1  0.88249872  0.88555575  0.55218979  1
  Al  Al23  1  0.44028965  0.76587038  0.30719054  1
  Al  Al24  1  0.55566940  0.88159781  0.05990667  1
  Al  Al25  1  0.11131595  0.76230598  0.80715848  1
  Al  Al26  1  0.22761940  0.87690166  0.55924212  1
  Al  Al27  1  0.77225512  0.76920922  0.30672043  1
  Al  Al28  1  0.88417812  0.87863735  0.06107846  1
  Al  Al29  1  0.44749953  0.76124444  0.81069135  1
  Al  Al30  1  0.56131189  0.87704183  0.56128279  1
  B  B31  1  0.81953859  0.23156722  0.53456281  1
  B  B32  1  0.55906003  0.20204892  0.15465669  1
  B  B33  1  0.17559863  0.22475450  0.54693017  1
  B  B34  1  0.77368804  0.09317312  0.30581638  1
  B  B35  1  0.56016901  0.20668606  0.62663866  1
  N  N36  1  0.20933050  0.21187592  0.39176097  1
  N  N37  1  0.10840534  0.09892789  0.12889001  1
  N  N38  1  0.89865006  0.19955871  0.87051640  1
  N  N39  1  0.76413417  0.12210337  0.60723030  1
  N  N40  1  0.57709214  0.19585092  0.31941462  1
  N  N41  1  0.45237354  0.10626790  0.13144951  1
  N  N42  1  0.23195401  0.20071405  0.87305177  1
  N  N43  1  0.14447004  0.10120943  0.61347621  1
  N  N44  1  0.86117490  0.20103337  0.38246000  1
  N  N45  1  0.76683576  0.10144636  0.13959123  1
  N  N46  1  0.56368717  0.20413760  0.83868279  1
  N  N47  1  0.48393242  0.09910929  0.61115188  1
  N  N48  1  0.21899959  0.54012610  0.36815786  1
  N  N49  1  0.10950483  0.42775656  0.11977851  1
  N  N50  1  0.89111995  0.53303918  0.86162107  1
  N  N51  1  0.78262408  0.39783058  0.60290744  1
  N  N52  1  0.55006253  0.54381508  0.36837885  1
  N  N53  1  0.45454575  0.40590392  0.11931314  1
  N  N54  1  0.22213157  0.53690869  0.86405752  1
  N  N55  1  0.11669391  0.40075519  0.61008310  1
  N  N56  1  0.88433040  0.54092464  0.36549739  1
  N  N57  1  0.77668009  0.42715288  0.11968850  1
  N  N58  1  0.55983699  0.53578548  0.86594419  1
  N  N59  1  0.45381265  0.40533714  0.61340783  1
  N  N60  1  0.21960975  0.87333121  0.36955247  1
  N  N61  1  0.11123784  0.75977625  0.11652070  1
  N  N62  1  0.88974697  0.87474994  0.86759896  1
  N  N63  1  0.78769497  0.75333664  0.61501796  1
  N  N64  1  0.55385558  0.87125070  0.37155090  1
  N  N65  1  0.44420561  0.76203141  0.11581716  1
  N  N66  1  0.22364662  0.87322196  0.86666630  1
  N  N67  1  0.11027498  0.76236805  0.61447587  1
  N  N68  1  0.87298778  0.90003530  0.35980857  1
  N  N69  1  0.77725923  0.76139929  0.11621008  1
  N  N70  1  0.55853271  0.87305234  0.86800625  1
  N  N71  1  0.45148419  0.75724008  0.61973830  1
