# generated using pymatgen
data_Al31B5N36
_symmetry_space_group_name_H-M   'P 1'
_cell_length_a   9.42164045
_cell_length_b   9.14435498
_cell_length_c   10.00127769
_cell_angle_alpha   90.11786940
_cell_angle_beta   90.52676894
_cell_angle_gamma   61.00786517
_symmetry_Int_Tables_number   1
_chemical_formula_structural   Al31B5N36
_chemical_formula_sum   'Al31 B5 N36'
_cell_volume   753.64600318
_cell_formula_units_Z   1
loop_
 _symmetry_equiv_pos_site_id
 _symmetry_equiv_pos_as_xyz
  1  'x, y, z'
loop_
 _atom_site_type_symbol
 _atom_site_label
 _atom_site_symmetry_multiplicity
 _atom_site_fract_x
 _atom_site_fract_y
 _atom_site_fract_z
 _atom_site_occupancy
  Al  Al0  1  0.12201139  0.08717339  0.33501720  1
  Al  Al1  1  0.21761496  0.20686229  0.08306181  1
  Al  Al2  1  0.77526672  0.09519708  0.88624510  1
  Al  Al3  1  0.45251173  0.09779713  0.41103058  1
  Al  Al4  1  0.11366750  0.10294063  0.81201686  1
  Al  Al5  1  0.88061204  0.20281027  0.15112047  1
  Al  Al6  1  0.44497660  0.09896836  0.89594604  1
  Al  Al7  1  0.10116980  0.43595680  0.40301392  1
  Al  Al8  1  0.21950016  0.53656228  0.15859276  1
  Al  Al9  1  0.77429319  0.42389932  0.89898166  1
  Al  Al10  1  0.88736919  0.52801117  0.65510691  1
  Al  Al11  1  0.44388336  0.41811779  0.40197864  1
  Al  Al12  1  0.55394837  0.53056650  0.15187604  1
  Al  Al13  1  0.10007698  0.43937118  0.90422966  1
  Al  Al14  1  0.22630945  0.51748625  0.64950818  1
  Al  Al15  1  0.77718545  0.41550401  0.40437340  1
  Al  Al16  1  0.88198405  0.54340450  0.15372305  1
  Al  Al17  1  0.44030999  0.42273499  0.90303599  1
  Al  Al18  1  0.55495217  0.52622388  0.65555748  1
  Al  Al19  1  0.11108838  0.76797661  0.35200757  1
  Al  Al20  1  0.21181545  0.87847073  0.08098748  1
  Al  Al21  1  0.77607672  0.76587596  0.90415107  1
  Al  Al22  1  0.89035612  0.87622606  0.63861757  1
  Al  Al23  1  0.45840965  0.75243220  0.40128897  1
  Al  Al24  1  0.55293984  0.88286054  0.15361461  1
  Al  Al25  1  0.11085125  0.76557086  0.83006722  1
  Al  Al26  1  0.23120262  0.87372180  0.58330707  1
  Al  Al27  1  0.77479850  0.77130837  0.40410274  1
  Al  Al28  1  0.87839299  0.89193747  0.15181039  1
  Al  Al29  1  0.44671923  0.76086906  0.90084911  1
  Al  Al30  1  0.56611701  0.87354058  0.65425180  1
  B  B31  1  0.84094449  0.22752951  0.65164554  1
  B  B32  1  0.48718873  0.23727208  0.16552003  1
  B  B33  1  0.17032664  0.22181062  0.56120024  1
  B  B34  1  0.85389382  0.07116773  0.42539147  1
  B  B35  1  0.50814182  0.22374158  0.66505900  1
  N  N36  1  0.21744403  0.20208522  0.41266634  1
  N  N37  1  0.11555479  0.09654461  0.14827886  1
  N  N38  1  0.87474375  0.21143652  0.80333431  1
  N  N39  1  0.83890813  0.09154742  0.57149200  1
  N  N40  1  0.51047914  0.22490734  0.30734366  1
  N  N41  1  0.44970279  0.11220006  0.09196257  1
  N  N42  1  0.21609326  0.20735196  0.89380220  1
  N  N43  1  0.15814889  0.09485379  0.63264221  1
  N  N44  1  0.88639096  0.18994229  0.34537652  1
  N  N45  1  0.79115951  0.09298645  0.06788799  1
  N  N46  1  0.54786366  0.21063699  0.81661849  1
  N  N47  1  0.50057928  0.09189873  0.59456630  1
  N  N48  1  0.21987375  0.53751075  0.35339928  1
  N  N49  1  0.09845983  0.43939420  0.09825200  1
  N  N50  1  0.88307576  0.54021556  0.84449909  1
  N  N51  1  0.77925761  0.40295787  0.59622156  1
  N  N52  1  0.55845516  0.52920865  0.34375355  1
  N  N53  1  0.44015687  0.40948907  0.09531872  1
  N  N54  1  0.22344815  0.53249825  0.84202637  1
  N  N55  1  0.10538957  0.40803525  0.59630756  1
  N  N56  1  0.88284651  0.54027618  0.34512749  1
  N  N57  1  0.77441032  0.42632483  0.09089703  1
  N  N58  1  0.55207739  0.53568813  0.84543421  1
  N  N59  1  0.45084388  0.39770614  0.59775979  1
  N  N60  1  0.23076937  0.86979551  0.39343399  1
  N  N61  1  0.10712143  0.76666921  0.14407312  1
  N  N62  1  0.88314471  0.87327246  0.82957067  1
  N  N63  1  0.78515499  0.75105882  0.59118760  1
  N  N64  1  0.55662245  0.87612397  0.34365194  1
  N  N65  1  0.44585454  0.75999131  0.09403692  1
  N  N66  1  0.21458759  0.88241748  0.88612157  1
  N  N67  1  0.12197353  0.75285702  0.62730799  1
  N  N68  1  0.87929800  0.90590341  0.35972628  1
  N  N69  1  0.77345069  0.76910589  0.09695976  1
  N  N70  1  0.55633277  0.87393390  0.84442787  1
  N  N71  1  0.46324465  0.74808788  0.59451060  1
