# generated using pymatgen
data_Al31B5N36
_symmetry_space_group_name_H-M   'P 1'
_cell_length_a   9.29659810
_cell_length_b   9.17387501
_cell_length_c   10.06587974
_cell_angle_alpha   89.76425815
_cell_angle_beta   90.40071289
_cell_angle_gamma   60.09030779
_symmetry_Int_Tables_number   1
_chemical_formula_structural   Al31B5N36
_chemical_formula_sum   'Al31 B5 N36'
_cell_volume   744.09161514
_cell_formula_units_Z   1
loop_
 _symmetry_equiv_pos_site_id
 _symmetry_equiv_pos_as_xyz
  1  'x, y, z'
loop_
 _atom_site_type_symbol
 _atom_site_label
 _atom_site_symmetry_multiplicity
 _atom_site_fract_x
 _atom_site_fract_y
 _atom_site_fract_z
 _atom_site_occupancy
  Al  Al0  1  0.11153809  0.09074994  0.32747042  1
  Al  Al1  1  0.22070127  0.20976622  0.07299207  1
  Al  Al2  1  0.76746665  0.10260476  0.86268235  1
  Al  Al3  1  0.46024463  0.09599144  0.39813177  1
  Al  Al4  1  0.11640991  0.09920280  0.80108026  1
  Al  Al5  1  0.87368807  0.20574440  0.13711356  1
  Al  Al6  1  0.45080866  0.09570840  0.88630319  1
  Al  Al7  1  0.11451207  0.42502293  0.32667720  1
  Al  Al8  1  0.21897357  0.53665783  0.07341501  1
  Al  Al9  1  0.77911640  0.42719999  0.88625839  1
  Al  Al10  1  0.88464109  0.53109035  0.63508846  1
  Al  Al11  1  0.45941694  0.41056907  0.38545903  1
  Al  Al12  1  0.55483980  0.53378956  0.13862237  1
  Al  Al13  1  0.12225796  0.41700728  0.81517485  1
  Al  Al14  1  0.21933881  0.53148204  0.56779340  1
  Al  Al15  1  0.77690816  0.41127932  0.39507408  1
  Al  Al16  1  0.88083173  0.53920277  0.14278456  1
  Al  Al17  1  0.45033870  0.42019290  0.88901894  1
  Al  Al18  1  0.55251117  0.53086193  0.64096255  1
  Al  Al19  1  0.10418101  0.76897285  0.31900384  1
  Al  Al20  1  0.21286277  0.88075168  0.06787498  1
  Al  Al21  1  0.77665132  0.75455628  0.88619279  1
  Al  Al22  1  0.88562478  0.89350338  0.57152066  1
  Al  Al23  1  0.45232205  0.75531497  0.38773199  1
  Al  Al24  1  0.55456429  0.88065132  0.14069453  1
  Al  Al25  1  0.10919779  0.76256941  0.81467359  1
  Al  Al26  1  0.22453247  0.87832275  0.56920945  1
  Al  Al27  1  0.77211517  0.76339406  0.38913418  1
  Al  Al28  1  0.88495482  0.87826074  0.06709970  1
  Al  Al29  1  0.44574325  0.76187086  0.88658502  1
  Al  Al30  1  0.56144771  0.87937736  0.63897572  1
  B  B31  1  0.82918579  0.23528696  0.65203000  1
  B  B32  1  0.56147273  0.20337348  0.13223796  1
  B  B33  1  0.17841024  0.22507504  0.55606456  1
  B  B34  1  0.77528004  0.09606456  0.35642070  1
  B  B35  1  0.52877159  0.21938499  0.64449445  1
  N  N36  1  0.21337503  0.20967167  0.40336657  1
  N  N37  1  0.11215153  0.09770999  0.13691061  1
  N  N38  1  0.87788878  0.21587025  0.80286542  1
  N  N39  1  0.78660227  0.11965470  0.59627566  1
  N  N40  1  0.58393342  0.18977581  0.30804962  1
  N  N41  1  0.46254675  0.10870009  0.08236488  1
  N  N42  1  0.21773694  0.20462751  0.88690906  1
  N  N43  1  0.15768712  0.09677505  0.62071940  1
  N  N44  1  0.87012753  0.18917968  0.32758603  1
  N  N45  1  0.74627642  0.11545113  0.06738114  1
  N  N46  1  0.54386010  0.21244482  0.80182951  1
  N  N47  1  0.49458446  0.09705799  0.57969670  1
  N  N48  1  0.21915236  0.54210382  0.37889526  1
  N  N49  1  0.11416382  0.42536783  0.13813059  1
  N  N50  1  0.88852719  0.53680294  0.82449896  1
  N  N51  1  0.78085011  0.40454926  0.58535260  1
  N  N52  1  0.55728158  0.53380108  0.32789892  1
  N  N53  1  0.45927506  0.40066423  0.08392870  1
  N  N54  1  0.21727800  0.54039744  0.88041394  1
  N  N55  1  0.12290929  0.39850950  0.61999695  1
  N  N56  1  0.87962424  0.53549270  0.33537830  1
  N  N57  1  0.77717842  0.42577052  0.07457707  1
  N  N58  1  0.55316780  0.53842938  0.82925107  1
  N  N59  1  0.45623030  0.40015203  0.58183056  1
  N  N60  1  0.22021266  0.87051795  0.38023546  1
  N  N61  1  0.10696222  0.76459868  0.13038962  1
  N  N62  1  0.89170315  0.87101104  0.87289225  1
  N  N63  1  0.78560271  0.75446947  0.57816750  1
  N  N64  1  0.55082416  0.87765830  0.32843879  1
  N  N65  1  0.44684467  0.76117511  0.07925973  1
  N  N66  1  0.21139744  0.88173787  0.87542586  1
  N  N67  1  0.11476601  0.75961353  0.62668225  1
  N  N68  1  0.87292502  0.90289602  0.37077482  1
  N  N69  1  0.77364440  0.75757970  0.07940912  1
  N  N70  1  0.55511356  0.87377036  0.82747161  1
  N  N71  1  0.46033627  0.75225154  0.57871249  1
