# generated using pymatgen
data_Al31B5N36
_symmetry_space_group_name_H-M   'P 1'
_cell_length_a   9.27507581
_cell_length_b   9.15795409
_cell_length_c   10.18394656
_cell_angle_alpha   89.31479862
_cell_angle_beta   90.12240287
_cell_angle_gamma   59.87642643
_symmetry_Int_Tables_number   1
_chemical_formula_structural   Al31B5N36
_chemical_formula_sum   'Al31 B5 N36'
_cell_volume   748.11825986
_cell_formula_units_Z   1
loop_
 _symmetry_equiv_pos_site_id
 _symmetry_equiv_pos_as_xyz
  1  'x, y, z'
loop_
 _atom_site_type_symbol
 _atom_site_label
 _atom_site_symmetry_multiplicity
 _atom_site_fract_x
 _atom_site_fract_y
 _atom_site_fract_z
 _atom_site_occupancy
  Al  Al0  1  0.10696200  0.09079105  0.32728988  1
  Al  Al1  1  0.22346591  0.20815088  0.07173792  1
  Al  Al2  1  0.78083875  0.09303160  0.79580677  1
  Al  Al3  1  0.45283383  0.09779598  0.40094388  1
  Al  Al4  1  0.11922170  0.09890656  0.80974227  1
  Al  Al5  1  0.87943042  0.20922369  0.13943550  1
  Al  Al6  1  0.45726416  0.09363815  0.88898033  1
  Al  Al7  1  0.11264085  0.42523501  0.32618376  1
  Al  Al8  1  0.22101926  0.53477332  0.07189366  1
  Al  Al9  1  0.78077037  0.42925448  0.88822271  1
  Al  Al10  1  0.88250611  0.53769823  0.63623072  1
  Al  Al11  1  0.45603493  0.41162036  0.38720462  1
  Al  Al12  1  0.55529845  0.53224286  0.14119829  1
  Al  Al13  1  0.12277402  0.41812749  0.81530325  1
  Al  Al14  1  0.21672257  0.53312855  0.56648786  1
  Al  Al15  1  0.77824328  0.40925955  0.39626640  1
  Al  Al16  1  0.88127174  0.53921520  0.14318394  1
  Al  Al17  1  0.45502957  0.41760616  0.89018611  1
  Al  Al18  1  0.55883546  0.52545867  0.64185157  1
  Al  Al19  1  0.10298264  0.76794717  0.31539572  1
  Al  Al20  1  0.21518350  0.87819294  0.06593906  1
  Al  Al21  1  0.77753241  0.75802264  0.88956211  1
  Al  Al22  1  0.88931094  0.89524502  0.55407284  1
  Al  Al23  1  0.44864238  0.75634322  0.39163708  1
  Al  Al24  1  0.55439937  0.87897530  0.14168742  1
  Al  Al25  1  0.10680901  0.76384296  0.81505184  1
  Al  Al26  1  0.21524157  0.88201119  0.57154800  1
  Al  Al27  1  0.76977030  0.76380888  0.38514425  1
  Al  Al28  1  0.88381307  0.88177669  0.06883045  1
  Al  Al29  1  0.44965331  0.75892417  0.88637791  1
  Al  Al30  1  0.56329575  0.87798863  0.64001779  1
  B  B31  1  0.87967142  0.21989926  0.64977820  1
  B  B32  1  0.55190809  0.20400995  0.14553023  1
  B  B33  1  0.16149204  0.23435048  0.55660657  1
  B  B34  1  0.77115662  0.09010795  0.29845359  1
  B  B35  1  0.50622976  0.22870369  0.64675203  1
  N  N36  1  0.20430242  0.21096821  0.40902616  1
  N  N37  1  0.11767795  0.09395362  0.13705930  1
  N  N38  1  0.88746654  0.21938469  0.81486353  1
  N  N39  1  0.82375240  0.09989251  0.61937662  1
  N  N40  1  0.56017966  0.19886241  0.30626594  1
  N  N41  1  0.46465767  0.10643431  0.08097415  1
  N  N42  1  0.22299909  0.20402895  0.88671105  1
  N  N43  1  0.11853106  0.11542558  0.62177143  1
  N  N44  1  0.86892752  0.19382420  0.32596208  1
  N  N45  1  0.75597661  0.09739675  0.13666102  1
  N  N46  1  0.54202187  0.21366770  0.79812161  1
  N  N47  1  0.48878671  0.09921149  0.58138589  1
  N  N48  1  0.21565908  0.54255759  0.38031186  1
  N  N49  1  0.11696435  0.42264591  0.13940756  1
  N  N50  1  0.88834947  0.54239394  0.82382499  1
  N  N51  1  0.78937710  0.40308273  0.58524226  1
  N  N52  1  0.55485469  0.53468227  0.33018859  1
  N  N53  1  0.46366025  0.39671426  0.08233437  1
  N  N54  1  0.21845983  0.53997054  0.88128313  1
  N  N55  1  0.12142051  0.39964606  0.62128975  1
  N  N56  1  0.87730888  0.53649518  0.33239411  1
  N  N57  1  0.77694185  0.42709487  0.07396187  1
  N  N58  1  0.55610101  0.53658638  0.82799940  1
  N  N59  1  0.45580223  0.39961112  0.58161491  1
  N  N60  1  0.21525803  0.87097588  0.38430506  1
  N  N61  1  0.10995945  0.76209304  0.12900476  1
  N  N62  1  0.88636144  0.88343068  0.88003729  1
  N  N63  1  0.78434359  0.75908445  0.57291963  1
  N  N64  1  0.54514231  0.87993056  0.32843417  1
  N  N65  1  0.44945081  0.75875157  0.07758168  1
  N  N66  1  0.21507926  0.87823953  0.87459067  1
  N  N67  1  0.11340069  0.75582029  0.62808969  1
  N  N68  1  0.87001340  0.90205758  0.36170981  1
  N  N69  1  0.77443150  0.75726418  0.07872410  1
  N  N70  1  0.55727833  0.87346889  0.82669988  1
  N  N71  1  0.45549245  0.75611401  0.58162105  1
