# generated using pymatgen
data_Al31B5N36
_symmetry_space_group_name_H-M   'P 1'
_cell_length_a   9.42631555
_cell_length_b   9.14627732
_cell_length_c   9.98129671
_cell_angle_alpha   90.12022882
_cell_angle_beta   90.56783777
_cell_angle_gamma   60.99200462
_symmetry_Int_Tables_number   1
_chemical_formula_structural   Al31B5N36
_chemical_formula_sum   'Al31 B5 N36'
_cell_volume   752.55033652
_cell_formula_units_Z   1
loop_
 _symmetry_equiv_pos_site_id
 _symmetry_equiv_pos_as_xyz
  1  'x, y, z'
loop_
 _atom_site_type_symbol
 _atom_site_label
 _atom_site_symmetry_multiplicity
 _atom_site_fract_x
 _atom_site_fract_y
 _atom_site_fract_z
 _atom_site_occupancy
  Al  Al0  1  0.12179367  0.08602422  0.33473390  1
  Al  Al1  1  0.21768822  0.20716987  0.08340035  1
  Al  Al2  1  0.77438488  0.09611981  0.88651716  1
  Al  Al3  1  0.45228459  0.09800009  0.41076126  1
  Al  Al4  1  0.11352394  0.10342995  0.81150235  1
  Al  Al5  1  0.88018681  0.20264404  0.15079196  1
  Al  Al6  1  0.44492188  0.09907917  0.89593671  1
  Al  Al7  1  0.10149798  0.43542163  0.40120207  1
  Al  Al8  1  0.21688320  0.54149146  0.15744739  1
  Al  Al9  1  0.77438043  0.42383082  0.89889860  1
  Al  Al10  1  0.88751336  0.52806766  0.65452121  1
  Al  Al11  1  0.44324352  0.41872621  0.40102392  1
  Al  Al12  1  0.55383501  0.53041423  0.15155096  1
  Al  Al13  1  0.10009924  0.43896386  0.90415227  1
  Al  Al14  1  0.22448908  0.52037163  0.65001355  1
  Al  Al15  1  0.77713099  0.41550268  0.40409687  1
  Al  Al16  1  0.88204898  0.54333472  0.15347310  1
  Al  Al17  1  0.44007095  0.42310965  0.90282499  1
  Al  Al18  1  0.55509828  0.52581867  0.65527909  1
  Al  Al19  1  0.10979014  0.76267310  0.39699554  1
  Al  Al20  1  0.21465485  0.87939432  0.08149008  1
  Al  Al21  1  0.77570102  0.76569116  0.90460942  1
  Al  Al22  1  0.89357550  0.87429227  0.64089019  1
  Al  Al23  1  0.45820142  0.75258871  0.40055640  1
  Al  Al24  1  0.55376585  0.88305332  0.15350068  1
  Al  Al25  1  0.10553267  0.76482541  0.86970644  1
  Al  Al26  1  0.23371119  0.87479410  0.58586717  1
  Al  Al27  1  0.77474261  0.77143438  0.40353600  1
  Al  Al28  1  0.88330309  0.88917145  0.15154128  1
  Al  Al29  1  0.44735839  0.76087738  0.89979201  1
  Al  Al30  1  0.56689730  0.87370154  0.65396477  1
  B  B31  1  0.84102525  0.22714280  0.65140455  1
  B  B32  1  0.48696187  0.23776963  0.16522610  1
  B  B33  1  0.17017547  0.22269243  0.56045671  1
  B  B34  1  0.85401536  0.07114933  0.42456918  1
  B  B35  1  0.50740000  0.22431904  0.66469223  1
  N  N36  1  0.21734117  0.20194640  0.41178329  1
  N  N37  1  0.11518718  0.09666716  0.14780743  1
  N  N38  1  0.87469063  0.21129009  0.80336343  1
  N  N39  1  0.83938697  0.09050154  0.57127229  1
  N  N40  1  0.51039713  0.22509741  0.30744869  1
  N  N41  1  0.44960912  0.11228346  0.09196097  1
  N  N42  1  0.21627313  0.20763298  0.89347068  1
  N  N43  1  0.15731588  0.09623466  0.63205941  1
  N  N44  1  0.88615631  0.19015486  0.34519364  1
  N  N45  1  0.79043686  0.09268282  0.06838532  1
  N  N46  1  0.54752216  0.21103233  0.81649424  1
  N  N47  1  0.50004365  0.09226110  0.59449437  1
  N  N48  1  0.21797006  0.54032644  0.34944133  1
  N  N49  1  0.09863895  0.43894128  0.09861320  1
  N  N50  1  0.88311514  0.54025388  0.84433639  1
  N  N51  1  0.77925421  0.40271898  0.59612666  1
  N  N52  1  0.55846982  0.52921109  0.34371426  1
  N  N53  1  0.43953782  0.40980374  0.09515733  1
  N  N54  1  0.22197191  0.53487936  0.84004828  1
  N  N55  1  0.10560981  0.40845317  0.59550882  1
  N  N56  1  0.88261055  0.54025033  0.34521013  1
  N  N57  1  0.77433080  0.42627194  0.09087803  1
  N  N58  1  0.55228169  0.53547511  0.84534692  1
  N  N59  1  0.44967376  0.39851961  0.59744616  1
  N  N60  1  0.23158210  0.86899684  0.39138832  1
  N  N61  1  0.10502530  0.76280916  0.10796309  1
  N  N62  1  0.88421902  0.87291278  0.82955255  1
  N  N63  1  0.78556393  0.75162226  0.59128891  1
  N  N64  1  0.55671440  0.87626802  0.34377505  1
  N  N65  1  0.44678540  0.76008080  0.09374037  1
  N  N66  1  0.21710752  0.88320970  0.88170145  1
  N  N67  1  0.11995597  0.74974261  0.60261337  1
  N  N68  1  0.88261712  0.90398694  0.35740779  1
  N  N69  1  0.77365779  0.76911752  0.09733007  1
  N  N70  1  0.55692314  0.87413632  0.84430033  1
  N  N71  1  0.46396067  0.74794932  0.59471497  1
