# generated using pymatgen
data_Al31B5N36
_symmetry_space_group_name_H-M   'P 1'
_cell_length_a   9.28079518
_cell_length_b   9.15680230
_cell_length_c   10.18641993
_cell_angle_alpha   89.33824278
_cell_angle_beta   90.16197405
_cell_angle_gamma   59.89581700
_symmetry_Int_Tables_number   1
_chemical_formula_structural   Al31B5N36
_chemical_formula_sum   'Al31 B5 N36'
_cell_volume   748.81375898
_cell_formula_units_Z   1
loop_
 _symmetry_equiv_pos_site_id
 _symmetry_equiv_pos_as_xyz
  1  'x, y, z'
loop_
 _atom_site_type_symbol
 _atom_site_label
 _atom_site_symmetry_multiplicity
 _atom_site_fract_x
 _atom_site_fract_y
 _atom_site_fract_z
 _atom_site_occupancy
  Al  Al0  1  0.10756787  0.09077957  0.32785799  1
  Al  Al1  1  0.22312458  0.20826269  0.07202807  1
  Al  Al2  1  0.78019301  0.09182392  0.79670522  1
  Al  Al3  1  0.45294808  0.09772503  0.40059049  1
  Al  Al4  1  0.11989579  0.09898574  0.80722135  1
  Al  Al5  1  0.87964744  0.20896478  0.14029252  1
  Al  Al6  1  0.45631991  0.09399365  0.88905198  1
  Al  Al7  1  0.11267611  0.42515766  0.32627632  1
  Al  Al8  1  0.22091818  0.53479615  0.07190475  1
  Al  Al9  1  0.78042603  0.42996610  0.88804063  1
  Al  Al10  1  0.88311052  0.53727963  0.63610366  1
  Al  Al11  1  0.45577498  0.41170778  0.38718353  1
  Al  Al12  1  0.55543464  0.53193534  0.14093777  1
  Al  Al13  1  0.12283160  0.41816338  0.81514652  1
  Al  Al14  1  0.21624191  0.53352944  0.56657956  1
  Al  Al15  1  0.77805357  0.40898694  0.39626627  1
  Al  Al16  1  0.88134353  0.53889750  0.14318847  1
  Al  Al17  1  0.45471691  0.41779660  0.89024701  1
  Al  Al18  1  0.55715693  0.52689500  0.64196150  1
  Al  Al19  1  0.10320091  0.76792157  0.31544431  1
  Al  Al20  1  0.21497262  0.87842235  0.06610678  1
  Al  Al21  1  0.77719980  0.75811391  0.88960237  1
  Al  Al22  1  0.88912707  0.89544566  0.55386958  1
  Al  Al23  1  0.44913278  0.75589111  0.39109743  1
  Al  Al24  1  0.55441229  0.87889708  0.14168897  1
  Al  Al25  1  0.10700538  0.76405115  0.81511457  1
  Al  Al26  1  0.21750123  0.88128263  0.57123213  1
  Al  Al27  1  0.76983594  0.76359029  0.38524368  1
  Al  Al28  1  0.88393370  0.88141470  0.06930279  1
  Al  Al29  1  0.44895621  0.75955206  0.88651351  1
  Al  Al30  1  0.56294493  0.87821883  0.63978833  1
  B  B31  1  0.86571078  0.22683101  0.65299332  1
  B  B32  1  0.55188876  0.20395654  0.14554539  1
  B  B33  1  0.16537628  0.23162251  0.55694697  1
  B  B34  1  0.77109215  0.09003347  0.29860382  1
  B  B35  1  0.50572300  0.22899980  0.64660683  1
  N  N36  1  0.20542053  0.21104496  0.40811741  1
  N  N37  1  0.11744737  0.09404248  0.13742630  1
  N  N38  1  0.88588981  0.22099594  0.81164365  1
  N  N39  1  0.82169173  0.10082498  0.61939937  1
  N  N40  1  0.56048921  0.19877686  0.30620644  1
  N  N41  1  0.46451977  0.10640445  0.08104216  1
  N  N42  1  0.22210389  0.20450306  0.88726503  1
  N  N43  1  0.13299539  0.10859613  0.62239540  1
  N  N44  1  0.86923523  0.19345324  0.32650261  1
  N  N45  1  0.75603490  0.09732704  0.13667460  1
  N  N46  1  0.54181146  0.21366391  0.79822527  1
  N  N47  1  0.49022013  0.09901356  0.58085114  1
  N  N48  1  0.21557844  0.54270550  0.38039824  1
  N  N49  1  0.11671573  0.42295887  0.13945817  1
  N  N50  1  0.88827395  0.54256711  0.82372125  1
  N  N51  1  0.78774192  0.40364108  0.58554012  1
  N  N52  1  0.55512118  0.53417048  0.32980907  1
  N  N53  1  0.46358352  0.39660285  0.08223346  1
  N  N54  1  0.21840318  0.54020970  0.88127131  1
  N  N55  1  0.12157123  0.39968238  0.62136213  1
  N  N56  1  0.87725926  0.53607882  0.33260852  1
  N  N57  1  0.77727440  0.42635649  0.07358703  1
  N  N58  1  0.55567165  0.53698184  0.82810272  1
  N  N59  1  0.45540872  0.40010013  0.58173567  1
  N  N60  1  0.21590322  0.87051809  0.38395751  1
  N  N61  1  0.10991659  0.76205763  0.12909747  1
  N  N62  1  0.88662974  0.88308938  0.88041920  1
  N  N63  1  0.78446232  0.75899481  0.57300895  1
  N  N64  1  0.54559144  0.87959605  0.32830560  1
  N  N65  1  0.44938564  0.75865161  0.07760180  1
  N  N66  1  0.21427493  0.87910942  0.87502694  1
  N  N67  1  0.11311389  0.75696064  0.62801236  1
  N  N68  1  0.87013232  0.90196586  0.36176907  1
  N  N69  1  0.77434409  0.75704980  0.07874320  1
  N  N70  1  0.55698654  0.87370671  0.82662747  1
  N  N71  1  0.45704687  0.75477643  0.58085287  1
