# generated using pymatgen
data_Al31B5N36
_symmetry_space_group_name_H-M   'P 1'
_cell_length_a   9.35431318
_cell_length_b   9.14406241
_cell_length_c   9.80971437
_cell_angle_alpha   90.30372010
_cell_angle_beta   90.85377128
_cell_angle_gamma   60.59982191
_symmetry_Int_Tables_number   1
_chemical_formula_structural   Al31B5N36
_chemical_formula_sum   'Al31 B5 N36'
_cell_volume   730.94056085
_cell_formula_units_Z   1
loop_
 _symmetry_equiv_pos_site_id
 _symmetry_equiv_pos_as_xyz
  1  'x, y, z'
loop_
 _atom_site_type_symbol
 _atom_site_label
 _atom_site_symmetry_multiplicity
 _atom_site_fract_x
 _atom_site_fract_y
 _atom_site_fract_z
 _atom_site_occupancy
  Al  Al0  1  0.12239935  0.09488000  0.42153254  1
  Al  Al1  1  0.22250415  0.20725633  0.15919835  1
  Al  Al2  1  0.75895536  0.10176540  0.90166225  1
  Al  Al3  1  0.45495337  0.10083456  0.40881335  1
  Al  Al4  1  0.09766748  0.09829948  0.89714131  1
  Al  Al5  1  0.87880543  0.20287465  0.16247501  1
  Al  Al6  1  0.43395783  0.10160821  0.90087558  1
  Al  Al7  1  0.11341852  0.41959309  0.41617279  1
  Al  Al8  1  0.22094415  0.53636660  0.16422568  1
  Al  Al9  1  0.77123408  0.42767475  0.91002177  1
  Al  Al10  1  0.88760738  0.52951532  0.66367586  1
  Al  Al11  1  0.44938050  0.41265064  0.40656569  1
  Al  Al12  1  0.55390138  0.53302100  0.16319671  1
  Al  Al13  1  0.10314643  0.43179109  0.91119334  1
  Al  Al14  1  0.22387140  0.52738228  0.66387056  1
  Al  Al15  1  0.77904035  0.41512678  0.41521430  1
  Al  Al16  1  0.88623298  0.53960894  0.16501210  1
  Al  Al17  1  0.43887292  0.42634198  0.91253730  1
  Al  Al18  1  0.55458978  0.52697175  0.66250675  1
  Al  Al19  1  0.11625111  0.76185048  0.41429253  1
  Al  Al20  1  0.21850071  0.87748819  0.16157286  1
  Al  Al21  1  0.77332000  0.76545575  0.91381614  1
  Al  Al22  1  0.89750576  0.87445549  0.65830448  1
  Al  Al23  1  0.44994552  0.75907982  0.41167314  1
  Al  Al24  1  0.55268370  0.88283743  0.16110881  1
  Al  Al25  1  0.10466741  0.76512243  0.91380162  1
  Al  Al26  1  0.23182609  0.87324717  0.66273533  1
  Al  Al27  1  0.77859059  0.76897318  0.41420601  1
  Al  Al28  1  0.87508723  0.89166669  0.16695157  1
  Al  Al29  1  0.44091212  0.76301812  0.91251639  1
  Al  Al30  1  0.56224297  0.87789475  0.65997002  1
  B  B31  1  0.84612912  0.22290439  0.66715237  1
  B  B32  1  0.53904051  0.21630440  0.16357439  1
  B  B33  1  0.17248609  0.22682958  0.67812636  1
  B  B34  1  0.84813405  0.07219888  0.43407777  1
  B  B35  1  0.50292051  0.22730682  0.67115181  1
  N  N36  1  0.22789619  0.20209394  0.34976187  1
  N  N37  1  0.09944967  0.10169674  0.09359730  1
  N  N38  1  0.87311481  0.20828902  0.82475633  1
  N  N39  1  0.83692077  0.09039628  0.58492818  1
  N  N40  1  0.54217761  0.21212489  0.31666562  1
  N  N41  1  0.44480520  0.11224477  0.09597921  1
  N  N42  1  0.20857761  0.21256549  0.83340383  1
  N  N43  1  0.14964597  0.09921494  0.61088792  1
  N  N44  1  0.89513026  0.18627655  0.35788953  1
  N  N45  1  0.74462661  0.11390950  0.09608635  1
  N  N46  1  0.54081295  0.21276946  0.82553060  1
  N  N47  1  0.48763754  0.09897971  0.59977129  1
  N  N48  1  0.21920550  0.53867680  0.35835865  1
  N  N49  1  0.10382648  0.43089880  0.10234209  1
  N  N50  1  0.88212684  0.54030805  0.85530395  1
  N  N51  1  0.78232281  0.40024163  0.61035208  1
  N  N52  1  0.55824745  0.53251645  0.35728951  1
  N  N53  1  0.44656218  0.41048728  0.10469615  1
  N  N54  1  0.21773173  0.54010060  0.85590749  1
  N  N55  1  0.11444266  0.40182551  0.61368748  1
  N  N56  1  0.88913287  0.53599148  0.36011123  1
  N  N57  1  0.77380052  0.42718630  0.10401969  1
  N  N58  1  0.55031989  0.53795981  0.85479131  1
  N  N59  1  0.44898928  0.40018536  0.60633626  1
  N  N60  1  0.22743721  0.87283213  0.35602313  1
  N  N61  1  0.10162732  0.76689296  0.10836718  1
  N  N62  1  0.88436679  0.87654977  0.85096651  1
  N  N63  1  0.78635782  0.75481827  0.60526071  1
  N  N64  1  0.55909478  0.87332430  0.35430120  1
  N  N65  1  0.44090064  0.76329690  0.10587563  1
  N  N66  1  0.22042224  0.87160724  0.85413999  1
  N  N67  1  0.12196071  0.75253263  0.60611024  1
  N  N68  1  0.88584537  0.90126344  0.36721512  1
  N  N69  1  0.77491197  0.76606973  0.10892542  1
  N  N70  1  0.55244780  0.87477314  0.85343957  1
  N  N71  1  0.45446830  0.75364205  0.60476811  1
