# generated using pymatgen
data_Al31B5N36
_symmetry_space_group_name_H-M   'P 1'
_cell_length_a   9.27096337
_cell_length_b   9.15104522
_cell_length_c   9.92144687
_cell_angle_alpha   89.97928133
_cell_angle_beta   89.49339803
_cell_angle_gamma   60.11350989
_symmetry_Int_Tables_number   1
_chemical_formula_structural   Al31B5N36
_chemical_formula_sum   'Al31 B5 N36'
_cell_volume   729.75170688
_cell_formula_units_Z   1
loop_
 _symmetry_equiv_pos_site_id
 _symmetry_equiv_pos_as_xyz
  1  'x, y, z'
loop_
 _atom_site_type_symbol
 _atom_site_label
 _atom_site_symmetry_multiplicity
 _atom_site_fract_x
 _atom_site_fract_y
 _atom_site_fract_z
 _atom_site_occupancy
  Al  Al0  1  0.09767394  0.09879364  0.32257548  1
  Al  Al1  1  0.23017004  0.20446793  0.06214334  1
  Al  Al2  1  0.77602157  0.10017305  0.80906570  1
  Al  Al3  1  0.44305602  0.09885960  0.32873848  1
  Al  Al4  1  0.11932186  0.09664896  0.80216615  1
  Al  Al5  1  0.88475772  0.20387962  0.06198363  1
  Al  Al6  1  0.45448159  0.09820958  0.80659964  1
  Al  Al7  1  0.10767551  0.42938707  0.30966952  1
  Al  Al8  1  0.22812723  0.53077692  0.05693199  1
  Al  Al9  1  0.78157956  0.41692600  0.80299546  1
  Al  Al10  1  0.89036747  0.52785557  0.55414521  1
  Al  Al11  1  0.44673502  0.42597767  0.31228360  1
  Al  Al12  1  0.55726739  0.53125160  0.05726335  1
  Al  Al13  1  0.11663313  0.41742437  0.80492914  1
  Al  Al14  1  0.22650262  0.52496447  0.55799763  1
  Al  Al15  1  0.77077944  0.42867474  0.30887689  1
  Al  Al16  1  0.88907337  0.53695694  0.05580858  1
  Al  Al17  1  0.45026888  0.41808612  0.81257267  1
  Al  Al18  1  0.55295752  0.53404928  0.55716882  1
  Al  Al19  1  0.10485714  0.76735088  0.30775635  1
  Al  Al20  1  0.22046701  0.87570941  0.05880131  1
  Al  Al21  1  0.78070892  0.76031029  0.80684912  1
  Al  Al22  1  0.88274133  0.88526052  0.55210591  1
  Al  Al23  1  0.44025078  0.76582613  0.30736809  1
  Al  Al24  1  0.55576455  0.88128427  0.05895188  1
  Al  Al25  1  0.11152994  0.76206276  0.80700654  1
  Al  Al26  1  0.22767565  0.87679402  0.55877750  1
  Al  Al27  1  0.77220978  0.76936782  0.30695041  1
  Al  Al28  1  0.88214545  0.88020000  0.06080213  1
  Al  Al29  1  0.44738621  0.76090158  0.81033048  1
  Al  Al30  1  0.56130638  0.87727542  0.56174836  1
  B  B31  1  0.82080007  0.23282489  0.53406888  1
  B  B32  1  0.55562260  0.20537913  0.13775240  1
  B  B33  1  0.17535571  0.22480876  0.54617852  1
  B  B34  1  0.76813378  0.09499316  0.30735195  1
  B  B35  1  0.56200620  0.20587617  0.60078758  1
  N  N36  1  0.21103025  0.21125914  0.39131453  1
  N  N37  1  0.10723439  0.09936593  0.12878743  1
  N  N38  1  0.89826377  0.19860197  0.86984732  1
  N  N39  1  0.76056988  0.12465608  0.60550904  1
  N  N40  1  0.57776734  0.19546021  0.33640823  1
  N  N41  1  0.45274694  0.10800653  0.13039379  1
  N  N42  1  0.23243918  0.20008033  0.87273298  1
  N  N43  1  0.14421064  0.10135469  0.61280966  1
  N  N44  1  0.86224464  0.20196894  0.38281842  1
  N  N45  1  0.76042520  0.10476111  0.14099073  1
  N  N46  1  0.56402164  0.20302664  0.86774770  1
  N  N47  1  0.48818138  0.09873596  0.61524846  1
  N  N48  1  0.22057248  0.53925286  0.36803062  1
  N  N49  1  0.10940772  0.42805802  0.11976400  1
  N  N50  1  0.89153391  0.53258955  0.86152510  1
  N  N51  1  0.78345491  0.39816421  0.60315429  1
  N  N52  1  0.55019051  0.54359711  0.36821038  1
  N  N53  1  0.45456457  0.40548794  0.11994127  1
  N  N54  1  0.22345190  0.53600559  0.86313430  1
  N  N55  1  0.11739362  0.40031160  0.60967213  1
  N  N56  1  0.88471935  0.54096603  0.36535398  1
  N  N57  1  0.77629502  0.42743815  0.11942927  1
  N  N58  1  0.55950945  0.53511681  0.86516148  1
  N  N59  1  0.45649836  0.40133164  0.61271950  1
  N  N60  1  0.21944480  0.87336075  0.36933222  1
  N  N61  1  0.11012820  0.76058967  0.11620700  1
  N  N62  1  0.88964834  0.87472062  0.86709846  1
  N  N63  1  0.78805017  0.75305349  0.61484653  1
  N  N64  1  0.55309993  0.87243255  0.37166821  1
  N  N65  1  0.44375989  0.76249960  0.11578865  1
  N  N66  1  0.22361411  0.87311069  0.86644741  1
  N  N67  1  0.11064966  0.76212493  0.61423792  1
  N  N68  1  0.87302944  0.89978389  0.35976865  1
  N  N69  1  0.77677122  0.76161551  0.11636073  1
  N  N70  1  0.55856015  0.87254294  0.86749916  1
  N  N71  1  0.45157359  0.75709509  0.61942086  1
