# generated using pymatgen
data_Al31B5N36
_symmetry_space_group_name_H-M   'P 1'
_cell_length_a   9.29393376
_cell_length_b   9.15654539
_cell_length_c   9.98401802
_cell_angle_alpha   90.37444497
_cell_angle_beta   89.93046871
_cell_angle_gamma   60.42249588
_symmetry_Int_Tables_number   1
_chemical_formula_structural   Al31B5N36
_chemical_formula_sum   'Al31 B5 N36'
_cell_volume   738.89975837
_cell_formula_units_Z   1
loop_
 _symmetry_equiv_pos_site_id
 _symmetry_equiv_pos_as_xyz
  1  'x, y, z'
loop_
 _atom_site_type_symbol
 _atom_site_label
 _atom_site_symmetry_multiplicity
 _atom_site_fract_x
 _atom_site_fract_y
 _atom_site_fract_z
 _atom_site_occupancy
  Al  Al0  1  0.09670559  0.09850240  0.32584885  1
  Al  Al1  1  0.22544294  0.20631567  0.07006066  1
  Al  Al2  1  0.79145388  0.09467737  0.79553672  1
  Al  Al3  1  0.44657305  0.10909088  0.39580096  1
  Al  Al4  1  0.11928226  0.09736395  0.80499548  1
  Al  Al5  1  0.88698502  0.20416801  0.06513721  1
  Al  Al6  1  0.45644343  0.10033801  0.88304515  1
  Al  Al7  1  0.10315892  0.43104378  0.31402668  1
  Al  Al8  1  0.22739856  0.53116410  0.06092318  1
  Al  Al9  1  0.78223279  0.41746384  0.80441893  1
  Al  Al10  1  0.88679660  0.52907568  0.55768944  1
  Al  Al11  1  0.44183623  0.42914095  0.30701504  1
  Al  Al12  1  0.55822309  0.53098382  0.06043151  1
  Al  Al13  1  0.11532804  0.41798585  0.80765662  1
  Al  Al14  1  0.22042993  0.52955658  0.55723236  1
  Al  Al15  1  0.76819817  0.42869533  0.31190674  1
  Al  Al16  1  0.89035451  0.53547280  0.05935829  1
  Al  Al17  1  0.44075188  0.43595320  0.81122581  1
  Al  Al18  1  0.55265049  0.52801613  0.55821140  1
  Al  Al19  1  0.10324567  0.76844601  0.30883868  1
  Al  Al20  1  0.22139420  0.87492257  0.06165018  1
  Al  Al21  1  0.78188552  0.76020327  0.81002021  1
  Al  Al22  1  0.89066536  0.88189473  0.55207561  1
  Al  Al23  1  0.43794122  0.76750154  0.31258129  1
  Al  Al24  1  0.56228710  0.86905828  0.06645930  1
  Al  Al25  1  0.10961377  0.76283313  0.80961657  1
  Al  Al26  1  0.22665109  0.87670993  0.56287043  1
  Al  Al27  1  0.76877595  0.77149759  0.31115483  1
  Al  Al28  1  0.88446587  0.87848173  0.06384979  1
  Al  Al29  1  0.44690470  0.76176690  0.81177257  1
  Al  Al30  1  0.56340890  0.87118983  0.56961504  1
  B  B31  1  0.83253401  0.22197669  0.53719378  1
  B  B32  1  0.55966978  0.19715015  0.14825486  1
  B  B33  1  0.16928056  0.22844084  0.55110505  1
  B  B34  1  0.77261259  0.09387776  0.30436154  1
  B  B35  1  0.50757933  0.22426268  0.65033584  1
  N  N36  1  0.20414537  0.21575957  0.39619396  1
  N  N37  1  0.10911522  0.09756318  0.13315285  1
  N  N38  1  0.89679971  0.20160132  0.87522011  1
  N  N39  1  0.82450496  0.09589542  0.61270340  1
  N  N40  1  0.57006476  0.19215550  0.30851290  1
  N  N41  1  0.46659983  0.10883768  0.08127916  1
  N  N42  1  0.22613616  0.20456830  0.88067723  1
  N  N43  1  0.15244931  0.09966139  0.61848238  1
  N  N44  1  0.85915310  0.20245626  0.38004126  1
  N  N45  1  0.76821346  0.10123420  0.13935927  1
  N  N46  1  0.55800294  0.20275382  0.79931652  1
  N  N47  1  0.48575794  0.10314985  0.57920606  1
  N  N48  1  0.21830732  0.54045583  0.36810606  1
  N  N49  1  0.10943108  0.42815030  0.12572372  1
  N  N50  1  0.89191971  0.53364755  0.86558109  1
  N  N51  1  0.78164208  0.39853338  0.60552620  1
  N  N52  1  0.54736235  0.54230001  0.36996761  1
  N  N53  1  0.45467338  0.40644210  0.11573064  1
  N  N54  1  0.22114674  0.53728851  0.86904802  1
  N  N55  1  0.11377570  0.40352005  0.61356700  1
  N  N56  1  0.88122180  0.54314128  0.36971937  1
  N  N57  1  0.77648397  0.42784394  0.12274775  1
  N  N58  1  0.56086353  0.53568555  0.86911730  1
  N  N59  1  0.44139330  0.41135215  0.61721065  1
  N  N60  1  0.21768714  0.87391991  0.37370173  1
  N  N61  1  0.11118805  0.76026727  0.11862588  1
  N  N62  1  0.88741033  0.87804771  0.87156160  1
  N  N63  1  0.78851083  0.75501905  0.61934184  1
  N  N64  1  0.55046454  0.87458821  0.37501673  1
  N  N65  1  0.44336629  0.76084541  0.12098395  1
  N  N66  1  0.22396616  0.87335921  0.86944374  1
  N  N67  1  0.11501958  0.75609781  0.61800354  1
  N  N68  1  0.87201074  0.90034034  0.35994876  1
  N  N69  1  0.78052554  0.75857929  0.12151075  1
  N  N70  1  0.56245562  0.86686606  0.87253286  1
  N  N71  1  0.45205853  0.75256058  0.62238847  1
