# generated using pymatgen
data_Al31B5N36
_symmetry_space_group_name_H-M   'P 1'
_cell_length_a   9.39770301
_cell_length_b   9.14121888
_cell_length_c   9.95579684
_cell_angle_alpha   90.02651906
_cell_angle_beta   90.55075724
_cell_angle_gamma   60.75885452
_symmetry_Int_Tables_number   1
_chemical_formula_structural   Al31B5N36
_chemical_formula_sum   'Al31 B5 N36'
_cell_volume   746.23858926
_cell_formula_units_Z   1
loop_
 _symmetry_equiv_pos_site_id
 _symmetry_equiv_pos_as_xyz
  1  'x, y, z'
loop_
 _atom_site_type_symbol
 _atom_site_label
 _atom_site_symmetry_multiplicity
 _atom_site_fract_x
 _atom_site_fract_y
 _atom_site_fract_z
 _atom_site_occupancy
  Al  Al0  1  0.11574892  0.09300217  0.34231658  1
  Al  Al1  1  0.21621889  0.20497979  0.08467817  1
  Al  Al2  1  0.77185688  0.09645494  0.88625375  1
  Al  Al3  1  0.45306989  0.09915904  0.40607122  1
  Al  Al4  1  0.11032125  0.10884176  0.80700351  1
  Al  Al5  1  0.87860976  0.20194897  0.15051877  1
  Al  Al6  1  0.44419288  0.09812815  0.89704104  1
  Al  Al7  1  0.10396832  0.43665587  0.40037384  1
  Al  Al8  1  0.21765927  0.53983696  0.15372462  1
  Al  Al9  1  0.77409559  0.42433370  0.89778819  1
  Al  Al10  1  0.89053862  0.52688011  0.65193551  1
  Al  Al11  1  0.44324069  0.42003815  0.39917415  1
  Al  Al12  1  0.55575273  0.52895496  0.15089770  1
  Al  Al13  1  0.10080374  0.43835774  0.90326549  1
  Al  Al14  1  0.22274898  0.52622071  0.65346696  1
  Al  Al15  1  0.77617695  0.41666422  0.40404435  1
  Al  Al16  1  0.88283271  0.54179162  0.15416862  1
  Al  Al17  1  0.43949235  0.42388685  0.90176121  1
  Al  Al18  1  0.55643364  0.52470586  0.65487932  1
  Al  Al19  1  0.11422085  0.76276371  0.40440184  1
  Al  Al20  1  0.22759693  0.86572219  0.15223498  1
  Al  Al21  1  0.77559484  0.76415362  0.90231458  1
  Al  Al22  1  0.89867554  0.87208167  0.64608615  1
  Al  Al23  1  0.45337582  0.75570044  0.40204857  1
  Al  Al24  1  0.55573455  0.88210635  0.15332513  1
  Al  Al25  1  0.10654437  0.76922812  0.89970533  1
  Al  Al26  1  0.23837575  0.86456802  0.64077413  1
  Al  Al27  1  0.77662610  0.77163286  0.40402048  1
  Al  Al28  1  0.88227907  0.88947186  0.15041533  1
  Al  Al29  1  0.43918595  0.76472722  0.90038443  1
  Al  Al30  1  0.56131551  0.87785751  0.65270209  1
  B  B31  1  0.84014739  0.22585384  0.65013456  1
  B  B32  1  0.49488465  0.23466797  0.16439403  1
  B  B33  1  0.18653173  0.21822195  0.55928338  1
  B  B34  1  0.85057837  0.07037944  0.42398095  1
  B  B35  1  0.49865589  0.22858762  0.66380857  1
  N  N36  1  0.22078862  0.20360471  0.40620638  1
  N  N37  1  0.11023127  0.09946698  0.14903633  1
  N  N38  1  0.87300611  0.21099075  0.80287302  1
  N  N39  1  0.83506993  0.08950177  0.57166729  1
  N  N40  1  0.51962411  0.22298821  0.30771904  1
  N  N41  1  0.44994450  0.11203697  0.09348231  1
  N  N42  1  0.21534447  0.20589286  0.89383232  1
  N  N43  1  0.15746697  0.09631386  0.62373863  1
  N  N44  1  0.88223723  0.19101898  0.34638595  1
  N  N45  1  0.78207237  0.09611920  0.06988281  1
  N  N46  1  0.54429241  0.21109520  0.81478790  1
  N  N47  1  0.47704391  0.10263110  0.59501460  1
  N  N48  1  0.21754387  0.54317809  0.34407071  1
  N  N49  1  0.09886159  0.43834258  0.09769171  1
  N  N50  1  0.88395573  0.53862967  0.84199059  1
  N  N51  1  0.78043154  0.40206623  0.59540312  1
  N  N52  1  0.55802645  0.53139589  0.34329074  1
  N  N53  1  0.44183881  0.40884088  0.09434029  1
  N  N54  1  0.21901403  0.54034983  0.84333789  1
  N  N55  1  0.11221172  0.40814282  0.59479040  1
  N  N56  1  0.88344164  0.53989840  0.34651453  1
  N  N57  1  0.77506749  0.42592410  0.09025610  1
  N  N58  1  0.55160778  0.53653122  0.84530839  1
  N  N59  1  0.44782917  0.40079571  0.59698158  1
  N  N60  1  0.23488458  0.86040593  0.34721459  1
  N  N61  1  0.10826134  0.76359194  0.09264041  1
  N  N62  1  0.88836487  0.87101238  0.83447954  1
  N  N63  1  0.78404018  0.75603360  0.59294137  1
  N  N64  1  0.55757761  0.87556757  0.34435683  1
  N  N65  1  0.44517262  0.76118307  0.09276918  1
  N  N66  1  0.22167147  0.87338224  0.83571787  1
  N  N67  1  0.12162230  0.75018441  0.59248578  1
  N  N68  1  0.88584506  0.90192051  0.35437344  1
  N  N69  1  0.77543318  0.76722021  0.09634437  1
  N  N70  1  0.55504531  0.87362484  0.84396620  1
  N  N71  1  0.46043941  0.74852732  0.59236483  1
