# generated using pymatgen
data_Al31B5N36
_symmetry_space_group_name_H-M   'P 1'
_cell_length_a   9.31843115
_cell_length_b   9.20520414
_cell_length_c   9.98239658
_cell_angle_alpha   89.97455883
_cell_angle_beta   90.24281872
_cell_angle_gamma   60.07784082
_symmetry_Int_Tables_number   1
_chemical_formula_structural   Al31B5N36
_chemical_formula_sum   'Al31 B5 N36'
_cell_volume   742.12318596
_cell_formula_units_Z   1
loop_
 _symmetry_equiv_pos_site_id
 _symmetry_equiv_pos_as_xyz
  1  'x, y, z'
loop_
 _atom_site_type_symbol
 _atom_site_label
 _atom_site_symmetry_multiplicity
 _atom_site_fract_x
 _atom_site_fract_y
 _atom_site_fract_z
 _atom_site_occupancy
  Al  Al0  1  0.09766243  0.09881989  0.33186161  1
  Al  Al1  1  0.22342376  0.20714351  0.07514848  1
  Al  Al2  1  0.78634836  0.09733809  0.80305348  1
  Al  Al3  1  0.45046515  0.10062390  0.40143421  1
  Al  Al4  1  0.11288176  0.09956058  0.81173415  1
  Al  Al5  1  0.88557951  0.20584066  0.07496866  1
  Al  Al6  1  0.45766748  0.09361182  0.88972623  1
  Al  Al7  1  0.10704398  0.42946343  0.32375774  1
  Al  Al8  1  0.22166903  0.53427081  0.07360890  1
  Al  Al9  1  0.78860825  0.41597222  0.81604226  1
  Al  Al10  1  0.88591235  0.53192569  0.56754214  1
  Al  Al11  1  0.45362412  0.41315507  0.38838129  1
  Al  Al12  1  0.55242386  0.53068990  0.13906800  1
  Al  Al13  1  0.11879052  0.41662193  0.81728693  1
  Al  Al14  1  0.21491671  0.53227725  0.56920567  1
  Al  Al15  1  0.77771878  0.42428595  0.32695528  1
  Al  Al16  1  0.88799849  0.53766753  0.06968383  1
  Al  Al17  1  0.45609383  0.41659498  0.89007772  1
  Al  Al18  1  0.55282100  0.52443994  0.63104722  1
  Al  Al19  1  0.10362986  0.76802010  0.31736492  1
  Al  Al20  1  0.21893545  0.87630065  0.06754668  1
  Al  Al21  1  0.78846314  0.75678597  0.82057829  1
  Al  Al22  1  0.88915641  0.88412631  0.56134535  1
  Al  Al23  1  0.43193990  0.76898888  0.32740007  1
  Al  Al24  1  0.55197561  0.88484867  0.13729563  1
  Al  Al25  1  0.10988516  0.76103597  0.81810217  1
  Al  Al26  1  0.22078847  0.88031327  0.56989444  1
  Al  Al27  1  0.77743611  0.76768946  0.32226220  1
  Al  Al28  1  0.88216629  0.88029604  0.07178839  1
  Al  Al29  1  0.43938242  0.76362967  0.82063122  1
  Al  Al30  1  0.55744070  0.88375417  0.63546281  1
  B  B31  1  0.84249093  0.21929404  0.54860428  1
  B  B32  1  0.55728353  0.20464987  0.15127105  1
  B  B33  1  0.16549377  0.23003515  0.55867759  1
  B  B34  1  0.77215162  0.09396894  0.31118647  1
  B  B35  1  0.50439948  0.22855103  0.65079851  1
  N  N36  1  0.20488459  0.21418552  0.40555904  1
  N  N37  1  0.11011104  0.09737359  0.13986132  1
  N  N38  1  0.89251279  0.20151706  0.88582813  1
  N  N39  1  0.82734588  0.09564466  0.62283121  1
  N  N40  1  0.56479938  0.19848642  0.31184573  1
  N  N41  1  0.46678322  0.10937616  0.08435084  1
  N  N42  1  0.22469057  0.20145625  0.88696201  1
  N  N43  1  0.13969489  0.10562551  0.62417281  1
  N  N44  1  0.86385934  0.20009623  0.39035333  1
  N  N45  1  0.76823048  0.10206548  0.14813381  1
  N  N46  1  0.54772298  0.21073395  0.80141347  1
  N  N47  1  0.48892310  0.10048921  0.58296517  1
  N  N48  1  0.21582749  0.54261775  0.37831681  1
  N  N49  1  0.11044982  0.42643738  0.13567433  1
  N  N50  1  0.89443945  0.53239221  0.87672567  1
  N  N51  1  0.78878387  0.39671129  0.61337269  1
  N  N52  1  0.54799533  0.53785191  0.33875578  1
  N  N53  1  0.46444012  0.39474362  0.08457172  1
  N  N54  1  0.22081361  0.53707156  0.87922969  1
  N  N55  1  0.11494470  0.40240095  0.62333714  1
  N  N56  1  0.88464656  0.54277463  0.38034282  1
  N  N57  1  0.78254500  0.42559249  0.13425527  1
  N  N58  1  0.55824616  0.53116327  0.82923281  1
  N  N59  1  0.45157621  0.39741232  0.58345699  1
  N  N60  1  0.21370618  0.87564678  0.38197744  1
  N  N61  1  0.11009294  0.76178231  0.12754583  1
  N  N62  1  0.88597957  0.87996860  0.88027551  1
  N  N63  1  0.79237882  0.75489751  0.62651464  1
  N  N64  1  0.54642015  0.88433119  0.33622064  1
  N  N65  1  0.43802336  0.76489064  0.12380381  1
  N  N66  1  0.21899500  0.87550746  0.87591382  1
  N  N67  1  0.11489985  0.75602270  0.62738682  1
  N  N68  1  0.87156250  0.90232988  0.36931065  1
  N  N69  1  0.78247763  0.75896563  0.12869671  1
  N  N70  1  0.55821368  0.87456348  0.83432447  1
  N  N71  1  0.44542551  0.76001174  0.61964787  1
