# generated using pymatgen
data_Al31B5N36
_symmetry_space_group_name_H-M   'P 1'
_cell_length_a   9.27510967
_cell_length_b   9.15820658
_cell_length_c   9.82269635
_cell_angle_alpha   89.97739400
_cell_angle_beta   89.37006709
_cell_angle_gamma   60.09044937
_symmetry_Int_Tables_number   1
_chemical_formula_structural   Al31B5N36
_chemical_formula_sum   'Al31 B5 N36'
_cell_volume   723.18967470
_cell_formula_units_Z   1
loop_
 _symmetry_equiv_pos_site_id
 _symmetry_equiv_pos_as_xyz
  1  'x, y, z'
loop_
 _atom_site_type_symbol
 _atom_site_label
 _atom_site_symmetry_multiplicity
 _atom_site_fract_x
 _atom_site_fract_y
 _atom_site_fract_z
 _atom_site_occupancy
  Al  Al0  1  0.09765016  0.09862012  0.32389882  1
  Al  Al1  1  0.22885872  0.20447177  0.06308189  1
  Al  Al2  1  0.77481781  0.10069607  0.80924989  1
  Al  Al3  1  0.44549849  0.10118996  0.32559841  1
  Al  Al4  1  0.11863256  0.09697169  0.80266807  1
  Al  Al5  1  0.88363488  0.20397490  0.06465248  1
  Al  Al6  1  0.45558257  0.09758237  0.80806078  1
  Al  Al7  1  0.10807153  0.42937360  0.31039406  1
  Al  Al8  1  0.22665121  0.53246264  0.05800710  1
  Al  Al9  1  0.78217824  0.41678590  0.80334652  1
  Al  Al10  1  0.89067336  0.52788852  0.55518149  1
  Al  Al11  1  0.45054706  0.41812734  0.31125440  1
  Al  Al12  1  0.55682281  0.53269350  0.05826132  1
  Al  Al13  1  0.11673025  0.41727784  0.80492253  1
  Al  Al14  1  0.22818794  0.52482804  0.55853001  1
  Al  Al15  1  0.77076041  0.42880244  0.30985139  1
  Al  Al16  1  0.88912009  0.53693430  0.05645740  1
  Al  Al17  1  0.45082357  0.41615414  0.81181505  1
  Al  Al18  1  0.55250312  0.53317637  0.55765158  1
  Al  Al19  1  0.10505073  0.76717401  0.30891471  1
  Al  Al20  1  0.21993260  0.87612694  0.05948868  1
  Al  Al21  1  0.78074683  0.76012302  0.80723220  1
  Al  Al22  1  0.88361077  0.88553797  0.55395249  1
  Al  Al23  1  0.44016700  0.76530307  0.30846343  1
  Al  Al24  1  0.55553051  0.88050970  0.06046247  1
  Al  Al25  1  0.11112139  0.76208742  0.80777816  1
  Al  Al26  1  0.22782043  0.87653153  0.55972021  1
  Al  Al27  1  0.77225947  0.76911515  0.30811234  1
  Al  Al28  1  0.88068935  0.88170802  0.06387133  1
  Al  Al29  1  0.44755613  0.76035153  0.81054531  1
  Al  Al30  1  0.56047891  0.87897589  0.56229869  1
  B  B31  1  0.82452492  0.23083993  0.53713129  1
  B  B32  1  0.55410091  0.20778776  0.07152690  1
  B  B33  1  0.17633463  0.22467253  0.54573948  1
  B  B34  1  0.76197562  0.09889491  0.31448091  1
  B  B35  1  0.56325517  0.20271093  0.55957366  1
  N  N36  1  0.21249074  0.21055458  0.38993277  1
  N  N37  1  0.10647757  0.09957258  0.12908231  1
  N  N38  1  0.89702878  0.19859626  0.87117096  1
  N  N39  1  0.76729729  0.12265073  0.60978650  1
  N  N40  1  0.57731581  0.19540432  0.38491234  1
  N  N41  1  0.45407723  0.11085270  0.12628321  1
  N  N42  1  0.23304053  0.19992480  0.87251589  1
  N  N43  1  0.14364915  0.10190512  0.61222917  1
  N  N44  1  0.86136964  0.20193888  0.38270982  1
  N  N45  1  0.75085271  0.11003914  0.14109196  1
  N  N46  1  0.56355506  0.20223942  0.89916915  1
  N  N47  1  0.49320638  0.09817759  0.61973754  1
  N  N48  1  0.22214766  0.53833469  0.36671738  1
  N  N49  1  0.10905918  0.42826452  0.11942747  1
  N  N50  1  0.89169174  0.53252550  0.86121850  1
  N  N51  1  0.78400279  0.39874006  0.60363790  1
  N  N52  1  0.54949148  0.54201243  0.36659726  1
  N  N53  1  0.45498343  0.40409131  0.11686694  1
  N  N54  1  0.22409564  0.53512448  0.86300869  1
  N  N55  1  0.11809523  0.40015895  0.60914097  1
  N  N56  1  0.88482459  0.54083173  0.36529632  1
  N  N57  1  0.77598851  0.42811027  0.11932543  1
  N  N58  1  0.55953080  0.53357711  0.86469791  1
  N  N59  1  0.45709267  0.40031286  0.61388543  1
  N  N60  1  0.21924868  0.87331193  0.36930160  1
  N  N61  1  0.10908096  0.76164234  0.11613074  1
  N  N62  1  0.88810840  0.87602394  0.86795979  1
  N  N63  1  0.78822458  0.75306767  0.61431858  1
  N  N64  1  0.55195769  0.87440337  0.36992150  1
  N  N65  1  0.44301950  0.76294921  0.11565738  1
  N  N66  1  0.22338896  0.87320653  0.86604911  1
  N  N67  1  0.11105920  0.76150444  0.61416485  1
  N  N68  1  0.87188128  0.90102049  0.35970421  1
  N  N69  1  0.77667839  0.76123996  0.11647658  1
  N  N70  1  0.55856421  0.87226099  0.86794059  1
  N  N71  1  0.45199129  0.75708233  0.61864087  1
