# generated using pymatgen
data_Al31B5N36
_symmetry_space_group_name_H-M   'P 1'
_cell_length_a   9.42578753
_cell_length_b   9.15990304
_cell_length_c   10.01627055
_cell_angle_alpha   90.17854163
_cell_angle_beta   90.47465763
_cell_angle_gamma   60.79010823
_symmetry_Int_Tables_number   1
_chemical_formula_structural   Al31B5N36
_chemical_formula_sum   'Al31 B5 N36'
_cell_volume   754.80190323
_cell_formula_units_Z   1
loop_
 _symmetry_equiv_pos_site_id
 _symmetry_equiv_pos_as_xyz
  1  'x, y, z'
loop_
 _atom_site_type_symbol
 _atom_site_label
 _atom_site_symmetry_multiplicity
 _atom_site_fract_x
 _atom_site_fract_y
 _atom_site_fract_z
 _atom_site_occupancy
  Al  Al0  1  0.12128985  0.09067374  0.33845108  1
  Al  Al1  1  0.21330469  0.21310702  0.08268448  1
  Al  Al2  1  0.77609403  0.09366031  0.88678387  1
  Al  Al3  1  0.44716241  0.10113291  0.41432530  1
  Al  Al4  1  0.11338121  0.09602711  0.81511794  1
  Al  Al5  1  0.88327818  0.20180141  0.15172502  1
  Al  Al6  1  0.44626167  0.09708363  0.89768141  1
  Al  Al7  1  0.10741966  0.42801624  0.34933383  1
  Al  Al8  1  0.22237240  0.53725211  0.13596893  1
  Al  Al9  1  0.77681540  0.42310592  0.89781736  1
  Al  Al10  1  0.87929369  0.53291789  0.64873218  1
  Al  Al11  1  0.44709909  0.41783051  0.40302020  1
  Al  Al12  1  0.55631890  0.52926377  0.15158720  1
  Al  Al13  1  0.11308815  0.41799132  0.82766032  1
  Al  Al14  1  0.22225267  0.52791391  0.60528258  1
  Al  Al15  1  0.77616632  0.41634732  0.40522277  1
  Al  Al16  1  0.87806846  0.54474782  0.15641313  1
  Al  Al17  1  0.44057571  0.42227295  0.90010953  1
  Al  Al18  1  0.55423924  0.52677749  0.65697850  1
  Al  Al19  1  0.11286713  0.76912403  0.34589463  1
  Al  Al20  1  0.21280140  0.87850619  0.08353919  1
  Al  Al21  1  0.78013063  0.76176940  0.90321106  1
  Al  Al22  1  0.88887062  0.87934911  0.64058232  1
  Al  Al23  1  0.45844669  0.75318554  0.40100053  1
  Al  Al24  1  0.55202211  0.88367334  0.15419241  1
  Al  Al25  1  0.11429295  0.75978223  0.82630080  1
  Al  Al26  1  0.23041110  0.87597783  0.58244590  1
  Al  Al27  1  0.77334026  0.77435844  0.40530845  1
  Al  Al28  1  0.87640654  0.89285719  0.15365291  1
  Al  Al29  1  0.44705069  0.75948038  0.90259340  1
  Al  Al30  1  0.56385096  0.87535380  0.65569281  1
  B  B31  1  0.84070753  0.22743703  0.65160917  1
  B  B32  1  0.48447428  0.23714255  0.16549654  1
  B  B33  1  0.16595865  0.22789469  0.56972323  1
  B  B34  1  0.85377408  0.07169718  0.42521368  1
  B  B35  1  0.50787160  0.22451872  0.66625312  1
  N  N36  1  0.20841796  0.21248858  0.42163816  1
  N  N37  1  0.11817235  0.09592484  0.15074234  1
  N  N38  1  0.87449628  0.21012266  0.80309256  1
  N  N39  1  0.83785881  0.09265719  0.57098538  1
  N  N40  1  0.50137636  0.22865989  0.30731958  1
  N  N41  1  0.44910778  0.11242238  0.09115812  1
  N  N42  1  0.21360895  0.20580839  0.89683246  1
  N  N43  1  0.15917239  0.09384864  0.63625653  1
  N  N44  1  0.88543485  0.19107156  0.34550387  1
  N  N45  1  0.79546301  0.09124109  0.06807599  1
  N  N46  1  0.54812469  0.20885933  0.81746589  1
  N  N47  1  0.49849995  0.09334855  0.59618060  1
  N  N48  1  0.21623693  0.54518704  0.39068419  1
  N  N49  1  0.10810672  0.42577386  0.15481099  1
  N  N50  1  0.88300633  0.53891809  0.84104361  1
  N  N51  1  0.77819163  0.40274778  0.59574317  1
  N  N52  1  0.55801395  0.52956748  0.34256687  1
  N  N53  1  0.44458823  0.40697825  0.09459750  1
  N  N54  1  0.22364078  0.53293508  0.85295115  1
  N  N55  1  0.11086679  0.40051823  0.63070424  1
  N  N56  1  0.87561194  0.54465456  0.35007053  1
  N  N57  1  0.77720267  0.42491488  0.08996697  1
  N  N58  1  0.55339762  0.53488037  0.84618092  1
  N  N59  1  0.45624582  0.39545268  0.59818858  1
  N  N60  1  0.22997461  0.87236266  0.39350070  1
  N  N61  1  0.11036172  0.76405014  0.15196869  1
  N  N62  1  0.88379776  0.87231745  0.83041389  1
  N  N63  1  0.78312571  0.75592073  0.59137347  1
  N  N64  1  0.55371690  0.87994899  0.34411167  1
  N  N65  1  0.44721853  0.75865535  0.09560170  1
  N  N66  1  0.21383460  0.87887852  0.89097911  1
  N  N67  1  0.12135781  0.75984430  0.63359234  1
  N  N68  1  0.87844717  0.90775737  0.35867383  1
  N  N69  1  0.77518425  0.76783675  0.09688385  1
  N  N70  1  0.55671254  0.87219195  0.84575093  1
  N  N71  1  0.46351350  0.74802801  0.59400671  1
