# generated using pymatgen
data_Al31B5N36
_symmetry_space_group_name_H-M   'P 1'
_cell_length_a   9.33714755
_cell_length_b   9.21205085
_cell_length_c   9.92925228
_cell_angle_alpha   89.92810114
_cell_angle_beta   89.93784265
_cell_angle_gamma   60.20152997
_symmetry_Int_Tables_number   1
_chemical_formula_structural   Al31B5N36
_chemical_formula_sum   'Al31 B5 N36'
_cell_volume   741.13221034
_cell_formula_units_Z   1
loop_
 _symmetry_equiv_pos_site_id
 _symmetry_equiv_pos_as_xyz
  1  'x, y, z'
loop_
 _atom_site_type_symbol
 _atom_site_label
 _atom_site_symmetry_multiplicity
 _atom_site_fract_x
 _atom_site_fract_y
 _atom_site_fract_z
 _atom_site_occupancy
  Al  Al0  1  0.09630271  0.09995153  0.33403081  1
  Al  Al1  1  0.22375737  0.20750321  0.07728219  1
  Al  Al2  1  0.78736988  0.09729189  0.80278352  1
  Al  Al3  1  0.45074194  0.09984970  0.40145652  1
  Al  Al4  1  0.11733211  0.09803261  0.81399114  1
  Al  Al5  1  0.88616301  0.20525899  0.07434927  1
  Al  Al6  1  0.45842626  0.09321037  0.89046826  1
  Al  Al7  1  0.10633338  0.42970873  0.32443916  1
  Al  Al8  1  0.22082537  0.53506500  0.07430767  1
  Al  Al9  1  0.78633494  0.41553029  0.81383549  1
  Al  Al10  1  0.88749016  0.52983963  0.56738976  1
  Al  Al11  1  0.45023249  0.41382754  0.38562465  1
  Al  Al12  1  0.55486205  0.53280028  0.11437012  1
  Al  Al13  1  0.11855148  0.41639203  0.81820153  1
  Al  Al14  1  0.21437628  0.53308118  0.57053753  1
  Al  Al15  1  0.77282912  0.42725487  0.32613553  1
  Al  Al16  1  0.88841260  0.53744911  0.06884897  1
  Al  Al17  1  0.45411453  0.41691717  0.88731199  1
  Al  Al18  1  0.55416400  0.52734132  0.60447099  1
  Al  Al19  1  0.10262855  0.76935593  0.31806016  1
  Al  Al20  1  0.21849523  0.87687305  0.06927050  1
  Al  Al21  1  0.78872833  0.75602768  0.82061108  1
  Al  Al22  1  0.88925506  0.88335203  0.56098382  1
  Al  Al23  1  0.43225115  0.76723587  0.32799455  1
  Al  Al24  1  0.55240420  0.88477561  0.13809730  1
  Al  Al25  1  0.11051590  0.76159908  0.81912640  1
  Al  Al26  1  0.22297171  0.87963073  0.57153648  1
  Al  Al27  1  0.77725848  0.76694460  0.32282073  1
  Al  Al28  1  0.88180161  0.88042354  0.07153457  1
  Al  Al29  1  0.44209357  0.76016444  0.82053446  1
  Al  Al30  1  0.55830015  0.88364575  0.63587559  1
  B  B31  1  0.83453263  0.22107370  0.54494124  1
  B  B32  1  0.55622414  0.20500426  0.15144131  1
  B  B33  1  0.16939749  0.22828989  0.56007323  1
  B  B34  1  0.77082492  0.09485245  0.30998621  1
  B  B35  1  0.50428377  0.22867247  0.65130058  1
  N  N36  1  0.20587580  0.21412541  0.40543209  1
  N  N37  1  0.10895768  0.09833911  0.14101116  1
  N  N38  1  0.89510480  0.20051055  0.88430176  1
  N  N39  1  0.82524944  0.09591985  0.62078793  1
  N  N40  1  0.56447252  0.19857267  0.31183385  1
  N  N41  1  0.46631907  0.10923602  0.08602235  1
  N  N42  1  0.22630469  0.20222627  0.88884442  1
  N  N43  1  0.15104637  0.10082187  0.62745286  1
  N  N44  1  0.85987941  0.20163435  0.38801137  1
  N  N45  1  0.76720738  0.10255838  0.14653056  1
  N  N46  1  0.54934390  0.20987447  0.80201728  1
  N  N47  1  0.49065413  0.09977145  0.58321659  1
  N  N48  1  0.21423660  0.54389641  0.37805577  1
  N  N49  1  0.10915801  0.42728109  0.13564516  1
  N  N50  1  0.89428037  0.53127739  0.87527138  1
  N  N51  1  0.78779790  0.39565441  0.61220052  1
  N  N52  1  0.54878725  0.54078928  0.36168260  1
  N  N53  1  0.46211880  0.39528788  0.08631253  1
  N  N54  1  0.22024308  0.53748442  0.87886109  1
  N  N55  1  0.11506031  0.40212140  0.62372239  1
  N  N56  1  0.88442508  0.54166590  0.37940502  1
  N  N57  1  0.78062497  0.42639869  0.13402933  1
  N  N58  1  0.56093071  0.53213042  0.84535590  1
  N  N59  1  0.44921370  0.39763058  0.58456673  1
  N  N60  1  0.21315198  0.87661885  0.38268958  1
  N  N61  1  0.10891539  0.76265325  0.12747511  1
  N  N62  1  0.88632691  0.87978749  0.87928489  1
  N  N63  1  0.79269729  0.75346021  0.62545232  1
  N  N64  1  0.54675966  0.88326954  0.33724942  1
  N  N65  1  0.43744526  0.76438519  0.12702856  1
  N  N66  1  0.22138571  0.87419198  0.87737172  1
  N  N67  1  0.11426091  0.75741515  0.62753111  1
  N  N68  1  0.87065897  0.90264475  0.36825016  1
  N  N69  1  0.78195194  0.75860434  0.12781671  1
  N  N70  1  0.55890496  0.87413363  0.83555221  1
  N  N71  1  0.44681406  0.75910796  0.62204831  1
