# generated using pymatgen
data_Al31B5N36
_symmetry_space_group_name_H-M   'P 1'
_cell_length_a   9.29296148
_cell_length_b   9.16480159
_cell_length_c   9.91150023
_cell_angle_alpha   90.01785091
_cell_angle_beta   89.55472056
_cell_angle_gamma   60.21207008
_symmetry_Int_Tables_number   1
_chemical_formula_structural   Al31B5N36
_chemical_formula_sum   'Al31 B5 N36'
_cell_volume   732.57687448
_cell_formula_units_Z   1
loop_
 _symmetry_equiv_pos_site_id
 _symmetry_equiv_pos_as_xyz
  1  'x, y, z'
loop_
 _atom_site_type_symbol
 _atom_site_label
 _atom_site_symmetry_multiplicity
 _atom_site_fract_x
 _atom_site_fract_y
 _atom_site_fract_z
 _atom_site_occupancy
  Al  Al0  1  0.09834200  0.09844124  0.32293820  1
  Al  Al1  1  0.23315164  0.20327369  0.06461588  1
  Al  Al2  1  0.78772178  0.09529858  0.80236494  1
  Al  Al3  1  0.44276746  0.09955141  0.34317698  1
  Al  Al4  1  0.11792186  0.09735499  0.80355342  1
  Al  Al5  1  0.88699427  0.20371896  0.06371868  1
  Al  Al6  1  0.44440933  0.09183284  0.79589845  1
  Al  Al7  1  0.10680740  0.42924202  0.30995786  1
  Al  Al8  1  0.22878503  0.53007840  0.05903937  1
  Al  Al9  1  0.78075052  0.41770826  0.80266647  1
  Al  Al10  1  0.88982523  0.52780531  0.55495532  1
  Al  Al11  1  0.44415942  0.43003676  0.31161315  1
  Al  Al12  1  0.55761725  0.53073054  0.05930410  1
  Al  Al13  1  0.11492255  0.41880295  0.80588557  1
  Al  Al14  1  0.22552411  0.52628012  0.55731349  1
  Al  Al15  1  0.77083685  0.42850311  0.30969145  1
  Al  Al16  1  0.88920728  0.53658441  0.05649165  1
  Al  Al17  1  0.44209355  0.43190255  0.80798826  1
  Al  Al18  1  0.55221774  0.53356796  0.55643708  1
  Al  Al19  1  0.10514318  0.76775939  0.30815161  1
  Al  Al20  1  0.22128590  0.87530827  0.05968836  1
  Al  Al21  1  0.78002615  0.76111446  0.80769079  1
  Al  Al22  1  0.88376707  0.88541525  0.55150966  1
  Al  Al23  1  0.44039560  0.76628178  0.30717142  1
  Al  Al24  1  0.55531947  0.88256125  0.06143081  1
  Al  Al25  1  0.11047766  0.76252952  0.80754397  1
  Al  Al26  1  0.22791810  0.87690989  0.56019495  1
  Al  Al27  1  0.77271801  0.76899203  0.30659655  1
  Al  Al28  1  0.88476852  0.87829391  0.06218635  1
  Al  Al29  1  0.44740288  0.76072207  0.81133111  1
  Al  Al30  1  0.56289793  0.87438481  0.56091138  1
  B  B31  1  0.82176939  0.22908833  0.53469087  1
  B  B32  1  0.55876258  0.20026415  0.15679830  1
  B  B33  1  0.17584916  0.22509503  0.54809333  1
  B  B34  1  0.77472166  0.09364765  0.30603868  1
  B  B35  1  0.55435523  0.20864910  0.64162834  1
  N  N36  1  0.20818705  0.21269223  0.39275940  1
  N  N37  1  0.10898791  0.09869072  0.12906981  1
  N  N38  1  0.89722627  0.20051288  0.87186046  1
  N  N39  1  0.77372964  0.11729575  0.60764153  1
  N  N40  1  0.57832157  0.19619373  0.31977910  1
  N  N41  1  0.45313367  0.10618843  0.13320954  1
  N  N42  1  0.23138936  0.20120271  0.87373848  1
  N  N43  1  0.14537150  0.10116470  0.61490243  1
  N  N44  1  0.86211621  0.20085383  0.38146466  1
  N  N45  1  0.76714415  0.10110116  0.13915373  1
  N  N46  1  0.56200140  0.20391569  0.80857866  1
  N  N47  1  0.47974518  0.09979993  0.60358350  1
  N  N48  1  0.21910670  0.54008415  0.36711384  1
  N  N49  1  0.10935007  0.42749472  0.11990942  1
  N  N50  1  0.89033373  0.53350568  0.86186547  1
  N  N51  1  0.78232209  0.39781940  0.60283313  1
  N  N52  1  0.55027578  0.54408067  0.36733998  1
  N  N53  1  0.45501978  0.40462028  0.11811735  1
  N  N54  1  0.22118977  0.53733843  0.86541562  1
  N  N55  1  0.11642119  0.40149294  0.61085803  1
  N  N56  1  0.88461847  0.54115088  0.36586653  1
  N  N57  1  0.77681965  0.42719568  0.12011406  1
  N  N58  1  0.55973000  0.53515912  0.86704001  1
  N  N59  1  0.45043936  0.40971310  0.61257044  1
  N  N60  1  0.22015219  0.87332366  0.37010088  1
  N  N61  1  0.11166034  0.75976366  0.11672726  1
  N  N62  1  0.88876997  0.87582288  0.86859504  1
  N  N63  1  0.78816430  0.75372628  0.61560643  1
  N  N64  1  0.55518836  0.86972413  0.37136225  1
  N  N65  1  0.44414667  0.76219936  0.11560519  1
  N  N66  1  0.22325705  0.87331480  0.86677180  1
  N  N67  1  0.11062385  0.76192543  0.61473809  1
  N  N68  1  0.87362161  0.89975827  0.35904253  1
  N  N69  1  0.77745093  0.76113726  0.11588360  1
  N  N70  1  0.55775175  0.87401865  0.86823871  1
  N  N71  1  0.45206583  0.75640323  0.62019659  1
