# generated using pymatgen
data_Al31B5N36
_symmetry_space_group_name_H-M   'P 1'
_cell_length_a   9.29534443
_cell_length_b   9.16578174
_cell_length_c   9.90158701
_cell_angle_alpha   90.05231338
_cell_angle_beta   89.58179075
_cell_angle_gamma   60.23790822
_symmetry_Int_Tables_number   1
_chemical_formula_structural   Al31B5N36
_chemical_formula_sum   'Al31 B5 N36'
_cell_volume   732.30010856
_cell_formula_units_Z   1
loop_
 _symmetry_equiv_pos_site_id
 _symmetry_equiv_pos_as_xyz
  1  'x, y, z'
loop_
 _atom_site_type_symbol
 _atom_site_label
 _atom_site_symmetry_multiplicity
 _atom_site_fract_x
 _atom_site_fract_y
 _atom_site_fract_z
 _atom_site_occupancy
  Al  Al0  1  0.09896288  0.09842689  0.32228896  1
  Al  Al1  1  0.23532808  0.20267896  0.06494311  1
  Al  Al2  1  0.78747644  0.09495030  0.80227864  1
  Al  Al3  1  0.44474354  0.10228909  0.36315575  1
  Al  Al4  1  0.11729143  0.09727004  0.80426967  1
  Al  Al5  1  0.88693266  0.20362510  0.06407209  1
  Al  Al6  1  0.44311652  0.09174994  0.79333049  1
  Al  Al7  1  0.10697006  0.42920516  0.30957825  1
  Al  Al8  1  0.22887104  0.53009765  0.05902499  1
  Al  Al9  1  0.78053267  0.41760590  0.80274190  1
  Al  Al10  1  0.88987461  0.52785783  0.55471908  1
  Al  Al11  1  0.44422848  0.43052631  0.31065006  1
  Al  Al12  1  0.55747284  0.53073039  0.05941629  1
  Al  Al13  1  0.11436733  0.41890969  0.80644426  1
  Al  Al14  1  0.22528855  0.52644086  0.55725826  1
  Al  Al15  1  0.77079245  0.42887006  0.30953495  1
  Al  Al16  1  0.88923670  0.53639694  0.05679572  1
  Al  Al17  1  0.44206831  0.43094822  0.80750617  1
  Al  Al18  1  0.55207868  0.53341614  0.55580059  1
  Al  Al19  1  0.10522976  0.76776068  0.30810922  1
  Al  Al20  1  0.22141245  0.87544504  0.05982493  1
  Al  Al21  1  0.78044094  0.76062821  0.80839608  1
  Al  Al22  1  0.88399777  0.88533656  0.55131745  1
  Al  Al23  1  0.44049371  0.76748091  0.30661682  1
  Al  Al24  1  0.55497932  0.88434071  0.06105594  1
  Al  Al25  1  0.11044294  0.76239025  0.80765748  1
  Al  Al26  1  0.22777837  0.87695113  0.56008482  1
  Al  Al27  1  0.77204930  0.76979522  0.30615029  1
  Al  Al28  1  0.88480456  0.87846228  0.06256775  1
  Al  Al29  1  0.44717137  0.76001668  0.81175107  1
  Al  Al30  1  0.56572228  0.86962548  0.56216334  1
  B  B31  1  0.82189786  0.22944304  0.53414979  1
  B  B32  1  0.55701518  0.19849595  0.15729769  1
  B  B33  1  0.17147127  0.22696334  0.54857058  1
  B  B34  1  0.77471694  0.09401290  0.30567252  1
  B  B35  1  0.55649240  0.20829097  0.63948447  1
  N  N36  1  0.20624294  0.21391141  0.39430286  1
  N  N37  1  0.10931719  0.09897104  0.12862900  1
  N  N38  1  0.89650287  0.20046088  0.87191048  1
  N  N39  1  0.77329292  0.11780333  0.60709257  1
  N  N40  1  0.57824583  0.19657710  0.32024735  1
  N  N41  1  0.45450888  0.10653899  0.13071627  1
  N  N42  1  0.23130954  0.20104605  0.87294692  1
  N  N43  1  0.14442588  0.10128488  0.61550946  1
  N  N44  1  0.86250139  0.20109088  0.38125573  1
  N  N45  1  0.76749715  0.10085552  0.13958818  1
  N  N46  1  0.56152125  0.20246026  0.80539500  1
  N  N47  1  0.48174851  0.09926818  0.59663771  1
  N  N48  1  0.21927402  0.53997590  0.36703623  1
  N  N49  1  0.10948452  0.42734229  0.11956357  1
  N  N50  1  0.89004623  0.53328566  0.86216303  1
  N  N51  1  0.78218225  0.39806629  0.60259464  1
  N  N52  1  0.55015220  0.54482964  0.36675392  1
  N  N53  1  0.45456814  0.40512463  0.11783641  1
  N  N54  1  0.22125335  0.53709731  0.86502825  1
  N  N55  1  0.11576114  0.40180449  0.61148531  1
  N  N56  1  0.88463625  0.54165398  0.36557838  1
  N  N57  1  0.77674122  0.42718227  0.11999027  1
  N  N58  1  0.55959236  0.53430473  0.86683409  1
  N  N59  1  0.45063502  0.40943546  0.61162932  1
  N  N60  1  0.22028930  0.87352549  0.36990181  1
  N  N61  1  0.11176328  0.75979421  0.11660929  1
  N  N62  1  0.88880578  0.87581243  0.86866933  1
  N  N63  1  0.78954359  0.75289006  0.61632322  1
  N  N64  1  0.55558728  0.86945718  0.37263370  1
  N  N65  1  0.44447339  0.76267653  0.11487564  1
  N  N66  1  0.22310781  0.87318861  0.86676479  1
  N  N67  1  0.11057911  0.76201376  0.61464133  1
  N  N68  1  0.87365398  0.89985007  0.35899490  1
  N  N69  1  0.77734041  0.76115853  0.11534950  1
  N  N70  1  0.55744511  0.87419308  0.86625567  1
  N  N71  1  0.45168736  0.75574947  0.62049648  1
