# generated using pymatgen
data_Al31B5N36
_symmetry_space_group_name_H-M   'P 1'
_cell_length_a   9.32227853
_cell_length_b   9.23076520
_cell_length_c   10.05339624
_cell_angle_alpha   89.51664475
_cell_angle_beta   90.25437672
_cell_angle_gamma   59.77634517
_symmetry_Int_Tables_number   1
_chemical_formula_structural   Al31B5N36
_chemical_formula_sum   'Al31 B5 N36'
_cell_volume   747.45082241
_cell_formula_units_Z   1
loop_
 _symmetry_equiv_pos_site_id
 _symmetry_equiv_pos_as_xyz
  1  'x, y, z'
loop_
 _atom_site_type_symbol
 _atom_site_label
 _atom_site_symmetry_multiplicity
 _atom_site_fract_x
 _atom_site_fract_y
 _atom_site_fract_z
 _atom_site_occupancy
  Al  Al0  1  0.10154768  0.09429145  0.32044750  1
  Al  Al1  1  0.22462466  0.20716071  0.07034039  1
  Al  Al2  1  0.78544402  0.09913114  0.80705270  1
  Al  Al3  1  0.44968545  0.10217124  0.40098163  1
  Al  Al4  1  0.10493141  0.10216250  0.82166304  1
  Al  Al5  1  0.88512510  0.20132269  0.10090307  1
  Al  Al6  1  0.45644031  0.09315817  0.88786577  1
  Al  Al7  1  0.10592841  0.42972212  0.32306424  1
  Al  Al8  1  0.22181164  0.53536414  0.07227199  1
  Al  Al9  1  0.77374544  0.42573546  0.89723314  1
  Al  Al10  1  0.88807364  0.53854027  0.56708994  1
  Al  Al11  1  0.45277495  0.41144487  0.38687339  1
  Al  Al12  1  0.55659371  0.52648176  0.14436411  1
  Al  Al13  1  0.11559042  0.41892146  0.81564475  1
  Al  Al14  1  0.21699665  0.53387730  0.56751549  1
  Al  Al15  1  0.77587676  0.40891512  0.38198582  1
  Al  Al16  1  0.89235903  0.54044355  0.07739944  1
  Al  Al17  1  0.45408847  0.41599278  0.88949943  1
  Al  Al18  1  0.56589623  0.51428336  0.63561469  1
  Al  Al19  1  0.10256929  0.76941466  0.31555469  1
  Al  Al20  1  0.22395953  0.87297367  0.06449724  1
  Al  Al21  1  0.78405252  0.75865171  0.84099664  1
  Al  Al22  1  0.89010804  0.89347594  0.55912801  1
  Al  Al23  1  0.43357350  0.76617934  0.32577356  1
  Al  Al24  1  0.55235333  0.88480775  0.13992942  1
  Al  Al25  1  0.10877798  0.76115572  0.81533468  1
  Al  Al26  1  0.22079333  0.87749940  0.56836955  1
  Al  Al27  1  0.77404018  0.77051605  0.33762961  1
  Al  Al28  1  0.88186778  0.88046907  0.06881471  1
  Al  Al29  1  0.44014393  0.76134073  0.81559582  1
  Al  Al30  1  0.56259726  0.88276529  0.63515016  1
  B  B31  1  0.90137085  0.20678676  0.60476219  1
  B  B32  1  0.55299938  0.20327882  0.14630427  1
  B  B33  1  0.15671615  0.23991965  0.55492259  1
  B  B34  1  0.77520228  0.09442156  0.29567350  1
  B  B35  1  0.50309928  0.22958440  0.65028463  1
  N  N36  1  0.20000280  0.21352445  0.40802116  1
  N  N37  1  0.12243305  0.09160128  0.13292744  1
  N  N38  1  0.89273463  0.19507898  0.89446373  1
  N  N39  1  0.83529298  0.09890399  0.62919507  1
  N  N40  1  0.55871000  0.20053664  0.30696014  1
  N  N41  1  0.46294603  0.10894998  0.08052450  1
  N  N42  1  0.22323100  0.20186365  0.88164655  1
  N  N43  1  0.09663091  0.12774952  0.61926825  1
  N  N44  1  0.87033759  0.19170906  0.32365865  1
  N  N45  1  0.75563899  0.09754748  0.13637344  1
  N  N46  1  0.54576211  0.21058294  0.80014128  1
  N  N47  1  0.48228368  0.10382115  0.58334064  1
  N  N48  1  0.21393518  0.54317379  0.37831522  1
  N  N49  1  0.11445260  0.42382961  0.13686488  1
  N  N50  1  0.89759517  0.53344651  0.87891378  1
  N  N51  1  0.79449742  0.39529789  0.58146148  1
  N  N52  1  0.55199350  0.53277921  0.33749001  1
  N  N53  1  0.46237688  0.39672234  0.08267702  1
  N  N54  1  0.21907473  0.53718221  0.87774074  1
  N  N55  1  0.11638394  0.40297633  0.62163690  1
  N  N56  1  0.88346228  0.53930427  0.37599107  1
  N  N57  1  0.77035276  0.43465185  0.08776040  1
  N  N58  1  0.56038174  0.52717419  0.82606803  1
  N  N59  1  0.45422495  0.39711396  0.58270018  1
  N  N60  1  0.21546332  0.87414041  0.38250691  1
  N  N61  1  0.11052503  0.76317194  0.12630798  1
  N  N62  1  0.88717139  0.87885819  0.87865592  1
  N  N63  1  0.79074180  0.76263067  0.60936620  1
  N  N64  1  0.54294835  0.88658265  0.33613958  1
  N  N65  1  0.44035587  0.76206180  0.12694524  1
  N  N66  1  0.22109340  0.87296362  0.87278693  1
  N  N67  1  0.11649503  0.75570400  0.62605577  1
  N  N68  1  0.87192919  0.90515411  0.36645541  1
  N  N69  1  0.78010847  0.76187056  0.12226317  1
  N  N70  1  0.55657296  0.87458445  0.83103484  1
  N  N71  1  0.44709503  0.76018865  0.61943639  1
