# generated using pymatgen
data_Al31B5N36
_symmetry_space_group_name_H-M   'P 1'
_cell_length_a   9.31060812
_cell_length_b   9.17107968
_cell_length_c   9.95220760
_cell_angle_alpha   90.28889950
_cell_angle_beta   89.91724224
_cell_angle_gamma   60.36475098
_symmetry_Int_Tables_number   1
_chemical_formula_structural   Al31B5N36
_chemical_formula_sum   'Al31 B5 N36'
_cell_volume   738.62351082
_cell_formula_units_Z   1
loop_
 _symmetry_equiv_pos_site_id
 _symmetry_equiv_pos_as_xyz
  1  'x, y, z'
loop_
 _atom_site_type_symbol
 _atom_site_label
 _atom_site_symmetry_multiplicity
 _atom_site_fract_x
 _atom_site_fract_y
 _atom_site_fract_z
 _atom_site_occupancy
  Al  Al0  1  0.09688373  0.09851083  0.33579861  1
  Al  Al1  1  0.22397541  0.20729271  0.07960023  1
  Al  Al2  1  0.79096434  0.09500711  0.80564389  1
  Al  Al3  1  0.44825617  0.10659358  0.40482771  1
  Al  Al4  1  0.11925099  0.09736340  0.81483658  1
  Al  Al5  1  0.88658095  0.20465343  0.07493857  1
  Al  Al6  1  0.45724066  0.09866334  0.89363819  1
  Al  Al7  1  0.10380636  0.43030184  0.32400838  1
  Al  Al8  1  0.22683985  0.53145703  0.07092737  1
  Al  Al9  1  0.78219524  0.41733031  0.81415787  1
  Al  Al10  1  0.88666714  0.52903140  0.56769217  1
  Al  Al11  1  0.44173834  0.42885479  0.31753408  1
  Al  Al12  1  0.55796896  0.53110649  0.07010388  1
  Al  Al13  1  0.11587935  0.41718818  0.81747965  1
  Al  Al14  1  0.22022991  0.52947344  0.56715664  1
  Al  Al15  1  0.76813035  0.42876750  0.32181141  1
  Al  Al16  1  0.88967737  0.53592437  0.06908578  1
  Al  Al17  1  0.44057814  0.43549387  0.82165340  1
  Al  Al18  1  0.55259933  0.52800806  0.56817181  1
  Al  Al19  1  0.10288336  0.76847091  0.31865101  1
  Al  Al20  1  0.21998651  0.87536655  0.07114867  1
  Al  Al21  1  0.78325013  0.75932011  0.82098266  1
  Al  Al22  1  0.89051740  0.88227781  0.56192179  1
  Al  Al23  1  0.43681130  0.76679201  0.32325234  1
  Al  Al24  1  0.55926074  0.87303341  0.08844834  1
  Al  Al25  1  0.10936154  0.76268584  0.81924009  1
  Al  Al26  1  0.22583458  0.87677137  0.57271679  1
  Al  Al27  1  0.77046803  0.77030395  0.32242988  1
  Al  Al28  1  0.88402444  0.87899057  0.07351429  1
  Al  Al29  1  0.44604508  0.76119851  0.82271627  1
  Al  Al30  1  0.56111968  0.87473565  0.59127301  1
  B  B31  1  0.83233034  0.22210784  0.54671759  1
  B  B32  1  0.55926186  0.19891937  0.15830006  1
  B  B33  1  0.16943575  0.22823930  0.56040029  1
  B  B34  1  0.77240577  0.09413313  0.31398320  1
  B  B35  1  0.50758061  0.22500807  0.66043728  1
  N  N36  1  0.20506225  0.21494939  0.40563601  1
  N  N37  1  0.10868655  0.09783650  0.14265822  1
  N  N38  1  0.89679042  0.20148737  0.88475529  1
  N  N39  1  0.82410476  0.09620536  0.62239824  1
  N  N40  1  0.57044471  0.19258445  0.31880993  1
  N  N41  1  0.46530708  0.11058542  0.09193007  1
  N  N42  1  0.22662220  0.20384517  0.89031462  1
  N  N43  1  0.15289134  0.09937069  0.62801204  1
  N  N44  1  0.85936211  0.20246986  0.38951051  1
  N  N45  1  0.76766093  0.10187084  0.14862088  1
  N  N46  1  0.55764837  0.20278556  0.80986430  1
  N  N47  1  0.48599369  0.10415075  0.58876410  1
  N  N48  1  0.21812840  0.54037979  0.37757262  1
  N  N49  1  0.10881549  0.42859974  0.13524243  1
  N  N50  1  0.89248314  0.53264426  0.87512592  1
  N  N51  1  0.78148743  0.39861413  0.61513302  1
  N  N52  1  0.54738942  0.54174416  0.37962277  1
  N  N53  1  0.45442592  0.40666440  0.12539043  1
  N  N54  1  0.22086819  0.53712690  0.87856406  1
  N  N55  1  0.11389657  0.40312948  0.62304585  1
  N  N56  1  0.88197489  0.54198564  0.37942493  1
  N  N57  1  0.77604250  0.42827636  0.13225019  1
  N  N58  1  0.56085590  0.53499513  0.87859089  1
  N  N59  1  0.44130687  0.41149539  0.62688404  1
  N  N60  1  0.21675222  0.87390527  0.38338042  1
  N  N61  1  0.11049565  0.76049147  0.12811433  1
  N  N62  1  0.88766870  0.87810928  0.88114197  1
  N  N63  1  0.78940542  0.75478872  0.62887699  1
  N  N64  1  0.54959377  0.87594555  0.37740711  1
  N  N65  1  0.44149001  0.76040045  0.13029533  1
  N  N66  1  0.22301361  0.87333515  0.87886068  1
  N  N67  1  0.11468258  0.75598403  0.62739833  1
  N  N68  1  0.87220961  0.90050694  0.36964188  1
  N  N69  1  0.78118132  0.75856525  0.13117375  1
  N  N70  1  0.56174899  0.86812875  0.87601210  1
  N  N71  1  0.45074186  0.75230899  0.63186823  1
