# generated using pymatgen
data_Al31B5N36
_symmetry_space_group_name_H-M   'P 1'
_cell_length_a   9.31354869
_cell_length_b   9.17261902
_cell_length_c   9.95150346
_cell_angle_alpha   90.27950671
_cell_angle_beta   89.91548693
_cell_angle_gamma   60.35720375
_symmetry_Int_Tables_number   1
_chemical_formula_structural   Al31B5N36
_chemical_formula_sum   'Al31 B5 N36'
_cell_volume   738.87393259
_cell_formula_units_Z   1
loop_
 _symmetry_equiv_pos_site_id
 _symmetry_equiv_pos_as_xyz
  1  'x, y, z'
loop_
 _atom_site_type_symbol
 _atom_site_label
 _atom_site_symmetry_multiplicity
 _atom_site_fract_x
 _atom_site_fract_y
 _atom_site_fract_z
 _atom_site_occupancy
  Al  Al0  1  0.09694514  0.09853633  0.33580922  1
  Al  Al1  1  0.22363484  0.20750850  0.07937684  1
  Al  Al2  1  0.79085517  0.09507545  0.80562223  1
  Al  Al3  1  0.44894298  0.10533796  0.40479445  1
  Al  Al4  1  0.11932454  0.09737283  0.81486229  1
  Al  Al5  1  0.88658638  0.20467007  0.07490822  1
  Al  Al6  1  0.45780951  0.09766493  0.89403016  1
  Al  Al7  1  0.10401631  0.43007770  0.32403733  1
  Al  Al8  1  0.22680731  0.53148346  0.07091628  1
  Al  Al9  1  0.78221994  0.41729907  0.81408688  1
  Al  Al10  1  0.88665171  0.52901735  0.56757463  1
  Al  Al11  1  0.44172765  0.42870762  0.31758734  1
  Al  Al12  1  0.55804100  0.53103506  0.06989564  1
  Al  Al13  1  0.11607889  0.41698647  0.81747071  1
  Al  Al14  1  0.22020000  0.52948286  0.56713782  1
  Al  Al15  1  0.76813301  0.42873964  0.32175196  1
  Al  Al16  1  0.88963095  0.53590276  0.06893903  1
  Al  Al17  1  0.44057976  0.43531759  0.82163464  1
  Al  Al18  1  0.55264266  0.52791331  0.56800248  1
  Al  Al19  1  0.10284942  0.76848393  0.31858504  1
  Al  Al20  1  0.21976433  0.87539315  0.07093586  1
  Al  Al21  1  0.78426653  0.75877995  0.82114607  1
  Al  Al22  1  0.89058877  0.88228716  0.56180210  1
  Al  Al23  1  0.43627798  0.76631340  0.32336170  1
  Al  Al24  1  0.55784725  0.87520178  0.09878294  1
  Al  Al25  1  0.10937622  0.76268347  0.81914931  1
  Al  Al26  1  0.22570837  0.87679595  0.57259086  1
  Al  Al27  1  0.77150375  0.76972033  0.32275065  1
  Al  Al28  1  0.88405897  0.87902497  0.07331302  1
  Al  Al29  1  0.44561515  0.76077725  0.82282709  1
  Al  Al30  1  0.56024681  0.87659465  0.60135852  1
  B  B31  1  0.83230317  0.22211653  0.54667405  1
  B  B32  1  0.55937036  0.19929020  0.15832479  1
  B  B33  1  0.16936335  0.22826543  0.56033264  1
  B  B34  1  0.77234075  0.09417272  0.31396255  1
  B  B35  1  0.50763284  0.22506527  0.66039493  1
  N  N36  1  0.20517417  0.21481924  0.40574812  1
  N  N37  1  0.10874003  0.09780922  0.14263044  1
  N  N38  1  0.89678208  0.20146806  0.88472561  1
  N  N39  1  0.82407777  0.09621945  0.62236349  1
  N  N40  1  0.57044845  0.19264357  0.31879544  1
  N  N41  1  0.46524451  0.11085947  0.09160470  1
  N  N42  1  0.22676864  0.20373645  0.89036536  1
  N  N43  1  0.15305585  0.09928713  0.62806449  1
  N  N44  1  0.85937853  0.20247062  0.38948020  1
  N  N45  1  0.76763089  0.10190382  0.14855534  1
  N  N46  1  0.55749427  0.20274202  0.80984202  1
  N  N47  1  0.48627377  0.10416957  0.58833785  1
  N  N48  1  0.21810287  0.54040077  0.37752837  1
  N  N49  1  0.10881360  0.42860605  0.13524425  1
  N  N50  1  0.89268011  0.53236343  0.87509718  1
  N  N51  1  0.78147193  0.39863694  0.61508312  1
  N  N52  1  0.54745118  0.54152953  0.37952745  1
  N  N53  1  0.45447775  0.40660093  0.12533983  1
  N  N54  1  0.22086909  0.53712891  0.87853079  1
  N  N55  1  0.11392012  0.40308194  0.62302996  1
  N  N56  1  0.88215857  0.54168906  0.37937116  1
  N  N57  1  0.77601798  0.42830239  0.13219597  1
  N  N58  1  0.56090886  0.53478492  0.87847481  1
  N  N59  1  0.44132259  0.41142141  0.62678965  1
  N  N60  1  0.21650451  0.87394669  0.38336039  1
  N  N61  1  0.11043505  0.76051476  0.12807546  1
  N  N62  1  0.88785199  0.87815784  0.88109377  1
  N  N63  1  0.79019171  0.75447815  0.62840341  1
  N  N64  1  0.54885842  0.87735501  0.36949463  1
  N  N65  1  0.44094437  0.75992725  0.12970899  1
  N  N66  1  0.22281115  0.87336191  0.87879589  1
  N  N67  1  0.11469070  0.75598229  0.62735738  1
  N  N68  1  0.87235603  0.90053955  0.36962228  1
  N  N69  1  0.78187321  0.75825327  0.13068484  1
  N  N70  1  0.56125924  0.86935217  0.86819853  1
  N  N71  1  0.45029081  0.75200374  0.63124080  1
