# generated using pymatgen
data_Al31B5N36
_symmetry_space_group_name_H-M   'P 1'
_cell_length_a   9.29347015
_cell_length_b   9.17468755
_cell_length_c   9.76721086
_cell_angle_alpha   90.01452112
_cell_angle_beta   89.30615363
_cell_angle_gamma   60.09921125
_symmetry_Int_Tables_number   1
_chemical_formula_structural   Al31B5N36
_chemical_formula_sum   'Al31 B5 N36'
_cell_volume   721.87235763
_cell_formula_units_Z   1
loop_
 _symmetry_equiv_pos_site_id
 _symmetry_equiv_pos_as_xyz
  1  'x, y, z'
loop_
 _atom_site_type_symbol
 _atom_site_label
 _atom_site_symmetry_multiplicity
 _atom_site_fract_x
 _atom_site_fract_y
 _atom_site_fract_z
 _atom_site_occupancy
  Al  Al0  1  0.09799584  0.09815427  0.31758607  1
  Al  Al1  1  0.22793764  0.20478739  0.05585077  1
  Al  Al2  1  0.77517618  0.10073267  0.80268315  1
  Al  Al3  1  0.44587231  0.10103245  0.31693185  1
  Al  Al4  1  0.11815289  0.09726615  0.79557254  1
  Al  Al5  1  0.88332404  0.20424459  0.05872455  1
  Al  Al6  1  0.45600789  0.09713046  0.80093992  1
  Al  Al7  1  0.10815500  0.42939956  0.30335266  1
  Al  Al8  1  0.22569833  0.53330095  0.05095697  1
  Al  Al9  1  0.78243785  0.41656396  0.79687386  1
  Al  Al10  1  0.89135314  0.52764859  0.54902472  1
  Al  Al11  1  0.45093670  0.41734926  0.30329860  1
  Al  Al12  1  0.55637204  0.53314790  0.05121087  1
  Al  Al13  1  0.11689053  0.41699629  0.79787415  1
  Al  Al14  1  0.22921111  0.52435155  0.55157362  1
  Al  Al15  1  0.77099468  0.42865236  0.30332408  1
  Al  Al16  1  0.88861381  0.53745123  0.04981151  1
  Al  Al17  1  0.45088436  0.41579130  0.80429760  1
  Al  Al18  1  0.55332320  0.53239477  0.55095732  1
  Al  Al19  1  0.10520554  0.76697363  0.30262321  1
  Al  Al20  1  0.21934068  0.87659800  0.05285773  1
  Al  Al21  1  0.78084055  0.76015233  0.80067196  1
  Al  Al22  1  0.88450782  0.88548074  0.54801204  1
  Al  Al23  1  0.44044250  0.76471563  0.30181537  1
  Al  Al24  1  0.55512933  0.88061136  0.05386125  1
  Al  Al25  1  0.11085901  0.76209895  0.80130433  1
  Al  Al26  1  0.22851527  0.87604453  0.55322021  1
  Al  Al27  1  0.77263618  0.76889353  0.30198691  1
  Al  Al28  1  0.87998274  0.88263075  0.05813058  1
  Al  Al29  1  0.44757865  0.76018724  0.80360236  1
  Al  Al30  1  0.56139688  0.87873585  0.55517776  1
  B  B31  1  0.82612351  0.23005088  0.53077002  1
  B  B32  1  0.55214829  0.20934491  0.06014971  1
  B  B33  1  0.17629901  0.22478704  0.53764814  1
  B  B34  1  0.76259097  0.09896326  0.30737582  1
  B  B35  1  0.56334776  0.20227387  0.54929940  1
  N  N36  1  0.21330724  0.21023877  0.38154259  1
  N  N37  1  0.10610886  0.09995897  0.12198712  1
  N  N38  1  0.89694256  0.19871724  0.86455504  1
  N  N39  1  0.77035603  0.12174295  0.60341289  1
  N  N40  1  0.57746072  0.19505913  0.37873177  1
  N  N41  1  0.45321355  0.11171820  0.11738427  1
  N  N42  1  0.23328503  0.19966517  0.86447953  1
  N  N43  1  0.14364761  0.10209028  0.60408720  1
  N  N44  1  0.86162677  0.20162929  0.37528402  1
  N  N45  1  0.75088870  0.11055624  0.13417285  1
  N  N46  1  0.56345512  0.20227308  0.89260712  1
  N  N47  1  0.49638846  0.09697824  0.61246368  1
  N  N48  1  0.22274919  0.53783172  0.35874675  1
  N  N49  1  0.10849056  0.42866064  0.11152443  1
  N  N50  1  0.89180214  0.53252453  0.85361616  1
  N  N51  1  0.78467326  0.39868355  0.59664248  1
  N  N52  1  0.54961458  0.54122641  0.35880160  1
  N  N53  1  0.45410690  0.40466159  0.10803719  1
  N  N54  1  0.22418072  0.53489516  0.85499235  1
  N  N55  1  0.11891866  0.39971692  0.60131550  1
  N  N56  1  0.88509986  0.54054120  0.35815017  1
  N  N57  1  0.77536593  0.42875387  0.11187533  1
  N  N58  1  0.55941398  0.53327188  0.85665998  1
  N  N59  1  0.45797408  0.39935011  0.60585334  1
  N  N60  1  0.21958319  0.87293122  0.36193554  1
  N  N61  1  0.10846808  0.76214364  0.10879830  1
  N  N62  1  0.88771444  0.87640771  0.86105337  1
  N  N63  1  0.78892091  0.75289580  0.60682056  1
  N  N64  1  0.55183199  0.87471212  0.36176790  1
  N  N65  1  0.44242715  0.76321681  0.10800033  1
  N  N66  1  0.22316579  0.87344218  0.85827097  1
  N  N67  1  0.11197185  0.76074774  0.60676064  1
  N  N68  1  0.87199061  0.90114873  0.35282746  1
  N  N69  1  0.77618022  0.76170866  0.10934356  1
  N  N70  1  0.55854631  0.87209539  0.86037624  1
  N  N71  1  0.45269624  0.75687329  0.61069886  1
