# generated using pymatgen
data_Al31B5N36
_symmetry_space_group_name_H-M   'P 1'
_cell_length_a   9.26934015
_cell_length_b   9.15005260
_cell_length_c   9.92038698
_cell_angle_alpha   89.97784684
_cell_angle_beta   89.48427738
_cell_angle_gamma   60.11091839
_symmetry_Int_Tables_number   1
_chemical_formula_structural   Al31B5N36
_chemical_formula_sum   'Al31 B5 N36'
_cell_volume   729.44664264
_cell_formula_units_Z   1
loop_
 _symmetry_equiv_pos_site_id
 _symmetry_equiv_pos_as_xyz
  1  'x, y, z'
loop_
 _atom_site_type_symbol
 _atom_site_label
 _atom_site_symmetry_multiplicity
 _atom_site_fract_x
 _atom_site_fract_y
 _atom_site_fract_z
 _atom_site_occupancy
  Al  Al0  1  0.09765542  0.09882363  0.32272032  1
  Al  Al1  1  0.22990868  0.20456364  0.06213753  1
  Al  Al2  1  0.77586722  0.10024790  0.80891626  1
  Al  Al3  1  0.44382399  0.09934338  0.32887725  1
  Al  Al4  1  0.11930972  0.09665041  0.80215067  1
  Al  Al5  1  0.88464079  0.20394396  0.06206128  1
  Al  Al6  1  0.45462787  0.09821377  0.80664583  1
  Al  Al7  1  0.10773974  0.42936425  0.30975838  1
  Al  Al8  1  0.22783341  0.53097774  0.05692225  1
  Al  Al9  1  0.78159580  0.41691097  0.80296133  1
  Al  Al10  1  0.89036291  0.52786317  0.55414443  1
  Al  Al11  1  0.44764538  0.42442734  0.31255583  1
  Al  Al12  1  0.55738063  0.53141364  0.05725490  1
  Al  Al13  1  0.11666330  0.41741115  0.80488545  1
  Al  Al14  1  0.22661808  0.52494439  0.55793635  1
  Al  Al15  1  0.77080477  0.42863451  0.30897498  1
  Al  Al16  1  0.88908079  0.53694544  0.05580433  1
  Al  Al17  1  0.45037871  0.41786119  0.81239410  1
  Al  Al18  1  0.55291104  0.53397168  0.55707969  1
  Al  Al19  1  0.10489845  0.76730068  0.30784617  1
  Al  Al20  1  0.22043490  0.87573360  0.05876816  1
  Al  Al21  1  0.78070776  0.76032280  0.80681470  1
  Al  Al22  1  0.88271356  0.88534548  0.55205015  1
  Al  Al23  1  0.44022446  0.76580811  0.30746600  1
  Al  Al24  1  0.55591104  0.88102579  0.05894509  1
  Al  Al25  1  0.11151646  0.76206140  0.80698878  1
  Al  Al26  1  0.22767786  0.87678349  0.55877351  1
  Al  Al27  1  0.77222482  0.76938365  0.30703307  1
  Al  Al28  1  0.88202339  0.88024036  0.06090102  1
  Al  Al29  1  0.44739724  0.76087489  0.81028537  1
  Al  Al30  1  0.56122080  0.87741887  0.56170993  1
  B  B31  1  0.82098611  0.23274096  0.53413510  1
  B  B32  1  0.55514775  0.20573314  0.13042955  1
  B  B33  1  0.17551512  0.22475283  0.54614602  1
  B  B34  1  0.76643849  0.09574598  0.30808946  1
  B  B35  1  0.56201688  0.20573669  0.59770539  1
  N  N36  1  0.21126779  0.21117696  0.39121593  1
  N  N37  1  0.10717815  0.09935052  0.12882764  1
  N  N38  1  0.89821641  0.19858754  0.86995792  1
  N  N39  1  0.76087550  0.12457936  0.60588658  1
  N  N40  1  0.57835791  0.19522672  0.34279262  1
  N  N41  1  0.45322579  0.10846713  0.13005178  1
  N  N42  1  0.23248585  0.20005583  0.87281388  1
  N  N43  1  0.14421536  0.10137552  0.61280593  1
  N  N44  1  0.86241106  0.20208265  0.38285675  1
  N  N45  1  0.75873872  0.10559036  0.14099314  1
  N  N46  1  0.56403073  0.20295424  0.86967034  1
  N  N47  1  0.48827695  0.09866664  0.61586196  1
  N  N48  1  0.22087690  0.53905541  0.36787688  1
  N  N49  1  0.10941514  0.42804955  0.11980107  1
  N  N50  1  0.89154554  0.53258375  0.86154340  1
  N  N51  1  0.78345045  0.39821920  0.60320364  1
  N  N52  1  0.55009581  0.54353318  0.36802624  1
  N  N53  1  0.45488769  0.40486849  0.11972822  1
  N  N54  1  0.22351110  0.53596006  0.86324328  1
  N  N55  1  0.11743494  0.40031012  0.60965274  1
  N  N56  1  0.88473189  0.54097332  0.36534852  1
  N  N57  1  0.77629365  0.42745480  0.11946072  1
  N  N58  1  0.55947658  0.53505656  0.86524824  1
  N  N59  1  0.45646374  0.40134775  0.61305395  1
  N  N60  1  0.21942727  0.87336652  0.36934320  1
  N  N61  1  0.11007481  0.76067504  0.11622554  1
  N  N62  1  0.88959504  0.87477603  0.86719586  1
  N  N63  1  0.78803702  0.75306495  0.61483943  1
  N  N64  1  0.55296776  0.87260426  0.37149961  1
  N  N65  1  0.44369867  0.76255035  0.11582462  1
  N  N66  1  0.22360911  0.87311006  0.86645459  1
  N  N67  1  0.11065888  0.76208820  0.61424328  1
  N  N68  1  0.87308519  0.89969180  0.35965409  1
  N  N69  1  0.77678420  0.76156509  0.11639309  1
  N  N70  1  0.55854985  0.87251458  0.86762193  1
  N  N71  1  0.45161317  0.75706168  0.61939780  1
