# generated using pymatgen
data_Al31B5N36
_symmetry_space_group_name_H-M   'P 1'
_cell_length_a   9.32254617
_cell_length_b   9.23464529
_cell_length_c   10.05362998
_cell_angle_alpha   89.51661855
_cell_angle_beta   90.26199174
_cell_angle_gamma   59.78018868
_symmetry_Int_Tables_number   1
_chemical_formula_structural   Al31B5N36
_chemical_formula_sum   'Al31 B5 N36'
_cell_volume   747.83192102
_cell_formula_units_Z   1
loop_
 _symmetry_equiv_pos_site_id
 _symmetry_equiv_pos_as_xyz
  1  'x, y, z'
loop_
 _atom_site_type_symbol
 _atom_site_label
 _atom_site_symmetry_multiplicity
 _atom_site_fract_x
 _atom_site_fract_y
 _atom_site_fract_z
 _atom_site_occupancy
  Al  Al0  1  0.10153949  0.09427482  0.32043558  1
  Al  Al1  1  0.22484041  0.20696211  0.07034902  1
  Al  Al2  1  0.78540056  0.09916702  0.80685564  1
  Al  Al3  1  0.44940034  0.10243750  0.40099983  1
  Al  Al4  1  0.10492916  0.10213834  0.82167165  1
  Al  Al5  1  0.88511772  0.20129532  0.10086801  1
  Al  Al6  1  0.45621938  0.09345067  0.88780240  1
  Al  Al7  1  0.10600615  0.42966595  0.32294786  1
  Al  Al8  1  0.22183574  0.53536573  0.07218653  1
  Al  Al9  1  0.77379281  0.42543225  0.89707990  1
  Al  Al10  1  0.88847297  0.53765260  0.56720634  1
  Al  Al11  1  0.45275827  0.41144083  0.38684647  1
  Al  Al12  1  0.55651602  0.52655979  0.14431870  1
  Al  Al13  1  0.11558381  0.41894510  0.81547165  1
  Al  Al14  1  0.21697517  0.53393112  0.56746261  1
  Al  Al15  1  0.77585666  0.40870460  0.38177387  1
  Al  Al16  1  0.89295004  0.53909463  0.07815137  1
  Al  Al17  1  0.45405836  0.41601435  0.88948436  1
  Al  Al18  1  0.56586357  0.51434521  0.63557214  1
  Al  Al19  1  0.10258487  0.76937494  0.31541731  1
  Al  Al20  1  0.22419366  0.87294988  0.06447854  1
  Al  Al21  1  0.78163441  0.75956832  0.85463540  1
  Al  Al22  1  0.89065163  0.89395780  0.55898217  1
  Al  Al23  1  0.43353202  0.76613892  0.32553886  1
  Al  Al24  1  0.55351786  0.88437579  0.14044979  1
  Al  Al25  1  0.10869551  0.76110167  0.81516502  1
  Al  Al26  1  0.22105172  0.87744562  0.56836626  1
  Al  Al27  1  0.77251464  0.77143291  0.34942839  1
  Al  Al28  1  0.88253055  0.88112641  0.06905027  1
  Al  Al29  1  0.44010728  0.76128895  0.81535318  1
  Al  Al30  1  0.56401097  0.88223973  0.63560072  1
  B  B31  1  0.90142464  0.20685194  0.60469485  1
  B  B32  1  0.55291359  0.20326644  0.14626666  1
  B  B33  1  0.15692697  0.23978193  0.55489291  1
  B  B34  1  0.77540727  0.09431779  0.29548591  1
  B  B35  1  0.50299861  0.22957634  0.65023219  1
  N  N36  1  0.20009396  0.21345649  0.40797150  1
  N  N37  1  0.12243417  0.09158525  0.13289078  1
  N  N38  1  0.89274302  0.19496306  0.89442603  1
  N  N39  1  0.83525285  0.09913567  0.62907874  1
  N  N40  1  0.55857842  0.20059185  0.30694752  1
  N  N41  1  0.46296796  0.10886415  0.08053695  1
  N  N42  1  0.22321346  0.20187982  0.88159826  1
  N  N43  1  0.09666865  0.12778145  0.61922934  1
  N  N44  1  0.87036606  0.19167858  0.32359992  1
  N  N45  1  0.75552809  0.09775549  0.13634207  1
  N  N46  1  0.54571710  0.21065816  0.80012873  1
  N  N47  1  0.48218904  0.10379057  0.58344061  1
  N  N48  1  0.21381509  0.54325710  0.37829601  1
  N  N49  1  0.11480877  0.42359874  0.13683568  1
  N  N50  1  0.89784279  0.53241363  0.87794424  1
  N  N51  1  0.79447242  0.39522462  0.58137798  1
  N  N52  1  0.55192787  0.53281029  0.33748944  1
  N  N53  1  0.46233593  0.39675842  0.08265364  1
  N  N54  1  0.21899336  0.53722143  0.87769514  1
  N  N55  1  0.11654528  0.40290000  0.62152602  1
  N  N56  1  0.88369725  0.53822575  0.37487625  1
  N  N57  1  0.77028221  0.43438011  0.08767945  1
  N  N58  1  0.56033059  0.52721055  0.82606984  1
  N  N59  1  0.45419570  0.39711862  0.58267891  1
  N  N60  1  0.21551635  0.87414005  0.38248633  1
  N  N61  1  0.11076924  0.76309030  0.12628852  1
  N  N62  1  0.88755881  0.87930975  0.87805084  1
  N  N63  1  0.78918549  0.76373279  0.59926358  1
  N  N64  1  0.54291744  0.88679550  0.33547253  1
  N  N65  1  0.44050958  0.76209582  0.12701324  1
  N  N66  1  0.22116860  0.87293507  0.87273841  1
  N  N67  1  0.11655518  0.75571606  0.62598939  1
  N  N68  1  0.87217663  0.90570208  0.36560305  1
  N  N69  1  0.77882631  0.76236821  0.11311298  1
  N  N70  1  0.55668554  0.87475880  0.83030430  1
  N  N71  1  0.44731129  0.76021536  0.61946812  1
