# generated using pymatgen
data_Al31B5N36
_symmetry_space_group_name_H-M   'P 1'
_cell_length_a   9.28203206
_cell_length_b   9.19997232
_cell_length_c   10.14288212
_cell_angle_alpha   89.48576685
_cell_angle_beta   90.22953624
_cell_angle_gamma   59.77311042
_symmetry_Int_Tables_number   1
_chemical_formula_structural   Al31B5N36
_chemical_formula_sum   'Al31 B5 N36'
_cell_volume   748.31679809
_cell_formula_units_Z   1
loop_
 _symmetry_equiv_pos_site_id
 _symmetry_equiv_pos_as_xyz
  1  'x, y, z'
loop_
 _atom_site_type_symbol
 _atom_site_label
 _atom_site_symmetry_multiplicity
 _atom_site_fract_x
 _atom_site_fract_y
 _atom_site_fract_z
 _atom_site_occupancy
  Al  Al0  1  0.10012649  0.09491361  0.32011847  1
  Al  Al1  1  0.22309839  0.20840482  0.07125411  1
  Al  Al2  1  0.78473253  0.09867009  0.80732463  1
  Al  Al3  1  0.45156312  0.10074239  0.40138740  1
  Al  Al4  1  0.10442388  0.10163582  0.82238849  1
  Al  Al5  1  0.88482334  0.20191423  0.09773489  1
  Al  Al6  1  0.45674483  0.09266738  0.88912634  1
  Al  Al7  1  0.11259100  0.42687186  0.32672110  1
  Al  Al8  1  0.21979637  0.53525437  0.07233150  1
  Al  Al9  1  0.77788264  0.42928620  0.89634475  1
  Al  Al10  1  0.88282684  0.53724544  0.63300032  1
  Al  Al11  1  0.45476143  0.41154324  0.38781901  1
  Al  Al12  1  0.55742623  0.52520742  0.14397711  1
  Al  Al13  1  0.12121752  0.41639539  0.81529133  1
  Al  Al14  1  0.21709994  0.53459833  0.56682860  1
  Al  Al15  1  0.77767986  0.41186278  0.38639796  1
  Al  Al16  1  0.87981961  0.54248581  0.14630628  1
  Al  Al17  1  0.45459493  0.41597520  0.89087592  1
  Al  Al18  1  0.56554921  0.51398731  0.63756810  1
  Al  Al19  1  0.10090623  0.77042169  0.31572662  1
  Al  Al20  1  0.22483531  0.87254240  0.06473776  1
  Al  Al21  1  0.77791832  0.75383840  0.88970495  1
  Al  Al22  1  0.89267696  0.89612897  0.55871307  1
  Al  Al23  1  0.43388584  0.76644861  0.32267807  1
  Al  Al24  1  0.55793051  0.88358044  0.14180607  1
  Al  Al25  1  0.10679779  0.76184460  0.81547590  1
  Al  Al26  1  0.22333396  0.87703211  0.56786293  1
  Al  Al27  1  0.76959715  0.76816118  0.38765010  1
  Al  Al28  1  0.88446784  0.88174437  0.06715803  1
  Al  Al29  1  0.44053246  0.76135784  0.81541927  1
  Al  Al30  1  0.56782077  0.88169717  0.64021141  1
  B  B31  1  0.90243707  0.20699229  0.60430360  1
  B  B32  1  0.55221153  0.20360128  0.14655447  1
  B  B33  1  0.15613084  0.24122016  0.55444393  1
  B  B34  1  0.77519574  0.09439178  0.29619885  1
  B  B35  1  0.50408152  0.22917736  0.65006578  1
  N  N36  1  0.20064839  0.21228754  0.40938663  1
  N  N37  1  0.12157178  0.09142237  0.13378124  1
  N  N38  1  0.89164541  0.19606690  0.89493521  1
  N  N39  1  0.83384780  0.10127645  0.63048627  1
  N  N40  1  0.55733416  0.20153236  0.30633303  1
  N  N41  1  0.46333788  0.10844660  0.08050439  1
  N  N42  1  0.22189677  0.20215527  0.88394432  1
  N  N43  1  0.09682086  0.12828163  0.61990269  1
  N  N44  1  0.86833129  0.19430647  0.32518571  1
  N  N45  1  0.75633622  0.09656038  0.13775700  1
  N  N46  1  0.54356646  0.21172162  0.79963763  1
  N  N47  1  0.48682638  0.10141558  0.58260854  1
  N  N48  1  0.21470869  0.54485162  0.38045065  1
  N  N49  1  0.11607613  0.42302175  0.13939435  1
  N  N50  1  0.88615233  0.53640595  0.82213453  1
  N  N51  1  0.79568258  0.39764993  0.57904019  1
  N  N52  1  0.55347730  0.53259959  0.33598840  1
  N  N53  1  0.46253903  0.39641529  0.08230610  1
  N  N54  1  0.21747985  0.53801286  0.88007844  1
  N  N55  1  0.12180233  0.40097766  0.62021152  1
  N  N56  1  0.87775401  0.54116780  0.33576068  1
  N  N57  1  0.77195461  0.43703821  0.08207946  1
  N  N58  1  0.56102966  0.52646390  0.82669623  1
  N  N59  1  0.45552616  0.39691592  0.58237039  1
  N  N60  1  0.21616737  0.87422687  0.38317419  1
  N  N61  1  0.11031010  0.76288899  0.12786457  1
  N  N62  1  0.88629743  0.87859133  0.87667227  1
  N  N63  1  0.78692552  0.76024731  0.57577103  1
  N  N64  1  0.54731520  0.88507430  0.33238084  1
  N  N65  1  0.44155918  0.76220394  0.12777880  1
  N  N66  1  0.22137043  0.87231248  0.87429104  1
  N  N67  1  0.11668877  0.75622021  0.62738225  1
  N  N68  1  0.87076736  0.90586549  0.36596669  1
  N  N69  1  0.77564448  0.75798972  0.07906429  1
  N  N70  1  0.55932682  0.87417048  0.82928559  1
  N  N71  1  0.44886325  0.76018862  0.62150202  1
