# generated using pymatgen
data_Al31B5N36
_symmetry_space_group_name_H-M   'P 1'
_cell_length_a   9.29393266
_cell_length_b   9.15654353
_cell_length_c   9.98402538
_cell_angle_alpha   90.37444271
_cell_angle_beta   89.93039705
_cell_angle_gamma   60.42246105
_symmetry_Int_Tables_number   1
_chemical_formula_structural   Al31B5N36
_chemical_formula_sum   'Al31 B5 N36'
_cell_volume   738.89980519
_cell_formula_units_Z   1
loop_
 _symmetry_equiv_pos_site_id
 _symmetry_equiv_pos_as_xyz
  1  'x, y, z'
loop_
 _atom_site_type_symbol
 _atom_site_label
 _atom_site_symmetry_multiplicity
 _atom_site_fract_x
 _atom_site_fract_y
 _atom_site_fract_z
 _atom_site_occupancy
  Al  Al0  1  0.09657950  0.09854881  0.33165295  1
  Al  Al1  1  0.22531590  0.20636064  0.07586068  1
  Al  Al2  1  0.79132819  0.09472333  0.80133663  1
  Al  Al3  1  0.44644839  0.10913556  0.40160391  1
  Al  Al4  1  0.11915766  0.09740830  0.81079322  1
  Al  Al5  1  0.88685972  0.20421261  0.07093662  1
  Al  Al6  1  0.45631827  0.10038334  0.88885033  1
  Al  Al7  1  0.10303336  0.43108892  0.31982567  1
  Al  Al8  1  0.22727199  0.53121068  0.06672942  1
  Al  Al9  1  0.78210691  0.41751007  0.81022371  1
  Al  Al10  1  0.88667042  0.52912179  0.56349339  1
  Al  Al11  1  0.44171130  0.42918629  0.31281560  1
  Al  Al12  1  0.55809769  0.53102996  0.06623813  1
  Al  Al13  1  0.11520316  0.41803120  0.81345776  1
  Al  Al14  1  0.22030503  0.52960170  0.56303414  1
  Al  Al15  1  0.76807276  0.42874063  0.31770932  1
  Al  Al16  1  0.89022852  0.53551858  0.06516350  1
  Al  Al17  1  0.44062647  0.43599812  0.81703508  1
  Al  Al18  1  0.55252444  0.52806143  0.56401729  1
  Al  Al19  1  0.10311834  0.76849211  0.31464440  1
  Al  Al20  1  0.22126788  0.87496880  0.06745568  1
  Al  Al21  1  0.78176065  0.76024734  0.81582776  1
  Al  Al22  1  0.89053978  0.88193912  0.55788291  1
  Al  Al23  1  0.43781713  0.76754649  0.31838411  1
  Al  Al24  1  0.56216159  0.86910332  0.07226171  1
  Al  Al25  1  0.10949006  0.76287766  0.81542288  1
  Al  Al26  1  0.22652627  0.87675403  0.56866924  1
  Al  Al27  1  0.76865015  0.77154384  0.31696025  1
  Al  Al28  1  0.88434008  0.87852748  0.06964945  1
  Al  Al29  1  0.44677824  0.76181180  0.81757615  1
  Al  Al30  1  0.56328234  0.87123694  0.57542322  1
  B  B31  1  0.83240814  0.22202299  0.54299591  1
  B  B32  1  0.55954496  0.19719431  0.15405735  1
  B  B33  1  0.16915564  0.22848679  0.55690514  1
  B  B34  1  0.77248721  0.09392283  0.31016453  1
  B  B35  1  0.50745174  0.22430967  0.65614031  1
  N  N36  1  0.20402041  0.21580572  0.40199447  1
  N  N37  1  0.10898847  0.09760975  0.13895579  1
  N  N38  1  0.89667519  0.20164581  0.88101979  1
  N  N39  1  0.82437896  0.09594141  0.61850481  1
  N  N40  1  0.56993966  0.19220054  0.31431491  1
  N  N41  1  0.46647341  0.10888293  0.08708207  1
  N  N42  1  0.22601101  0.20461258  0.88647713  1
  N  N43  1  0.15232404  0.09970611  0.62428046  1
  N  N44  1  0.85902740  0.20250221  0.38584364  1
  N  N45  1  0.76808812  0.10127898  0.14516094  1
  N  N46  1  0.55787776  0.20279895  0.80512084  1
  N  N47  1  0.48563070  0.10319855  0.58501004  1
  N  N48  1  0.21818231  0.54050039  0.37390725  1
  N  N49  1  0.10930556  0.42819485  0.13152422  1
  N  N50  1  0.89179529  0.53369189  0.87138599  1
  N  N51  1  0.78151621  0.39857931  0.61132998  1
  N  N52  1  0.54723666  0.54234476  0.37577183  1
  N  N53  1  0.45454805  0.40648710  0.12153234  1
  N  N54  1  0.22102066  0.53733368  0.87485420  1
  N  N55  1  0.11365017  0.40356561  0.61936809  1
  N  N56  1  0.88109664  0.54318664  0.37552237  1
  N  N57  1  0.77635906  0.42788816  0.12855052  1
  N  N58  1  0.56073819  0.53573130  0.87492353  1
  N  N59  1  0.44126621  0.41139961  0.62301784  1
  N  N60  1  0.21756204  0.87396498  0.37950213  1
  N  N61  1  0.11106098  0.76031371  0.12443050  1
  N  N62  1  0.88728484  0.87809393  0.87736286  1
  N  N63  1  0.78838489  0.75506430  0.62514884  1
  N  N64  1  0.55033947  0.87463261  0.38082323  1
  N  N65  1  0.44324089  0.76089130  0.12678775  1
  N  N66  1  0.22384037  0.87340551  0.87524867  1
  N  N67  1  0.11489507  0.75614277  0.62380773  1
  N  N68  1  0.87188463  0.90038606  0.36575455  1
  N  N69  1  0.78039958  0.75862575  0.12731458  1
  N  N70  1  0.56232956  0.86691124  0.87833566  1
  N  N71  1  0.45193183  0.75260642  0.62819225  1
