# generated using pymatgen
data_Al31B5N36
_symmetry_space_group_name_H-M   'P 1'
_cell_length_a   9.26804999
_cell_length_b   9.14930627
_cell_length_c   9.91825242
_cell_angle_alpha   89.97651686
_cell_angle_beta   89.47529988
_cell_angle_gamma   60.10859239
_symmetry_Int_Tables_number   1
_chemical_formula_structural   Al31B5N36
_chemical_formula_sum   'Al31 B5 N36'
_cell_volume   729.11043204
_cell_formula_units_Z   1
loop_
 _symmetry_equiv_pos_site_id
 _symmetry_equiv_pos_as_xyz
  1  'x, y, z'
loop_
 _atom_site_type_symbol
 _atom_site_label
 _atom_site_symmetry_multiplicity
 _atom_site_fract_x
 _atom_site_fract_y
 _atom_site_fract_z
 _atom_site_occupancy
  Al  Al0  1  0.09763699  0.09884447  0.32284971  1
  Al  Al1  1  0.22969583  0.20464083  0.06216514  1
  Al  Al2  1  0.77576552  0.10029883  0.80875276  1
  Al  Al3  1  0.44443871  0.09977487  0.32899357  1
  Al  Al4  1  0.11929369  0.09665276  0.80214667  1
  Al  Al5  1  0.88454164  0.20400942  0.06216715  1
  Al  Al6  1  0.45473985  0.09818703  0.80667164  1
  Al  Al7  1  0.10780043  0.42934455  0.30983900  1
  Al  Al8  1  0.22759516  0.53114843  0.05694943  1
  Al  Al9  1  0.78161793  0.41689907  0.80293562  1
  Al  Al10  1  0.89036112  0.52787021  0.55415305  1
  Al  Al11  1  0.44838302  0.42312467  0.31278390  1
  Al  Al12  1  0.55746039  0.53155800  0.05728244  1
  Al  Al13  1  0.11668678  0.41740019  0.80485225  1
  Al  Al14  1  0.22672787  0.52493504  0.55790550  1
  Al  Al15  1  0.77081696  0.42860827  0.30906507  1
  Al  Al16  1  0.88908890  0.53693458  0.05580927  1
  Al  Al17  1  0.45045253  0.41769071  0.81220712  1
  Al  Al18  1  0.55285827  0.53390123  0.55702255  1
  Al  Al19  1  0.10492704  0.76726652  0.30793167  1
  Al  Al20  1  0.22040857  0.87575356  0.05875169  1
  Al  Al21  1  0.78070497  0.76033104  0.80679095  1
  Al  Al22  1  0.88269751  0.88543019  0.55203434  1
  Al  Al23  1  0.44020320  0.76579052  0.30755702  1
  Al  Al24  1  0.55602499  0.88081016  0.05897869  1
  Al  Al25  1  0.11150235  0.76206156  0.80698339  1
  Al  Al26  1  0.22768015  0.87677174  0.55878373  1
  Al  Al27  1  0.77223461  0.76939460  0.30711161  1
  Al  Al28  1  0.88191897  0.88026741  0.06102992  1
  Al  Al29  1  0.44740859  0.76084819  0.81025578  1
  Al  Al30  1  0.56113431  0.87756572  0.56169536  1
  B  B31  1  0.82118356  0.23262796  0.53424864  1
  B  B32  1  0.55493433  0.20590794  0.12308292  1
  B  B33  1  0.17565583  0.22470411  0.54612615  1
  B  B34  1  0.76496309  0.09644186  0.30885811  1
  B  B35  1  0.56206482  0.20555779  0.59426428  1
  N  N36  1  0.21144908  0.21110710  0.39113308  1
  N  N37  1  0.10712529  0.09933869  0.12886324  1
  N  N38  1  0.89815720  0.19857615  0.87008140  1
  N  N39  1  0.76127582  0.12446152  0.60633909  1
  N  N40  1  0.57884003  0.19504337  0.34871056  1
  N  N41  1  0.45366115  0.10889468  0.12977360  1
  N  N42  1  0.23253805  0.20003264  0.87289151  1
  N  N43  1  0.14420550  0.10139708  0.61280595  1
  N  N44  1  0.86250408  0.20216778  0.38288133  1
  N  N45  1  0.75718821  0.10635594  0.14097147  1
  N  N46  1  0.56402702  0.20287671  0.87180843  1
  N  N47  1  0.48839384  0.09859831  0.61646357  1
  N  N48  1  0.22110719  0.53891662  0.36775721  1
  N  N49  1  0.10941151  0.42804802  0.11982917  1
  N  N50  1  0.89155546  0.53257890  0.86155655  1
  N  N51  1  0.78345380  0.39826805  0.60324856  1
  N  N52  1  0.55000942  0.54346839  0.36787151  1
  N  N53  1  0.45516921  0.40433042  0.11958463  1
  N  N54  1  0.22357160  0.53590874  0.86334702  1
  N  N55  1  0.11747044  0.40030906  0.60963961  1
  N  N56  1  0.88474130  0.54097702  0.36534231  1
  N  N57  1  0.77629199  0.42747894  0.11948807  1
  N  N58  1  0.55944986  0.53497927  0.86532732  1
  N  N59  1  0.45642373  0.40137600  0.61337973  1
  N  N60  1  0.21941019  0.87337247  0.36935221  1
  N  N61  1  0.11002031  0.76075652  0.11624016  1
  N  N62  1  0.88952629  0.87484718  0.86729963  1
  N  N63  1  0.78803114  0.75307196  0.61483121  1
  N  N64  1  0.55284986  0.87276647  0.37135047  1
  N  N65  1  0.44364270  0.76259612  0.11585429  1
  N  N66  1  0.22360298  0.87311041  0.86646093  1
  N  N67  1  0.11066592  0.76205614  0.61425494  1
  N  N68  1  0.87310106  0.89965277  0.35955850  1
  N  N69  1  0.77679790  0.76151222  0.11642284  1
  N  N70  1  0.55854101  0.87249333  0.86774660  1
  N  N71  1  0.45164929  0.75703610  0.61938030  1
