# generated using pymatgen
data_Al31B5N36
_symmetry_space_group_name_H-M   'P 1'
_cell_length_a   9.38975023
_cell_length_b   9.13294715
_cell_length_c   10.10572886
_cell_angle_alpha   89.86761291
_cell_angle_beta   90.35749898
_cell_angle_gamma   60.78914628
_symmetry_Int_Tables_number   1
_chemical_formula_structural   Al31B5N36
_chemical_formula_sum   'Al31 B5 N36'
_cell_volume   756.38948844
_cell_formula_units_Z   1
loop_
 _symmetry_equiv_pos_site_id
 _symmetry_equiv_pos_as_xyz
  1  'x, y, z'
loop_
 _atom_site_type_symbol
 _atom_site_label
 _atom_site_symmetry_multiplicity
 _atom_site_fract_x
 _atom_site_fract_y
 _atom_site_fract_z
 _atom_site_occupancy
  Al  Al0  1  0.12074604  0.09088948  0.32637123  1
  Al  Al1  1  0.21263974  0.21216312  0.06830532  1
  Al  Al2  1  0.77546879  0.09511359  0.86697545  1
  Al  Al3  1  0.44776845  0.10137252  0.39871792  1
  Al  Al4  1  0.11490005  0.09568423  0.79971139  1
  Al  Al5  1  0.88146026  0.20005189  0.14034151  1
  Al  Al6  1  0.44583504  0.09688044  0.88374088  1
  Al  Al7  1  0.11339825  0.42822393  0.32528753  1
  Al  Al8  1  0.21185776  0.54073647  0.06889029  1
  Al  Al9  1  0.77746395  0.42189099  0.88533620  1
  Al  Al10  1  0.88138562  0.53081443  0.63580749  1
  Al  Al11  1  0.44559824  0.42007007  0.38513687  1
  Al  Al12  1  0.55480634  0.52946542  0.13807822  1
  Al  Al13  1  0.11460607  0.41878277  0.81488451  1
  Al  Al14  1  0.21706447  0.53084604  0.56939793  1
  Al  Al15  1  0.77804891  0.41675694  0.39090751  1
  Al  Al16  1  0.87812073  0.54346721  0.14126692  1
  Al  Al17  1  0.44697895  0.41896631  0.88710169  1
  Al  Al18  1  0.55321861  0.52781050  0.64108923  1
  Al  Al19  1  0.11234597  0.76607077  0.32182435  1
  Al  Al20  1  0.21416219  0.88003717  0.06976925  1
  Al  Al21  1  0.77678068  0.75990190  0.88256982  1
  Al  Al22  1  0.89332486  0.87559201  0.62438783  1
  Al  Al23  1  0.45859557  0.75385638  0.38602688  1
  Al  Al24  1  0.55388801  0.88438418  0.13996136  1
  Al  Al25  1  0.11495446  0.75913679  0.81564264  1
  Al  Al26  1  0.22997193  0.87392294  0.56707766  1
  Al  Al27  1  0.77725985  0.77368595  0.39283830  1
  Al  Al28  1  0.88380422  0.88432959  0.11253337  1
  Al  Al29  1  0.44634434  0.76000995  0.88878649  1
  Al  Al30  1  0.56233038  0.87630736  0.63941792  1
  B  B31  1  0.84149416  0.22948881  0.63852065  1
  B  B32  1  0.48040567  0.24185592  0.15018267  1
  B  B33  1  0.16916869  0.22809427  0.55687610  1
  B  B34  1  0.85792733  0.06854654  0.41658284  1
  B  B35  1  0.50524363  0.22679350  0.64869504  1
  N  N36  1  0.20652178  0.21569113  0.40853735  1
  N  N37  1  0.11780791  0.09574900  0.13972412  1
  N  N38  1  0.87525509  0.21209218  0.78819130  1
  N  N39  1  0.84157110  0.09258509  0.56133494  1
  N  N40  1  0.49661106  0.23192282  0.29087655  1
  N  N41  1  0.44932544  0.11317400  0.07580329  1
  N  N42  1  0.21310764  0.20566786  0.88347143  1
  N  N43  1  0.16286920  0.09215412  0.62223703  1
  N  N44  1  0.88454446  0.19004928  0.33338986  1
  N  N45  1  0.79719159  0.09272070  0.04698027  1
  N  N46  1  0.54474574  0.21059027  0.79979208  1
  N  N47  1  0.49922715  0.09399147  0.57900647  1
  N  N48  1  0.21241873  0.54818652  0.38431389  1
  N  N49  1  0.10973560  0.42739243  0.13599414  1
  N  N50  1  0.88382042  0.53665267  0.82562818  1
  N  N51  1  0.77892080  0.40392640  0.58061686  1
  N  N52  1  0.55874119  0.53034719  0.32737244  1
  N  N53  1  0.44748483  0.40600040  0.07848899  1
  N  N54  1  0.21445281  0.53866748  0.87862699  1
  N  N55  1  0.11658188  0.40045604  0.62190665  1
  N  N56  1  0.87856285  0.54470805  0.33286455  1
  N  N57  1  0.77679119  0.42371548  0.07616611  1
  N  N58  1  0.55290989  0.53591854  0.82968257  1
  N  N59  1  0.45362857  0.39799776  0.58272690  1
  N  N60  1  0.22839686  0.86988964  0.37877143  1
  N  N61  1  0.11248328  0.75963363  0.13186840  1
  N  N62  1  0.88348477  0.87144322  0.81615526  1
  N  N63  1  0.78380331  0.75372153  0.57865789  1
  N  N64  1  0.55619928  0.87960947  0.32861084  1
  N  N65  1  0.44858518  0.75941041  0.08037910  1
  N  N66  1  0.21293705  0.88013447  0.87884909  1
  N  N67  1  0.12875440  0.75126883  0.62940575  1
  N  N68  1  0.88567734  0.90268617  0.35867250  1
  N  N69  1  0.77486720  0.76481006  0.07483003  1
  N  N70  1  0.55374565  0.87353016  0.82800276  1
  N  N71  1  0.46347244  0.74859896  0.57705049  1
