# generated using pymatgen
data_Al31B5N36
_symmetry_space_group_name_H-M   'P 1'
_cell_length_a   9.29347044
_cell_length_b   9.17469147
_cell_length_c   9.76721072
_cell_angle_alpha   90.01450554
_cell_angle_beta   89.30615116
_cell_angle_gamma   60.09920720
_symmetry_Int_Tables_number   1
_chemical_formula_structural   Al31B5N36
_chemical_formula_sum   'Al31 B5 N36'
_cell_volume   721.87264963
_cell_formula_units_Z   1
loop_
 _symmetry_equiv_pos_site_id
 _symmetry_equiv_pos_as_xyz
  1  'x, y, z'
loop_
 _atom_site_type_symbol
 _atom_site_label
 _atom_site_symmetry_multiplicity
 _atom_site_fract_x
 _atom_site_fract_y
 _atom_site_fract_z
 _atom_site_occupancy
  Al  Al0  1  0.09805368  0.09813355  0.31492601  1
  Al  Al1  1  0.22799515  0.20476759  0.05318872  1
  Al  Al2  1  0.77523351  0.10071230  0.80002409  1
  Al  Al3  1  0.44592980  0.10101186  0.31426934  1
  Al  Al4  1  0.11821113  0.09724501  0.79291626  1
  Al  Al5  1  0.88338125  0.20422416  0.05606479  1
  Al  Al6  1  0.45606689  0.09710895  0.79828203  1
  Al  Al7  1  0.10821348  0.42937818  0.30069572  1
  Al  Al8  1  0.22575560  0.53328041  0.04829853  1
  Al  Al9  1  0.78249533  0.41654349  0.79421695  1
  Al  Al10  1  0.89141074  0.52762728  0.54636366  1
  Al  Al11  1  0.45099382  0.41732899  0.30064413  1
  Al  Al12  1  0.55642980  0.53312681  0.04855517  1
  Al  Al13  1  0.11694811  0.41697578  0.79521275  1
  Al  Al14  1  0.22926937  0.52433073  0.54891826  1
  Al  Al15  1  0.77105217  0.42863154  0.30066730  1
  Al  Al16  1  0.88867189  0.53743059  0.04715032  1
  Al  Al17  1  0.45094217  0.41577068  0.80164273  1
  Al  Al18  1  0.55338071  0.53237440  0.54830269  1
  Al  Al19  1  0.10526324  0.76695260  0.29996889  1
  Al  Al20  1  0.21939837  0.87657635  0.05020458  1
  Al  Al21  1  0.78089737  0.76013204  0.79801048  1
  Al  Al22  1  0.88456495  0.88546084  0.54535186  1
  Al  Al23  1  0.44049999  0.76469461  0.29916102  1
  Al  Al24  1  0.55518812  0.88058935  0.05120660  1
  Al  Al25  1  0.11091692  0.76207885  0.79864646  1
  Al  Al26  1  0.22857266  0.87602471  0.55056573  1
  Al  Al27  1  0.77269469  0.76887245  0.29933029  1
  Al  Al28  1  0.88004074  0.88260904  0.05546893  1
  Al  Al29  1  0.44763632  0.76016724  0.80094926  1
  Al  Al30  1  0.56145339  0.87871592  0.55251904  1
  B  B31  1  0.82618108  0.23003040  0.52811124  1
  B  B32  1  0.55220687  0.20932394  0.05749165  1
  B  B33  1  0.17635689  0.22476561  0.53498939  1
  B  B34  1  0.76264861  0.09894237  0.30471641  1
  B  B35  1  0.56340648  0.20225213  0.54664154  1
  N  N36  1  0.21336537  0.21021690  0.37888387  1
  N  N37  1  0.10616659  0.09993892  0.11932739  1
  N  N38  1  0.89700024  0.19869638  0.86189588  1
  N  N39  1  0.77041322  0.12172247  0.60075364  1
  N  N40  1  0.57751817  0.19503782  0.37607297  1
  N  N41  1  0.45327090  0.11169754  0.11472398  1
  N  N42  1  0.23334312  0.19964538  0.86181864  1
  N  N43  1  0.14370498  0.10206983  0.60143057  1
  N  N44  1  0.86168465  0.20160853  0.37262524  1
  N  N45  1  0.75094635  0.11053504  0.13151331  1
  N  N46  1  0.56351333  0.20225248  0.88994947  1
  N  N47  1  0.49644747  0.09695665  0.60980617  1
  N  N48  1  0.22280669  0.53781087  0.35609124  1
  N  N49  1  0.10854846  0.42863957  0.10886621  1
  N  N50  1  0.89185998  0.53250427  0.85095515  1
  N  N51  1  0.78473130  0.39866251  0.59398475  1
  N  N52  1  0.54967242  0.54120562  0.35614650  1
  N  N53  1  0.45416431  0.40464084  0.10538097  1
  N  N54  1  0.22423765  0.53487486  0.85233340  1
  N  N55  1  0.11897605  0.39969624  0.59865557  1
  N  N56  1  0.88515783  0.54051995  0.35549044  1
  N  N57  1  0.77542427  0.42873299  0.10921756  1
  N  N58  1  0.55947184  0.53325121  0.85400384  1
  N  N59  1  0.45803220  0.39932895  0.60319761  1
  N  N60  1  0.21964043  0.87291141  0.35927984  1
  N  N61  1  0.10852513  0.76212248  0.10614264  1
  N  N62  1  0.88777177  0.87638683  0.85839240  1
  N  N63  1  0.78897841  0.75287491  0.60415919  1
  N  N64  1  0.55188951  0.87469220  0.35910916  1
  N  N65  1  0.44248516  0.76319540  0.10534527  1
  N  N66  1  0.22322313  0.87342158  0.85561642  1
  N  N67  1  0.11202889  0.76072778  0.60410275  1
  N  N68  1  0.87204810  0.90112857  0.35016862  1
  N  N69  1  0.77623934  0.76168710  0.10668631  1
  N  N70  1  0.55860497  0.87207462  0.85772079  1
  N  N71  1  0.45275382  0.75685329  0.60804440  1
