# generated using pymatgen
data_Al31B5N36
_symmetry_space_group_name_H-M   'P 1'
_cell_length_a   9.26854127
_cell_length_b   9.16085122
_cell_length_c   10.18319412
_cell_angle_alpha   89.26763469
_cell_angle_beta   90.10004267
_cell_angle_gamma   59.86668238
_symmetry_Int_Tables_number   1
_chemical_formula_structural   Al31B5N36
_chemical_formula_sum   'Al31 B5 N36'
_cell_volume   747.69081642
_cell_formula_units_Z   1
loop_
 _symmetry_equiv_pos_site_id
 _symmetry_equiv_pos_as_xyz
  1  'x, y, z'
loop_
 _atom_site_type_symbol
 _atom_site_label
 _atom_site_symmetry_multiplicity
 _atom_site_fract_x
 _atom_site_fract_y
 _atom_site_fract_z
 _atom_site_occupancy
  Al  Al0  1  0.10596636  0.09104141  0.32510043  1
  Al  Al1  1  0.22379549  0.20809193  0.07081637  1
  Al  Al2  1  0.78375378  0.09742341  0.79792749  1
  Al  Al3  1  0.45299009  0.09789689  0.40103320  1
  Al  Al4  1  0.11223069  0.10109709  0.81556662  1
  Al  Al5  1  0.87975611  0.20915555  0.13149825  1
  Al  Al6  1  0.45845743  0.09297482  0.88846163  1
  Al  Al7  1  0.11296104  0.42541491  0.32579466  1
  Al  Al8  1  0.22118606  0.53487935  0.07174928  1
  Al  Al9  1  0.78082566  0.42805963  0.89219070  1
  Al  Al10  1  0.88246303  0.53736589  0.63665622  1
  Al  Al11  1  0.45593226  0.41169702  0.38698987  1
  Al  Al12  1  0.55432672  0.53369470  0.14191902  1
  Al  Al13  1  0.12275360  0.41752934  0.81593662  1
  Al  Al14  1  0.21735701  0.53284214  0.56627935  1
  Al  Al15  1  0.77783452  0.41079887  0.39229567  1
  Al  Al16  1  0.88088034  0.54097009  0.14387996  1
  Al  Al17  1  0.45610682  0.41684324  0.89026122  1
  Al  Al18  1  0.56039264  0.52317236  0.64206294  1
  Al  Al19  1  0.10248236  0.76855237  0.31523023  1
  Al  Al20  1  0.21500901  0.87863057  0.06484271  1
  Al  Al21  1  0.77805947  0.75707625  0.88913863  1
  Al  Al22  1  0.89007830  0.89360383  0.55512023  1
  Al  Al23  1  0.44777564  0.75739928  0.39202867  1
  Al  Al24  1  0.55425951  0.87931416  0.14122120  1
  Al  Al25  1  0.10683840  0.76315891  0.81528849  1
  Al  Al26  1  0.21405186  0.88126057  0.57238333  1
  Al  Al27  1  0.76965200  0.76464953  0.38512830  1
  Al  Al28  1  0.88342414  0.88297967  0.06688943  1
  Al  Al29  1  0.45044564  0.75813891  0.88598286  1
  Al  Al30  1  0.56372472  0.87768080  0.64062522  1
  B  B31  1  0.89619660  0.21003776  0.62336990  1
  B  B32  1  0.55206241  0.20398313  0.14545245  1
  B  B33  1  0.15719341  0.23884699  0.55546082  1
  B  B34  1  0.77163388  0.09083926  0.29736273  1
  B  B35  1  0.50564509  0.22858958  0.64744202  1
  N  N36  1  0.20285670  0.21101350  0.41016371  1
  N  N37  1  0.11927433  0.09349454  0.13696715  1
  N  N38  1  0.89000987  0.20971447  0.84898637  1
  N  N39  1  0.82788244  0.09936402  0.62034494  1
  N  N40  1  0.55931821  0.19950184  0.30635109  1
  N  N41  1  0.46470021  0.10679823  0.08057846  1
  N  N42  1  0.22429229  0.20267430  0.88515945  1
  N  N43  1  0.10076351  0.12445452  0.62021669  1
  N  N44  1  0.86861819  0.19468575  0.32363366  1
  N  N45  1  0.75578798  0.09699749  0.13737146  1
  N  N46  1  0.54293862  0.21331637  0.79738952  1
  N  N47  1  0.48787348  0.09913103  0.58173179  1
  N  N48  1  0.21557216  0.54281907  0.38029060  1
  N  N49  1  0.11718889  0.42244452  0.13928706  1
  N  N50  1  0.88818234  0.54070977  0.82361790  1
  N  N51  1  0.79259339  0.40002398  0.58301652  1
  N  N52  1  0.55345536  0.53608700  0.33100630  1
  N  N53  1  0.46377665  0.39709537  0.08247299  1
  N  N54  1  0.21885405  0.53912190  0.88114732  1
  N  N55  1  0.12165469  0.39960921  0.62114794  1
  N  N56  1  0.87791395  0.53778129  0.33288368  1
  N  N57  1  0.77399848  0.43264229  0.07808816  1
  N  N58  1  0.55719447  0.53577935  0.82756788  1
  N  N59  1  0.45634069  0.39875179  0.58140127  1
  N  N60  1  0.21416306  0.87215093  0.38532732  1
  N  N61  1  0.10972328  0.76258300  0.12868963  1
  N  N62  1  0.88586102  0.88245037  0.87770718  1
  N  N63  1  0.78429465  0.75854299  0.57314296  1
  N  N64  1  0.54473176  0.88041366  0.32847560  1
  N  N65  1  0.44884276  0.75957144  0.07736667  1
  N  N66  1  0.21677705  0.87645738  0.87280637  1
  N  N67  1  0.11371757  0.75448335  0.62823522  1
  N  N68  1  0.86987834  0.90290722  0.36287963  1
  N  N69  1  0.77456259  0.75826595  0.07847176  1
  N  N70  1  0.55778556  0.87286468  0.82665661  1
  N  N71  1  0.45476492  0.75667708  0.58231635  1
