# generated using pymatgen
data_Al31B5N36
_symmetry_space_group_name_H-M   'P 1'
_cell_length_a   9.30534746
_cell_length_b   9.16464450
_cell_length_c   9.93739945
_cell_angle_alpha   90.12397227
_cell_angle_beta   89.67394840
_cell_angle_gamma   60.42144223
_symmetry_Int_Tables_number   1
_chemical_formula_structural   Al31B5N36
_chemical_formula_sum   'Al31 B5 N36'
_cell_volume   736.99777361
_cell_formula_units_Z   1
loop_
 _symmetry_equiv_pos_site_id
 _symmetry_equiv_pos_as_xyz
  1  'x, y, z'
loop_
 _atom_site_type_symbol
 _atom_site_label
 _atom_site_symmetry_multiplicity
 _atom_site_fract_x
 _atom_site_fract_y
 _atom_site_fract_z
 _atom_site_occupancy
  Al  Al0  1  0.09878235  0.09889263  0.32206079  1
  Al  Al1  1  0.23437933  0.20388158  0.06501271  1
  Al  Al2  1  0.79101463  0.09406439  0.79529934  1
  Al  Al3  1  0.44621728  0.10870850  0.39568937  1
  Al  Al4  1  0.11539958  0.09720104  0.80295477  1
  Al  Al5  1  0.88699142  0.20429869  0.06453833  1
  Al  Al6  1  0.44699320  0.09137030  0.82858758  1
  Al  Al7  1  0.10502867  0.43036680  0.31005552  1
  Al  Al8  1  0.22779206  0.53139768  0.05977505  1
  Al  Al9  1  0.78150553  0.41713425  0.80285238  1
  Al  Al10  1  0.88789925  0.52846673  0.55470134  1
  Al  Al11  1  0.44315480  0.42988442  0.30658367  1
  Al  Al12  1  0.55794491  0.53205250  0.06009850  1
  Al  Al13  1  0.11335915  0.41941715  0.80590174  1
  Al  Al14  1  0.22066426  0.52930692  0.55511658  1
  Al  Al15  1  0.76942691  0.42893165  0.30980469  1
  Al  Al16  1  0.88990577  0.53616418  0.05785938  1
  Al  Al17  1  0.44054659  0.43462314  0.81172215  1
  Al  Al18  1  0.55343090  0.52828731  0.55564387  1
  Al  Al19  1  0.10432076  0.76875332  0.30671229  1
  Al  Al20  1  0.22170284  0.87608192  0.05999253  1
  Al  Al21  1  0.78360458  0.75850670  0.80809843  1
  Al  Al22  1  0.89164913  0.88144568  0.55011429  1
  Al  Al23  1  0.43959546  0.76938451  0.30881394  1
  Al  Al24  1  0.55866189  0.87950708  0.06053130  1
  Al  Al25  1  0.10966152  0.76242942  0.80798891  1
  Al  Al26  1  0.22720831  0.87639677  0.56004553  1
  Al  Al27  1  0.76909646  0.77255112  0.30762302  1
  Al  Al28  1  0.88387338  0.87970458  0.06260879  1
  Al  Al29  1  0.44616110  0.75837791  0.81022753  1
  Al  Al30  1  0.56658492  0.86569754  0.56775166  1
  B  B31  1  0.83257843  0.22210921  0.53486769  1
  B  B32  1  0.55689993  0.19568357  0.15060740  1
  B  B33  1  0.16727241  0.22901771  0.54907389  1
  B  B34  1  0.77339962  0.09463588  0.30397757  1
  B  B35  1  0.51490658  0.22507053  0.64772938  1
  N  N36  1  0.20525030  0.21590226  0.39519442  1
  N  N37  1  0.11021391  0.09918770  0.12889459  1
  N  N38  1  0.89543001  0.20130375  0.87356230  1
  N  N39  1  0.81846573  0.09778388  0.61009473  1
  N  N40  1  0.57260117  0.19400823  0.31477122  1
  N  N41  1  0.46307699  0.10894136  0.09579285  1
  N  N42  1  0.22604971  0.20311012  0.87358039  1
  N  N43  1  0.14964285  0.09969658  0.61597383  1
  N  N44  1  0.86166910  0.20236323  0.37835072  1
  N  N45  1  0.76754266  0.10157753  0.13950107  1
  N  N46  1  0.55995584  0.20396069  0.79868568  1
  N  N47  1  0.48024522  0.10114935  0.59063926  1
  N  N48  1  0.21871131  0.54061468  0.36569859  1
  N  N49  1  0.10981205  0.42728863  0.12093058  1
  N  N50  1  0.89093732  0.53303039  0.86343464  1
  N  N51  1  0.78197563  0.39827040  0.60335121  1
  N  N52  1  0.54840880  0.54421520  0.36718352  1
  N  N53  1  0.45389706  0.40767580  0.11554906  1
  N  N54  1  0.22054499  0.53703388  0.86652696  1
  N  N55  1  0.11357460  0.40335969  0.61156643  1
  N  N56  1  0.88262640  0.54332631  0.36612339  1
  N  N57  1  0.77645649  0.42803337  0.12052453  1
  N  N58  1  0.56058420  0.53430525  0.86760096  1
  N  N59  1  0.44287628  0.41066118  0.61373394  1
  N  N60  1  0.21922656  0.87420185  0.37034430  1
  N  N61  1  0.11111496  0.76104091  0.11605569  1
  N  N62  1  0.88765990  0.87712349  0.86921097  1
  N  N63  1  0.79041796  0.75359951  0.61694886  1
  N  N64  1  0.55223868  0.87476803  0.37604699  1
  N  N65  1  0.44450587  0.76351089  0.11655516  1
  N  N66  1  0.22335971  0.87311622  0.86682298  1
  N  N67  1  0.11535178  0.75622259  0.61556971  1
  N  N68  1  0.87331752  0.89992350  0.35809694  1
  N  N69  1  0.77821638  0.76043841  0.11701298  1
  N  N70  1  0.56157675  0.86611967  0.86510215  1
  N  N71  1  0.45167576  0.75167822  0.62036295  1
