# generated using pymatgen
data_Al31B5N36
_symmetry_space_group_name_H-M   'P 1'
_cell_length_a   9.31549545
_cell_length_b   9.17315722
_cell_length_c   9.95272978
_cell_angle_alpha   90.27342129
_cell_angle_beta   89.91443876
_cell_angle_gamma   60.35113565
_symmetry_Int_Tables_number   1
_chemical_formula_structural   Al31B5N36
_chemical_formula_sum   'Al31 B5 N36'
_cell_volume   739.11876648
_cell_formula_units_Z   1
loop_
 _symmetry_equiv_pos_site_id
 _symmetry_equiv_pos_as_xyz
  1  'x, y, z'
loop_
 _atom_site_type_symbol
 _atom_site_label
 _atom_site_symmetry_multiplicity
 _atom_site_fract_x
 _atom_site_fract_y
 _atom_site_fract_z
 _atom_site_occupancy
  Al  Al0  1  0.09696672  0.09856995  0.33580274  1
  Al  Al1  1  0.22342862  0.20762649  0.07919164  1
  Al  Al2  1  0.79077057  0.09513355  0.80558538  1
  Al  Al3  1  0.44949340  0.10432640  0.40483182  1
  Al  Al4  1  0.11936262  0.09738956  0.81486671  1
  Al  Al5  1  0.88659712  0.20467577  0.07488370  1
  Al  Al6  1  0.45830760  0.09680488  0.89442988  1
  Al  Al7  1  0.10418034  0.42990396  0.32404355  1
  Al  Al8  1  0.22678298  0.53150578  0.07090603  1
  Al  Al9  1  0.78224107  0.41726675  0.81401610  1
  Al  Al10  1  0.88660837  0.52906380  0.56750099  1
  Al  Al11  1  0.44172020  0.42858992  0.31760505  1
  Al  Al12  1  0.55807727  0.53104172  0.06975139  1
  Al  Al13  1  0.11623364  0.41682876  0.81745512  1
  Al  Al14  1  0.22017666  0.52949708  0.56712727  1
  Al  Al15  1  0.76814285  0.42869493  0.32168599  1
  Al  Al16  1  0.88955766  0.53593971  0.06884883  1
  Al  Al17  1  0.44058690  0.43516101  0.82158959  1
  Al  Al18  1  0.55265600  0.52788344  0.56788624  1
  Al  Al19  1  0.10283182  0.76849478  0.31852230  1
  Al  Al20  1  0.21966137  0.87538440  0.07078434  1
  Al  Al21  1  0.78522785  0.75827158  0.82122122  1
  Al  Al22  1  0.89060087  0.88226550  0.56173029  1
  Al  Al23  1  0.43577891  0.76583474  0.32341618  1
  Al  Al24  1  0.55656303  0.87720576  0.10950616  1
  Al  Al25  1  0.10938785  0.76268486  0.81907037  1
  Al  Al26  1  0.22567316  0.87678658  0.57251040  1
  Al  Al27  1  0.77254123  0.76914847  0.32297812  1
  Al  Al28  1  0.88403561  0.87902498  0.07316607  1
  Al  Al29  1  0.44520917  0.76037118  0.82286856  1
  Al  Al30  1  0.55951498  0.87826720  0.61154335  1
  B  B31  1  0.83228361  0.22212190  0.54665832  1
  B  B32  1  0.55946987  0.19952732  0.15828315  1
  B  B33  1  0.16932347  0.22827592  0.56030225  1
  B  B34  1  0.77228879  0.09421238  0.31393484  1
  B  B35  1  0.50767745  0.22499416  0.66027362  1
  N  N36  1  0.20527807  0.21469326  0.40583890  1
  N  N37  1  0.10878703  0.09778581  0.14262223  1
  N  N38  1  0.89676871  0.20145419  0.88471235  1
  N  N39  1  0.82406978  0.09622302  0.62233851  1
  N  N40  1  0.57042747  0.19265753  0.31874895  1
  N  N41  1  0.46529588  0.11088130  0.09115751  1
  N  N42  1  0.22688853  0.20363017  0.89040086  1
  N  N43  1  0.15315967  0.09923311  0.62811396  1
  N  N44  1  0.85938125  0.20246712  0.38946420  1
  N  N45  1  0.76761492  0.10192448  0.14851968  1
  N  N46  1  0.55736303  0.20266573  0.80978144  1
  N  N47  1  0.48660395  0.10393567  0.58786324  1
  N  N48  1  0.21808368  0.54041984  0.37750544  1
  N  N49  1  0.10882564  0.42858940  0.13525339  1
  N  N50  1  0.89279412  0.53217168  0.87509018  1
  N  N51  1  0.78146502  0.39864941  0.61504475  1
  N  N52  1  0.54751781  0.54137250  0.37946043  1
  N  N53  1  0.45452406  0.40653492  0.12530752  1
  N  N54  1  0.22087090  0.53713182  0.87851589  1
  N  N55  1  0.11394115  0.40304135  0.62301776  1
  N  N56  1  0.88226890  0.54147534  0.37934060  1
  N  N57  1  0.77600468  0.42830810  0.13216571  1
  N  N58  1  0.56095801  0.53464395  0.87839184  1
  N  N59  1  0.44134235  0.41132471  0.62671392  1
  N  N60  1  0.21633506  0.87399406  0.38335636  1
  N  N61  1  0.11038132  0.76054495  0.12805671  1
  N  N62  1  0.88796522  0.87820613  0.88106682  1
  N  N63  1  0.79079749  0.75423679  0.62788564  1
  N  N64  1  0.54816567  0.87873415  0.36137829  1
  N  N65  1  0.44055669  0.75956018  0.12909335  1
  N  N66  1  0.22267058  0.87339300  0.87875409  1
  N  N67  1  0.11469769  0.75599233  0.62733890  1
  N  N68  1  0.87245107  0.90057281  0.36961957  1
  N  N69  1  0.78233894  0.75803212  0.13015277  1
  N  N70  1  0.56074885  0.87060185  0.86007130  1
  N  N71  1  0.44996981  0.75178474  0.63057169  1
