# generated using pymatgen
data_Al31B5N36
_symmetry_space_group_name_H-M   'P 1'
_cell_length_a   9.29346717
_cell_length_b   9.17469130
_cell_length_c   9.76722247
_cell_angle_alpha   90.01438545
_cell_angle_beta   89.30600459
_cell_angle_gamma   60.09908433
_symmetry_Int_Tables_number   1
_chemical_formula_structural   Al31B5N36
_chemical_formula_sum   'Al31 B5 N36'
_cell_volume   721.87234256
_cell_formula_units_Z   1
loop_
 _symmetry_equiv_pos_site_id
 _symmetry_equiv_pos_as_xyz
  1  'x, y, z'
loop_
 _atom_site_type_symbol
 _atom_site_label
 _atom_site_symmetry_multiplicity
 _atom_site_fract_x
 _atom_site_fract_y
 _atom_site_fract_z
 _atom_site_occupancy
  Al  Al0  1  0.09800724  0.09824330  0.32376901  1
  Al  Al1  1  0.22794947  0.20487633  0.06203171  1
  Al  Al2  1  0.77518769  0.10082132  0.80886691  1
  Al  Al3  1  0.44588352  0.10112150  0.32311233  1
  Al  Al4  1  0.11816541  0.09735418  0.80175814  1
  Al  Al5  1  0.88333553  0.20433291  0.06490772  1
  Al  Al6  1  0.45602097  0.09721841  0.80712521  1
  Al  Al7  1  0.10816706  0.42948790  0.30953790  1
  Al  Al8  1  0.22571015  0.53338913  0.05714201  1
  Al  Al9  1  0.78244951  0.41665241  0.80305909  1
  Al  Al10  1  0.89136419  0.52773664  0.55520661  1
  Al  Al11  1  0.45094753  0.41743866  0.30948666  1
  Al  Al12  1  0.55638389  0.53323610  0.05739811  1
  Al  Al13  1  0.11690239  0.41708484  0.80405530  1
  Al  Al14  1  0.22922267  0.52444049  0.55776098  1
  Al  Al15  1  0.77100573  0.42874120  0.30950934  1
  Al  Al16  1  0.88862627  0.53753928  0.05599350  1
  Al  Al17  1  0.45089622  0.41588000  0.81048534  1
  Al  Al18  1  0.55333421  0.53248385  0.55714542  1
  Al  Al19  1  0.10521685  0.76706211  0.30881108  1
  Al  Al20  1  0.21935272  0.87668550  0.05904701  1
  Al  Al21  1  0.78085168  0.76024090  0.80685398  1
  Al  Al22  1  0.88451820  0.88556996  0.55419439  1
  Al  Al23  1  0.44045365  0.76480432  0.30800390  1
  Al  Al24  1  0.55514215  0.88069842  0.06004860  1
  Al  Al25  1  0.11087108  0.76218787  0.80748998  1
  Al  Al26  1  0.22852577  0.87613428  0.55940761  1
  Al  Al27  1  0.77264805  0.76898183  0.30817291  1
  Al  Al28  1  0.87999482  0.88271786  0.06431220  1
  Al  Al29  1  0.44759037  0.76027638  0.80979094  1
  Al  Al30  1  0.56140659  0.87882585  0.56136175  1
  B  B31  1  0.82613457  0.23013975  0.53695291  1
  B  B32  1  0.55216174  0.20943255  0.06633467  1
  B  B33  1  0.17631119  0.22487522  0.54383133  1
  B  B34  1  0.76260192  0.09905170  0.31355873  1
  B  B35  1  0.56336044  0.20236166  0.55548447  1
  N  N36  1  0.21331912  0.21032655  0.38772561  1
  N  N37  1  0.10612070  0.10004799  0.12817028  1
  N  N38  1  0.89695430  0.19880521  0.87073836  1
  N  N39  1  0.77036639  0.12183208  0.60959551  1
  N  N40  1  0.57747181  0.19514732  0.38491505  1
  N  N41  1  0.45322531  0.11180643  0.12356673  1
  N  N42  1  0.23329698  0.19975432  0.87066139  1
  N  N43  1  0.14365923  0.10217976  0.61027210  1
  N  N44  1  0.86163818  0.20171794  0.38146691  1
  N  N45  1  0.75090004  0.11064417  0.14035535  1
  N  N46  1  0.56346742  0.20236154  0.89879203  1
  N  N47  1  0.49640064  0.09706674  0.61864894  1
  N  N48  1  0.22276004  0.53792042  0.36493386  1
  N  N49  1  0.10850286  0.42874844  0.11770885  1
  N  N50  1  0.89181415  0.53261290  0.85979811  1
  N  N51  1  0.78468518  0.39877152  0.60282668  1
  N  N52  1  0.54962589  0.54131519  0.36498922  1
  N  N53  1  0.45411888  0.40474981  0.11422371  1
  N  N54  1  0.22419172  0.53498367  0.86117679  1
  N  N55  1  0.11892993  0.39980568  0.60749779  1
  N  N56  1  0.88511127  0.54062929  0.36433316  1
  N  N57  1  0.77537853  0.42884187  0.11805994  1
  N  N58  1  0.55942586  0.53336042  0.86284649  1
  N  N59  1  0.45798569  0.39943864  0.61204016  1
  N  N60  1  0.21959365  0.87302088  0.36812204  1
  N  N61  1  0.10847948  0.76223159  0.11498513  1
  N  N62  1  0.88772570  0.87649576  0.86723561  1
  N  N63  1  0.78893186  0.75298417  0.61300236  1
  N  N64  1  0.55184284  0.87480187  0.36795208  1
  N  N65  1  0.44243947  0.76330465  0.11418816  1
  N  N66  1  0.22317729  0.87353068  0.86445900  1
  N  N67  1  0.11198224  0.76083737  0.61294583  1
  N  N68  1  0.87200146  0.90123783  0.35901078  1
  N  N69  1  0.77619334  0.76179598  0.11552904  1
  N  N70  1  0.55855879  0.87218366  0.86656299  1
  N  N71  1  0.45270722  0.75696284  0.61688631  1
