# generated using pymatgen
data_Al31B5N36
_symmetry_space_group_name_H-M   'P 1'
_cell_length_a   9.42098246
_cell_length_b   9.13198934
_cell_length_c   10.00222430
_cell_angle_alpha   90.07928737
_cell_angle_beta   90.58553395
_cell_angle_gamma   61.02193044
_symmetry_Int_Tables_number   1
_chemical_formula_structural   Al31B5N36
_chemical_formula_sum   'Al31 B5 N36'
_cell_volume   752.73697639
_cell_formula_units_Z   1
loop_
 _symmetry_equiv_pos_site_id
 _symmetry_equiv_pos_as_xyz
  1  'x, y, z'
loop_
 _atom_site_type_symbol
 _atom_site_label
 _atom_site_symmetry_multiplicity
 _atom_site_fract_x
 _atom_site_fract_y
 _atom_site_fract_z
 _atom_site_occupancy
  Al  Al0  1  0.12162987  0.08647944  0.33616828  1
  Al  Al1  1  0.21727827  0.20744107  0.08287625  1
  Al  Al2  1  0.77336773  0.09578914  0.88636916  1
  Al  Al3  1  0.45205931  0.09884667  0.41055982  1
  Al  Al4  1  0.11318857  0.10088368  0.81105473  1
  Al  Al5  1  0.88015958  0.20267831  0.15125707  1
  Al  Al6  1  0.44392486  0.09906722  0.89530030  1
  Al  Al7  1  0.10177658  0.43685395  0.40082181  1
  Al  Al8  1  0.21616078  0.54181920  0.15472560  1
  Al  Al9  1  0.77389334  0.42267414  0.89806916  1
  Al  Al10  1  0.88743771  0.52786550  0.65371272  1
  Al  Al11  1  0.44056908  0.42128296  0.39995790  1
  Al  Al12  1  0.55451371  0.52979160  0.15133405  1
  Al  Al13  1  0.09900593  0.43770641  0.90258926  1
  Al  Al14  1  0.22256202  0.52409499  0.65396298  1
  Al  Al15  1  0.77685873  0.41539862  0.40407092  1
  Al  Al16  1  0.88177721  0.54291347  0.15355090  1
  Al  Al17  1  0.43846509  0.42405886  0.90208739  1
  Al  Al18  1  0.55507673  0.52556716  0.65477576  1
  Al  Al19  1  0.11058203  0.76121311  0.40455389  1
  Al  Al20  1  0.21857008  0.88091470  0.08347289  1
  Al  Al21  1  0.77470839  0.76473274  0.90421568  1
  Al  Al22  1  0.89983796  0.87086643  0.64595945  1
  Al  Al23  1  0.45889509  0.75305485  0.40003548  1
  Al  Al24  1  0.55503372  0.88344525  0.15369735  1
  Al  Al25  1  0.10142108  0.76402821  0.89811005  1
  Al  Al26  1  0.23535204  0.87436072  0.58648780  1
  Al  Al27  1  0.77636180  0.77196677  0.40391247  1
  Al  Al28  1  0.88359839  0.88897633  0.15121429  1
  Al  Al29  1  0.44610542  0.76099182  0.89860521  1
  Al  Al30  1  0.56839803  0.87414345  0.65343965  1
  B  B31  1  0.84154530  0.22530843  0.65043235  1
  B  B32  1  0.48564314  0.23898454  0.16472639  1
  B  B33  1  0.17053223  0.22370974  0.56066161  1
  B  B34  1  0.85606697  0.06891292  0.42389392  1
  B  B35  1  0.50541698  0.22581930  0.66399840  1
  N  N36  1  0.21715317  0.20312950  0.41213670  1
  N  N37  1  0.11532442  0.09705838  0.14947550  1
  N  N38  1  0.87400446  0.21006430  0.80233281  1
  N  N39  1  0.84215144  0.08693468  0.57069057  1
  N  N40  1  0.50839149  0.22701582  0.30670126  1
  N  N41  1  0.44936109  0.11269224  0.09128977  1
  N  N42  1  0.21531891  0.20636623  0.89326890  1
  N  N43  1  0.15711688  0.09671351  0.63169976  1
  N  N44  1  0.88599878  0.19010058  0.34525347  1
  N  N45  1  0.79120403  0.09246768  0.06805354  1
  N  N46  1  0.54592581  0.21178334  0.81580837  1
  N  N47  1  0.49911399  0.09327672  0.59385164  1
  N  N48  1  0.21578761  0.54363446  0.34451925  1
  N  N49  1  0.09757136  0.43922735  0.09712677  1
  N  N50  1  0.88202258  0.53942657  0.84319809  1
  N  N51  1  0.77918968  0.40166728  0.59541624  1
  N  N52  1  0.55840890  0.52949695  0.34311661  1
  N  N53  1  0.43913471  0.41052667  0.09422510  1
  N  N54  1  0.21885369  0.53815129  0.84269622  1
  N  N55  1  0.10607234  0.40981626  0.59538734  1
  N  N56  1  0.88255387  0.54032401  0.34514453  1
  N  N57  1  0.77438353  0.42584469  0.09017899  1
  N  N58  1  0.55186559  0.53527026  0.84456565  1
  N  N59  1  0.44695637  0.40062563  0.59713127  1
  N  N60  1  0.23241812  0.86809778  0.38984673  1
  N  N61  1  0.10475243  0.76164222  0.09364114  1
  N  N62  1  0.88632894  0.87080031  0.83314023  1
  N  N63  1  0.78767605  0.75257036  0.59172220  1
  N  N64  1  0.55801983  0.87683249  0.34368559  1
  N  N65  1  0.44871609  0.75965599  0.09366238  1
  N  N66  1  0.21660790  0.88197197  0.88246290  1
  N  N67  1  0.12126587  0.74804237  0.59650716  1
  N  N68  1  0.88617689  0.90215846  0.35417162  1
  N  N69  1  0.77433760  0.76866491  0.09690994  1
  N  N70  1  0.55645577  0.87412305  0.84348387  1
  N  N71  1  0.46545630  0.74798640  0.59391471  1
