# generated using pymatgen
data_Al31B5N36
_symmetry_space_group_name_H-M   'P 1'
_cell_length_a   9.32091510
_cell_length_b   9.23820793
_cell_length_c   10.05809201
_cell_angle_alpha   89.51618564
_cell_angle_beta   90.26811882
_cell_angle_gamma   59.78516148
_symmetry_Int_Tables_number   1
_chemical_formula_structural   Al31B5N36
_chemical_formula_sum   'Al31 B5 N36'
_cell_volume   748.35831644
_cell_formula_units_Z   1
loop_
 _symmetry_equiv_pos_site_id
 _symmetry_equiv_pos_as_xyz
  1  'x, y, z'
loop_
 _atom_site_type_symbol
 _atom_site_label
 _atom_site_symmetry_multiplicity
 _atom_site_fract_x
 _atom_site_fract_y
 _atom_site_fract_z
 _atom_site_occupancy
  Al  Al0  1  0.10151535  0.09424384  0.32039558  1
  Al  Al1  1  0.22512979  0.20670790  0.07029693  1
  Al  Al2  1  0.78543954  0.09894850  0.80673925  1
  Al  Al3  1  0.44914508  0.10264774  0.40086436  1
  Al  Al4  1  0.10492636  0.10211487  0.82175583  1
  Al  Al5  1  0.88510134  0.20126412  0.10075224  1
  Al  Al6  1  0.45610414  0.09353871  0.88758384  1
  Al  Al7  1  0.10592301  0.42976788  0.32290404  1
  Al  Al8  1  0.22190468  0.53534389  0.07198906  1
  Al  Al9  1  0.77398999  0.42522542  0.89673113  1
  Al  Al10  1  0.88918402  0.53608625  0.56763398  1
  Al  Al11  1  0.45274563  0.41143796  0.38681241  1
  Al  Al12  1  0.55638826  0.52662937  0.14429543  1
  Al  Al13  1  0.11529076  0.41914941  0.81541932  1
  Al  Al14  1  0.21705305  0.53392897  0.56736543  1
  Al  Al15  1  0.77584457  0.40855814  0.38144256  1
  Al  Al16  1  0.89386634  0.53711408  0.07892041  1
  Al  Al17  1  0.45403973  0.41601840  0.88943099  1
  Al  Al18  1  0.56579181  0.51439300  0.63561475  1
  Al  Al19  1  0.10245427  0.76934499  0.31532664  1
  Al  Al20  1  0.22451480  0.87292025  0.06439483  1
  Al  Al21  1  0.77825819  0.76084139  0.87368758  1
  Al  Al22  1  0.89167155  0.89485209  0.55888163  1
  Al  Al23  1  0.43363709  0.76611245  0.32522195  1
  Al  Al24  1  0.55516901  0.88376635  0.14110859  1
  Al  Al25  1  0.10832073  0.76112350  0.81509439  1
  Al  Al26  1  0.22144099  0.87735803  0.56833531  1
  Al  Al27  1  0.77026440  0.77279528  0.36755749  1
  Al  Al28  1  0.88357532  0.88218417  0.06893512  1
  Al  Al29  1  0.44028460  0.76129536  0.81513036  1
  Al  Al30  1  0.56549488  0.88180029  0.63661627  1
  B  B31  1  0.90151164  0.20694908  0.60462780  1
  B  B32  1  0.55276536  0.20326990  0.14623180  1
  B  B33  1  0.15722160  0.23957492  0.55482438  1
  B  B34  1  0.77563033  0.09406553  0.29533972  1
  B  B35  1  0.50292694  0.22955309  0.65017800  1
  N  N36  1  0.20020790  0.21337544  0.40792556  1
  N  N37  1  0.12244470  0.09155921  0.13287042  1
  N  N38  1  0.89269606  0.19485046  0.89442619  1
  N  N39  1  0.83510978  0.09954375  0.62897271  1
  N  N40  1  0.55837739  0.20070895  0.30689291  1
  N  N41  1  0.46307633  0.10868232  0.08055351  1
  N  N42  1  0.22322234  0.20190769  0.88157394  1
  N  N43  1  0.09673869  0.12781232  0.61918378  1
  N  N44  1  0.87037032  0.19163664  0.32355010  1
  N  N45  1  0.75543544  0.09783542  0.13639956  1
  N  N46  1  0.54559325  0.21079541  0.80001977  1
  N  N47  1  0.48229813  0.10360622  0.58341441  1
  N  N48  1  0.21368501  0.54336015  0.37831986  1
  N  N49  1  0.11519498  0.42340839  0.13690256  1
  N  N50  1  0.89785475  0.53160118  0.87629975  1
  N  N51  1  0.79440885  0.39514568  0.58124477  1
  N  N52  1  0.55182505  0.53285282  0.33744419  1
  N  N53  1  0.46231854  0.39675850  0.08260770  1
  N  N54  1  0.21894684  0.53725411  0.87767893  1
  N  N55  1  0.11679695  0.40281951  0.62138774  1
  N  N56  1  0.88365280  0.53749135  0.37344143  1
  N  N57  1  0.77017008  0.43409224  0.08760715  1
  N  N58  1  0.56024470  0.52724432  0.82604060  1
  N  N59  1  0.45419240  0.39708746  0.58261494  1
  N  N60  1  0.21562652  0.87412256  0.38247372  1
  N  N61  1  0.11097714  0.76296360  0.12635270  1
  N  N62  1  0.88783141  0.87968086  0.87697007  1
  N  N63  1  0.78696028  0.76507807  0.58630784  1
  N  N64  1  0.54371512  0.88665864  0.33436891  1
  N  N65  1  0.44077406  0.76214377  0.12711510  1
  N  N66  1  0.22132477  0.87285340  0.87267990  1
  N  N67  1  0.11655145  0.75569032  0.62591523  1
  N  N68  1  0.87223416  0.90610266  0.36454172  1
  N  N69  1  0.77648041  0.76324840  0.09752060  1
  N  N70  1  0.55744636  0.87470289  0.82915481  1
  N  N71  1  0.44768522  0.76019313  0.61941421  1
