# generated using pymatgen
data_Al31B5N36
_symmetry_space_group_name_H-M   'P 1'
_cell_length_a   9.38676300
_cell_length_b   9.13697801
_cell_length_c   9.81900756
_cell_angle_alpha   90.28548211
_cell_angle_beta   90.96876342
_cell_angle_gamma   60.69396488
_symmetry_Int_Tables_number   1
_chemical_formula_structural   Al31B5N36
_chemical_formula_sum   'Al31 B5 N36'
_cell_volume   734.25372247
_cell_formula_units_Z   1
loop_
 _symmetry_equiv_pos_site_id
 _symmetry_equiv_pos_as_xyz
  1  'x, y, z'
loop_
 _atom_site_type_symbol
 _atom_site_label
 _atom_site_symmetry_multiplicity
 _atom_site_fract_x
 _atom_site_fract_y
 _atom_site_fract_z
 _atom_site_occupancy
  Al  Al0  1  0.12237974  0.09452621  0.40818616  1
  Al  Al1  1  0.21979606  0.20847300  0.14636298  1
  Al  Al2  1  0.76482199  0.09854250  0.88721661  1
  Al  Al3  1  0.45143193  0.10048138  0.39734129  1
  Al  Al4  1  0.09903166  0.09752894  0.88356192  1
  Al  Al5  1  0.88316259  0.20033529  0.14705831  1
  Al  Al6  1  0.43459750  0.10236073  0.88667242  1
  Al  Al7  1  0.11200236  0.42048989  0.40288820  1
  Al  Al8  1  0.21818875  0.53850119  0.15113364  1
  Al  Al9  1  0.77234595  0.42631557  0.89680858  1
  Al  Al10  1  0.88770461  0.52949268  0.65012959  1
  Al  Al11  1  0.44644631  0.41571046  0.39476409  1
  Al  Al12  1  0.55505206  0.53088697  0.14980739  1
  Al  Al13  1  0.10319337  0.43180260  0.89754561  1
  Al  Al14  1  0.22410895  0.52709739  0.65059567  1
  Al  Al15  1  0.77915447  0.41491493  0.40108866  1
  Al  Al16  1  0.88541035  0.54046308  0.15129086  1
  Al  Al17  1  0.43982527  0.42479519  0.89860546  1
  Al  Al18  1  0.55556480  0.52642109  0.64967066  1
  Al  Al19  1  0.11626789  0.76238876  0.40067206  1
  Al  Al20  1  0.22039966  0.87664879  0.14758472  1
  Al  Al21  1  0.77448841  0.76533377  0.90033623  1
  Al  Al22  1  0.89914444  0.87289620  0.64371230  1
  Al  Al23  1  0.45039852  0.75866970  0.39812194  1
  Al  Al24  1  0.55379605  0.88340409  0.14779874  1
  Al  Al25  1  0.10578871  0.76429603  0.89984677  1
  Al  Al26  1  0.23314207  0.87249435  0.64940152  1
  Al  Al27  1  0.77838658  0.76980049  0.40006897  1
  Al  Al28  1  0.87863065  0.89164070  0.15127584  1
  Al  Al29  1  0.44195745  0.76236145  0.89956898  1
  Al  Al30  1  0.56360146  0.87706124  0.64721381  1
  B  B31  1  0.84745940  0.22297680  0.65305662  1
  B  B32  1  0.50894008  0.22981157  0.15490048  1
  B  B33  1  0.17248915  0.22684618  0.66468976  1
  B  B34  1  0.85345159  0.06994170  0.42084894  1
  B  B35  1  0.50364608  0.22687785  0.65829061  1
  N  N36  1  0.22611054  0.20288833  0.33678687  1
  N  N37  1  0.10362749  0.10085893  0.07971558  1
  N  N38  1  0.87552493  0.20788301  0.80924489  1
  N  N39  1  0.83931283  0.08944314  0.57067939  1
  N  N40  1  0.52928311  0.21778843  0.30210640  1
  N  N41  1  0.44149348  0.11608348  0.08302351  1
  N  N42  1  0.20953566  0.21235483  0.81969581  1
  N  N43  1  0.15101816  0.09852283  0.59719681  1
  N  N44  1  0.89609060  0.18609772  0.34394204  1
  N  N45  1  0.76614464  0.10409903  0.07555377  1
  N  N46  1  0.54355525  0.21135435  0.81218698  1
  N  N47  1  0.48814079  0.09855205  0.58696349  1
  N  N48  1  0.21776348  0.53965821  0.34518968  1
  N  N49  1  0.10253943  0.43191375  0.08893571  1
  N  N50  1  0.88246982  0.53981902  0.84178708  1
  N  N51  1  0.78212794  0.40057867  0.59615776  1
  N  N52  1  0.55826551  0.53163935  0.34381346  1
  N  N53  1  0.44277598  0.41107810  0.09133680  1
  N  N54  1  0.21908273  0.53876865  0.84226475  1
  N  N55  1  0.11399211  0.40215445  0.60022692  1
  N  N56  1  0.88856344  0.53662894  0.34631454  1
  N  N57  1  0.77419201  0.42683935  0.09084028  1
  N  N58  1  0.55135760  0.53685798  0.84221434  1
  N  N59  1  0.44887877  0.40038784  0.59352087  1
  N  N60  1  0.22828673  0.87244339  0.34239664  1
  N  N61  1  0.10475399  0.76508559  0.09431537  1
  N  N62  1  0.88700157  0.87317818  0.83483991  1
  N  N63  1  0.78622796  0.75476407  0.59099626  1
  N  N64  1  0.55883678  0.87391563  0.34083186  1
  N  N65  1  0.44259987  0.76245565  0.09282443  1
  N  N66  1  0.22203216  0.87062321  0.84068171  1
  N  N67  1  0.12305225  0.75208450  0.59218789  1
  N  N68  1  0.88638131  0.90170557  0.35337469  1
  N  N69  1  0.77513811  0.76718994  0.09556464  1
  N  N70  1  0.55319904  0.87486140  0.84107703  1
  N  N71  1  0.45527261  0.75323772  0.59149627  1
