# generated using pymatgen
data_Al31B5N36
_symmetry_space_group_name_H-M   'P 1'
_cell_length_a   9.30169297
_cell_length_b   9.23487364
_cell_length_c   10.11094056
_cell_angle_alpha   89.50996662
_cell_angle_beta   90.28721786
_cell_angle_gamma   59.76380029
_symmetry_Int_Tables_number   1
_chemical_formula_structural   Al31B5N36
_chemical_formula_sum   'Al31 B5 N36'
_cell_volume   750.30077696
_cell_formula_units_Z   1
loop_
 _symmetry_equiv_pos_site_id
 _symmetry_equiv_pos_as_xyz
  1  'x, y, z'
loop_
 _atom_site_type_symbol
 _atom_site_label
 _atom_site_symmetry_multiplicity
 _atom_site_fract_x
 _atom_site_fract_y
 _atom_site_fract_z
 _atom_site_occupancy
  Al  Al0  1  0.10145216  0.09427950  0.32074335  1
  Al  Al1  1  0.22533369  0.20644654  0.07086855  1
  Al  Al2  1  0.78510044  0.09845916  0.80692840  1
  Al  Al3  1  0.44894048  0.10277040  0.40116622  1
  Al  Al4  1  0.10497416  0.10175315  0.82263715  1
  Al  Al5  1  0.88511837  0.20079264  0.10086506  1
  Al  Al6  1  0.45574987  0.09375401  0.88812854  1
  Al  Al7  1  0.10480697  0.43067286  0.32367907  1
  Al  Al8  1  0.22177085  0.53531431  0.07203698  1
  Al  Al9  1  0.77396755  0.42475782  0.89687293  1
  Al  Al10  1  0.89023102  0.53419402  0.56909722  1
  Al  Al11  1  0.45250177  0.41163076  0.38728430  1
  Al  Al12  1  0.55636024  0.52631084  0.14497918  1
  Al  Al13  1  0.11435432  0.41971671  0.81592569  1
  Al  Al14  1  0.21714013  0.53416726  0.56744677  1
  Al  Al15  1  0.77565346  0.40858870  0.38223825  1
  Al  Al16  1  0.89467268  0.53510298  0.07921587  1
  Al  Al17  1  0.45368812  0.41600777  0.88981045  1
  Al  Al18  1  0.56590620  0.51416850  0.63667841  1
  Al  Al19  1  0.10166585  0.76965691  0.31576950  1
  Al  Al20  1  0.22537744  0.87259208  0.06476262  1
  Al  Al21  1  0.77464167  0.76192014  0.88760175  1
  Al  Al22  1  0.89360163  0.89624911  0.55940535  1
  Al  Al23  1  0.43398837  0.76622997  0.32445511  1
  Al  Al24  1  0.55767158  0.88314372  0.14272041  1
  Al  Al25  1  0.10758234  0.76129690  0.81547656  1
  Al  Al26  1  0.22303356  0.87701011  0.56832008  1
  Al  Al27  1  0.76745169  0.77458157  0.38361780  1
  Al  Al28  1  0.88476810  0.88306375  0.06801916  1
  Al  Al29  1  0.44052941  0.76136056  0.81495659  1
  Al  Al30  1  0.56712769  0.88203340  0.63946360  1
  B  B31  1  0.90218083  0.20699747  0.60548929  1
  B  B32  1  0.55250757  0.20319750  0.14657645  1
  B  B33  1  0.15826737  0.23910295  0.55546415  1
  B  B34  1  0.77556462  0.09368151  0.29601425  1
  B  B35  1  0.50278640  0.22965842  0.65011022  1
  N  N36  1  0.19986565  0.21373788  0.40882311  1
  N  N37  1  0.12262967  0.09122862  0.13378239  1
  N  N38  1  0.89233625  0.19415296  0.89517822  1
  N  N39  1  0.83504850  0.10025336  0.63014774  1
  N  N40  1  0.55737789  0.20132075  0.30675707  1
  N  N41  1  0.46363529  0.10814888  0.08074239  1
  N  N42  1  0.22245728  0.20245817  0.88286588  1
  N  N43  1  0.09772332  0.12744783  0.61999880  1
  N  N44  1  0.86999893  0.19181411  0.32418441  1
  N  N45  1  0.75582353  0.09691122  0.13772031  1
  N  N46  1  0.54437253  0.21138140  0.79959900  1
  N  N47  1  0.48313076  0.10314446  0.58316915  1
  N  N48  1  0.21289005  0.54396865  0.37940633  1
  N  N49  1  0.11535745  0.42331668  0.13823014  1
  N  N50  1  0.89669089  0.53156969  0.87495094  1
  N  N51  1  0.79448883  0.39487746  0.58154712  1
  N  N52  1  0.55153800  0.53283675  0.33711823  1
  N  N53  1  0.46254253  0.39641205  0.08240896  1
  N  N54  1  0.21815425  0.53762847  0.87879321  1
  N  N55  1  0.11780217  0.40241943  0.62219082  1
  N  N56  1  0.88244003  0.53827936  0.37407743  1
  N  N57  1  0.77004507  0.43342948  0.08728936  1
  N  N58  1  0.55986542  0.52706752  0.82605302  1
  N  N59  1  0.45457317  0.39694256  0.58245065  1
  N  N60  1  0.21598380  0.87401740  0.38314458  1
  N  N61  1  0.11117722  0.76274947  0.12739313  1
  N  N62  1  0.88722566  0.87982526  0.87653680  1
  N  N63  1  0.78592834  0.76594592  0.57974814  1
  N  N64  1  0.54515071  0.88654003  0.33357137  1
  N  N65  1  0.44170294  0.76216049  0.12814963  1
  N  N66  1  0.22168567  0.87239794  0.87375471  1
  N  N67  1  0.11744315  0.75567361  0.62681690  1
  N  N68  1  0.87151340  0.90651697  0.36542977  1
  N  N69  1  0.77409031  0.76386131  0.08396946  1
  N  N70  1  0.55769752  0.87526010  0.82866343  1
  N  N71  1  0.44910666  0.75998724  0.62029673  1
