# generated using pymatgen
data_Al31B5N36
_symmetry_space_group_name_H-M   'P 1'
_cell_length_a   9.40423275
_cell_length_b   9.13385833
_cell_length_c   9.82306702
_cell_angle_alpha   90.26508360
_cell_angle_beta   91.01255039
_cell_angle_gamma   60.75235647
_symmetry_Int_Tables_number   1
_chemical_formula_structural   Al31B5N36
_chemical_formula_sum   'Al31 B5 N36'
_cell_volume   736.08131702
_cell_formula_units_Z   1
loop_
 _symmetry_equiv_pos_site_id
 _symmetry_equiv_pos_as_xyz
  1  'x, y, z'
loop_
 _atom_site_type_symbol
 _atom_site_label
 _atom_site_symmetry_multiplicity
 _atom_site_fract_x
 _atom_site_fract_y
 _atom_site_fract_z
 _atom_site_occupancy
  Al  Al0  1  0.12217692  0.09440140  0.40996676  1
  Al  Al1  1  0.21842458  0.20918123  0.14834741  1
  Al  Al2  1  0.76726623  0.09712431  0.88784058  1
  Al  Al3  1  0.44943790  0.10054340  0.39989227  1
  Al  Al4  1  0.09951499  0.09712552  0.88514096  1
  Al  Al5  1  0.88554719  0.19952756  0.14805767  1
  Al  Al6  1  0.43452200  0.10268907  0.88804258  1
  Al  Al7  1  0.11088950  0.42113941  0.40464939  1
  Al  Al8  1  0.21683678  0.53941055  0.15302754  1
  Al  Al9  1  0.77264717  0.42568522  0.89854265  1
  Al  Al10  1  0.88743845  0.52962647  0.65174357  1
  Al  Al11  1  0.44475403  0.41723485  0.39718122  1
  Al  Al12  1  0.55530536  0.52995050  0.15150625  1
  Al  Al13  1  0.10295550  0.43185996  0.89911808  1
  Al  Al14  1  0.22393986  0.52704179  0.65235322  1
  Al  Al15  1  0.77888166  0.41498530  0.40240026  1
  Al  Al16  1  0.88470501  0.54111217  0.15280296  1
  Al  Al17  1  0.43997627  0.42415049  0.90014684  1
  Al  Al18  1  0.55577443  0.52619995  0.65163744  1
  Al  Al19  1  0.11611207  0.76277205  0.40229067  1
  Al  Al20  1  0.22130108  0.87622424  0.14897780  1
  Al  Al21  1  0.77477560  0.76535455  0.90192722  1
  Al  Al22  1  0.89977141  0.87223711  0.64466523  1
  Al  Al23  1  0.45043403  0.75854318  0.39972473  1
  Al  Al24  1  0.55390917  0.88393685  0.14947695  1
  Al  Al25  1  0.10618028  0.76392518  0.90125595  1
  Al  Al26  1  0.23369902  0.87214895  0.65116083  1
  Al  Al27  1  0.77793208  0.77040249  0.40135661  1
  Al  Al28  1  0.88052289  0.89114751  0.15209746  1
  Al  Al29  1  0.44237474  0.76199227  0.90151751  1
  Al  Al30  1  0.56404168  0.87675039  0.64917790  1
  B  B31  1  0.84777509  0.22312246  0.65422912  1
  B  B32  1  0.49731842  0.23522275  0.15835177  1
  B  B33  1  0.17217092  0.22697137  0.66636657  1
  B  B34  1  0.85504748  0.06934942  0.42231997  1
  B  B35  1  0.50363525  0.22678714  0.66024432  1
  N  N36  1  0.22488345  0.20351425  0.33873328  1
  N  N37  1  0.10542918  0.10042457  0.08115244  1
  N  N38  1  0.87649012  0.20774176  0.80985629  1
  N  N39  1  0.84010672  0.08915598  0.57184341  1
  N  N40  1  0.52354152  0.22036001  0.30352035  1
  N  N41  1  0.43937449  0.11765166  0.08472891  1
  N  N42  1  0.20966821  0.21236706  0.82119919  1
  N  N43  1  0.15154233  0.09819172  0.59877673  1
  N  N44  1  0.89649431  0.18616861  0.34534981  1
  N  N45  1  0.77588456  0.09978033  0.07399938  1
  N  N46  1  0.54452940  0.21073777  0.81393373  1
  N  N47  1  0.48803923  0.09846818  0.58894642  1
  N  N48  1  0.21675017  0.54027392  0.34706214  1
  N  N49  1  0.10157230  0.43258085  0.09065971  1
  N  N50  1  0.88238813  0.53965769  0.84344431  1
  N  N51  1  0.78173714  0.40087085  0.59741751  1
  N  N52  1  0.55801711  0.53128683  0.34549605  1
  N  N53  1  0.44078721  0.41163381  0.09303743  1
  N  N54  1  0.21947400  0.53817911  0.84384863  1
  N  N55  1  0.11337862  0.40247775  0.60190097  1
  N  N56  1  0.88791022  0.53717130  0.34777748  1
  N  N57  1  0.77417950  0.42674660  0.09263747  1
  N  N58  1  0.55170521  0.53629536  0.84429720  1
  N  N59  1  0.44847341  0.40061646  0.59554664  1
  N  N60  1  0.22855302  0.87234159  0.34397503  1
  N  N61  1  0.10609500  0.76432896  0.09568825  1
  N  N62  1  0.88806445  0.87162707  0.83524622  1
  N  N63  1  0.78592667  0.75488868  0.59223239  1
  N  N64  1  0.55841682  0.87442148  0.34249257  1
  N  N65  1  0.44331998  0.76200801  0.09471769  1
  N  N66  1  0.22272619  0.87012584  0.84240132  1
  N  N67  1  0.12338118  0.75199725  0.59367306  1
  N  N68  1  0.88660440  0.90185664  0.35477056  1
  N  N69  1  0.77496555  0.76799337  0.09724247  1
  N  N70  1  0.55341270  0.87488606  0.84318820  1
  N  N71  1  0.45548524  0.75307510  0.59324889  1
