# generated using pymatgen
data_Al31B5N36
_symmetry_space_group_name_H-M   'P 1'
_cell_length_a   9.38263254
_cell_length_b   9.12350119
_cell_length_c   10.10951336
_cell_angle_alpha   90.18018952
_cell_angle_beta   90.50462195
_cell_angle_gamma   60.76900232
_symmetry_Int_Tables_number   1
_chemical_formula_structural   Al31B5N36
_chemical_formula_sum   'Al31 B5 N36'
_cell_volume   755.16759636
_cell_formula_units_Z   1
loop_
 _symmetry_equiv_pos_site_id
 _symmetry_equiv_pos_as_xyz
  1  'x, y, z'
loop_
 _atom_site_type_symbol
 _atom_site_label
 _atom_site_symmetry_multiplicity
 _atom_site_fract_x
 _atom_site_fract_y
 _atom_site_fract_z
 _atom_site_occupancy
  Al  Al0  1  0.12131289  0.09065739  0.32674850  1
  Al  Al1  1  0.21316090  0.21260611  0.06882154  1
  Al  Al2  1  0.77657986  0.09371046  0.87202599  1
  Al  Al3  1  0.44739278  0.10131241  0.40041289  1
  Al  Al4  1  0.11393965  0.09630639  0.80032323  1
  Al  Al5  1  0.88358825  0.20213796  0.13827526  1
  Al  Al6  1  0.44570521  0.09695634  0.88466655  1
  Al  Al7  1  0.11343295  0.42766808  0.32588449  1
  Al  Al8  1  0.21026540  0.54283153  0.06983921  1
  Al  Al9  1  0.77702465  0.42254606  0.88343240  1
  Al  Al10  1  0.88125338  0.53156550  0.63573332  1
  Al  Al11  1  0.44624939  0.41897703  0.38666382  1
  Al  Al12  1  0.55461797  0.52919784  0.13818872  1
  Al  Al13  1  0.11355176  0.41985207  0.81599947  1
  Al  Al14  1  0.21726899  0.53048735  0.57161622  1
  Al  Al15  1  0.77786262  0.41638490  0.39067945  1
  Al  Al16  1  0.87790058  0.54470725  0.14154434  1
  Al  Al17  1  0.44637866  0.41943531  0.88831309  1
  Al  Al18  1  0.55416141  0.52636985  0.64193888  1
  Al  Al19  1  0.11783548  0.76251667  0.32210445  1
  Al  Al20  1  0.21274259  0.87971267  0.06998544  1
  Al  Al21  1  0.77848983  0.76231680  0.88937271  1
  Al  Al22  1  0.89235024  0.87624528  0.62851422  1
  Al  Al23  1  0.45856101  0.75347689  0.38792590  1
  Al  Al24  1  0.55209060  0.88426626  0.14091268  1
  Al  Al25  1  0.11380338  0.76026039  0.81748537  1
  Al  Al26  1  0.23019654  0.87382418  0.56931502  1
  Al  Al27  1  0.77629539  0.77258176  0.39052288  1
  Al  Al28  1  0.87712959  0.89272183  0.13832837  1
  Al  Al29  1  0.44675148  0.76026929  0.88942985  1
  Al  Al30  1  0.56493788  0.87505626  0.64111877  1
  B  B31  1  0.84316533  0.22516128  0.63538752  1
  B  B32  1  0.48035676  0.24153859  0.15103389  1
  B  B33  1  0.16860952  0.22852534  0.55803554  1
  B  B34  1  0.85727770  0.06794923  0.40975239  1
  B  B35  1  0.50552912  0.22609979  0.65093594  1
  N  N36  1  0.20637071  0.21582804  0.40988290  1
  N  N37  1  0.11977432  0.09569261  0.14045846  1
  N  N38  1  0.87413859  0.20980220  0.78643687  1
  N  N39  1  0.84419900  0.08750811  0.55511711  1
  N  N40  1  0.49702968  0.23069842  0.29195472  1
  N  N41  1  0.44923527  0.11281759  0.07652170  1
  N  N42  1  0.21228795  0.20667747  0.88415040  1
  N  N43  1  0.16172642  0.09300954  0.62311639  1
  N  N44  1  0.88461639  0.19080228  0.33084306  1
  N  N45  1  0.79982001  0.08985356  0.05117170  1
  N  N46  1  0.54486279  0.21036647  0.80180176  1
  N  N47  1  0.49966327  0.09301923  0.58080809  1
  N  N48  1  0.21271286  0.54712704  0.38682779  1
  N  N49  1  0.10969031  0.42805952  0.13681981  1
  N  N50  1  0.88235891  0.53941310  0.82606926  1
  N  N51  1  0.78013023  0.40140552  0.58008435  1
  N  N52  1  0.55825103  0.53004966  0.32785031  1
  N  N53  1  0.44692013  0.40569785  0.07955720  1
  N  N54  1  0.21368647  0.53983921  0.87966434  1
  N  N55  1  0.11633291  0.40075593  0.62330101  1
  N  N56  1  0.87856679  0.54314831  0.33294945  1
  N  N57  1  0.77675634  0.42505677  0.07435741  1
  N  N58  1  0.55232453  0.53589210  0.82992388  1
  N  N59  1  0.45414502  0.39682064  0.58417577  1
  N  N60  1  0.22813626  0.87049558  0.38148744  1
  N  N61  1  0.11272391  0.76017534  0.13451364  1
  N  N62  1  0.88236772  0.87243226  0.81601283  1
  N  N63  1  0.78593785  0.75415517  0.57571981  1
  N  N64  1  0.55442640  0.87971211  0.32957071  1
  N  N65  1  0.44795759  0.75882415  0.08063459  1
  N  N66  1  0.21288323  0.88098563  0.87923768  1
  N  N67  1  0.12810312  0.75184417  0.63065453  1
  N  N68  1  0.88144697  0.90519460  0.34166755  1
  N  N69  1  0.77508025  0.76813093  0.08110052  1
  N  N70  1  0.55586080  0.87273071  0.82998723  1
  N  N71  1  0.46479389  0.74767146  0.57874318  1
