# generated using pymatgen
data_Al31B5N36
_symmetry_space_group_name_H-M   'P 1'
_cell_length_a   9.27600179
_cell_length_b   9.15362298
_cell_length_c   9.92586614
_cell_angle_alpha   89.98160611
_cell_angle_beta   89.51352166
_cell_angle_gamma   60.12396968
_symmetry_Int_Tables_number   1
_chemical_formula_structural   Al31B5N36
_chemical_formula_sum   'Al31 B5 N36'
_cell_volume   730.75869407
_cell_formula_units_Z   1
loop_
 _symmetry_equiv_pos_site_id
 _symmetry_equiv_pos_as_xyz
  1  'x, y, z'
loop_
 _atom_site_type_symbol
 _atom_site_label
 _atom_site_symmetry_multiplicity
 _atom_site_fract_x
 _atom_site_fract_y
 _atom_site_fract_z
 _atom_site_occupancy
  Al  Al0  1  0.09764094  0.09871416  0.32216937  1
  Al  Al1  1  0.23090883  0.20421131  0.06224749  1
  Al  Al2  1  0.77701461  0.09974156  0.80912019  1
  Al  Al3  1  0.44111191  0.09794979  0.32885818  1
  Al  Al4  1  0.11937586  0.09662674  0.80223131  1
  Al  Al5  1  0.88537619  0.20375864  0.06180969  1
  Al  Al6  1  0.45376549  0.09793566  0.80596798  1
  Al  Al7  1  0.10738440  0.42950842  0.30945472  1
  Al  Al8  1  0.22889918  0.53023736  0.05705695  1
  Al  Al9  1  0.78154295  0.41699448  0.80303483  1
  Al  Al10  1  0.89030512  0.52783643  0.55410243  1
  Al  Al11  1  0.44430193  0.42974890  0.31174897  1
  Al  Al12  1  0.55703028  0.53085095  0.05739007  1
  Al  Al13  1  0.11646425  0.41751372  0.80507648  1
  Al  Al14  1  0.22617051  0.52505716  0.55826472  1
  Al  Al15  1  0.77056271  0.42878025  0.30865244  1
  Al  Al16  1  0.88904917  0.53699575  0.05584988  1
  Al  Al17  1  0.44961390  0.41932011  0.81266486  1
  Al  Al18  1  0.55296030  0.53425985  0.55746779  1
  Al  Al19  1  0.10464609  0.76758528  0.30756498  1
  Al  Al20  1  0.22067158  0.87556190  0.05893356  1
  Al  Al21  1  0.78068859  0.76029134  0.80694398  1
  Al  Al22  1  0.88275693  0.88515457  0.55231049  1
  Al  Al23  1  0.44033697  0.76589801  0.30713522  1
  Al  Al24  1  0.55544271  0.88183647  0.05907913  1
  Al  Al25  1  0.11157559  0.76209362  0.80705600  1
  Al  Al26  1  0.22765810  0.87683214  0.55880146  1
  Al  Al27  1  0.77212503  0.76942328  0.30674451  1
  Al  Al28  1  0.88280377  0.87974833  0.06059210  1
  Al  Al29  1  0.44736185  0.76101475  0.81049737  1
  Al  Al30  1  0.56150523  0.87697845  0.56187820  1
  B  B31  1  0.82018258  0.23282723  0.53402429  1
  B  B32  1  0.55766668  0.20373337  0.15103635  1
  B  B33  1  0.17482661  0.22497270  0.54636416  1
  B  B34  1  0.77211146  0.09347277  0.30599196  1
  B  B35  1  0.56194417  0.20613837  0.60761608  1
  N  N36  1  0.21008196  0.21158110  0.39161871  1
  N  N37  1  0.10756100  0.09934622  0.12866277  1
  N  N38  1  0.89842264  0.19871218  0.86969090  1
  N  N39  1  0.76039844  0.12452664  0.60526347  1
  N  N40  1  0.57666378  0.19593936  0.32323565  1
  N  N41  1  0.45179482  0.10687094  0.13140546  1
  N  N42  1  0.23235160  0.20017040  0.87262525  1
  N  N43  1  0.14415039  0.10128638  0.61292609  1
  N  N44  1  0.86161296  0.20158934  0.38263852  1
  N  N45  1  0.76470902  0.10263668  0.14072726  1
  N  N46  1  0.56394543  0.20324640  0.86237502  1
  N  N47  1  0.48763922  0.09888994  0.61383843  1
  N  N48  1  0.21947183  0.53998570  0.36852664  1
  N  N49  1  0.10940625  0.42805540  0.11966382  1
  N  N50  1  0.89146276  0.53263549  0.86153312  1
  N  N51  1  0.78339846  0.39799062  0.60298811  1
  N  N52  1  0.55030896  0.54382855  0.36872222  1
  N  N53  1  0.45390567  0.40680532  0.12055305  1
  N  N54  1  0.22323962  0.53614772  0.86301827  1
  N  N55  1  0.11714972  0.40036129  0.60981807  1
  N  N56  1  0.88456707  0.54097408  0.36533300  1
  N  N57  1  0.77632827  0.42737848  0.11936404  1
  N  N58  1  0.55962393  0.53525865  0.86508018  1
  N  N59  1  0.45629881  0.40170026  0.61228739  1
  N  N60  1  0.21949638  0.87336979  0.36928856  1
  N  N61  1  0.11044284  0.76024323  0.11619006  1
  N  N62  1  0.88979441  0.87458212  0.86695494  1
  N  N63  1  0.78808915  0.75299694  0.61492000  1
  N  N64  1  0.55342838  0.87199693  0.37210521  1
  N  N65  1  0.44399135  0.76230784  0.11571498  1
  N  N66  1  0.22364816  0.87311154  0.86651388  1
  N  N67  1  0.11059081  0.76226694  0.61431808  1
  N  N68  1  0.87290010  0.90006401  0.36005738  1
  N  N69  1  0.77678199  0.76173456  0.11627133  1
  N  N70  1  0.55858133  0.87268782  0.86733077  1
  N  N71  1  0.45144799  0.75723241  0.61958431  1
