# generated using pymatgen
data_Al31B5N36
_symmetry_space_group_name_H-M   'P 1'
_cell_length_a   9.39388147
_cell_length_b   9.14299201
_cell_length_c   10.10147545
_cell_angle_alpha   89.78470882
_cell_angle_beta   90.32123314
_cell_angle_gamma   60.78648039
_symmetry_Int_Tables_number   1
_chemical_formula_structural   Al31B5N36
_chemical_formula_sum   'Al31 B5 N36'
_cell_volume   757.21214572
_cell_formula_units_Z   1
loop_
 _symmetry_equiv_pos_site_id
 _symmetry_equiv_pos_as_xyz
  1  'x, y, z'
loop_
 _atom_site_type_symbol
 _atom_site_label
 _atom_site_symmetry_multiplicity
 _atom_site_fract_x
 _atom_site_fract_y
 _atom_site_fract_z
 _atom_site_occupancy
  Al  Al0  1  0.12064602  0.09066276  0.32654959  1
  Al  Al1  1  0.21242738  0.21222832  0.06852649  1
  Al  Al2  1  0.77360587  0.09810233  0.86459983  1
  Al  Al3  1  0.44786722  0.10143257  0.39852337  1
  Al  Al4  1  0.11526469  0.09554313  0.79990344  1
  Al  Al5  1  0.88051400  0.19886071  0.14156641  1
  Al  Al6  1  0.44585739  0.09684206  0.88389648  1
  Al  Al7  1  0.11342496  0.42840278  0.32547748  1
  Al  Al8  1  0.21259190  0.54002848  0.06921616  1
  Al  Al9  1  0.77773376  0.42138299  0.88686508  1
  Al  Al10  1  0.88158957  0.53037138  0.63632137  1
  Al  Al11  1  0.44517031  0.42054058  0.38477684  1
  Al  Al12  1  0.55510728  0.52948840  0.13835478  1
  Al  Al13  1  0.11506144  0.41834850  0.81498679  1
  Al  Al14  1  0.21721116  0.53081202  0.56899597  1
  Al  Al15  1  0.77810719  0.41652246  0.39121374  1
  Al  Al16  1  0.87811182  0.54357235  0.14170038  1
  Al  Al17  1  0.44721942  0.41875677  0.88722639  1
  Al  Al18  1  0.55292837  0.52839366  0.64104984  1
  Al  Al19  1  0.10800430  0.76843912  0.32141823  1
  Al  Al20  1  0.21503359  0.88032959  0.07025222  1
  Al  Al21  1  0.77443575  0.75700448  0.87986539  1
  Al  Al22  1  0.89616835  0.87453701  0.61312822  1
  Al  Al23  1  0.45828996  0.75388142  0.38556997  1
  Al  Al24  1  0.55515943  0.88458915  0.14004265  1
  Al  Al25  1  0.11578131  0.75831309  0.81511629  1
  Al  Al26  1  0.23011454  0.87396658  0.56667275  1
  Al  Al27  1  0.77710035  0.77361507  0.39429162  1
  Al  Al28  1  0.89056073  0.87791993  0.07853852  1
  Al  Al29  1  0.44594704  0.75985560  0.88895731  1
  Al  Al30  1  0.56141368  0.87675944  0.63923559  1
  B  B31  1  0.84047644  0.23289357  0.64089911  1
  B  B32  1  0.48093093  0.24167415  0.15027980  1
  B  B33  1  0.16928884  0.22797402  0.55681833  1
  B  B34  1  0.85813677  0.06965253  0.42191883  1
  B  B35  1  0.50521952  0.22695256  0.64813579  1
  N  N36  1  0.20645405  0.21564068  0.40836670  1
  N  N37  1  0.11707047  0.09593805  0.13972745  1
  N  N38  1  0.87590518  0.21347397  0.78961769  1
  N  N39  1  0.83919117  0.09765265  0.56607541  1
  N  N40  1  0.49661131  0.23216434  0.29098239  1
  N  N41  1  0.44935034  0.11335350  0.07595044  1
  N  N42  1  0.21346913  0.20535123  0.88356497  1
  N  N43  1  0.16319403  0.09194869  0.62222014  1
  N  N44  1  0.88455371  0.18877147  0.33482603  1
  N  N45  1  0.79314503  0.09711896  0.04572852  1
  N  N46  1  0.54456901  0.21066265  0.79930888  1
  N  N47  1  0.49916854  0.09421745  0.57873749  1
  N  N48  1  0.21194893  0.54913381  0.38353575  1
  N  N49  1  0.10972401  0.42742333  0.13606098  1
  N  N50  1  0.88456444  0.53467522  0.82577142  1
  N  N51  1  0.77838921  0.40564373  0.58114440  1
  N  N52  1  0.55888074  0.53033204  0.32757941  1
  N  N53  1  0.44751192  0.40630869  0.07873852  1
  N  N54  1  0.21505669  0.53797612  0.87866629  1
  N  N55  1  0.11681152  0.40035878  0.62179003  1
  N  N56  1  0.87856198  0.54502756  0.33346031  1
  N  N57  1  0.77705855  0.42333966  0.07754022  1
  N  N58  1  0.55314983  0.53581035  0.83002581  1
  N  N59  1  0.45341217  0.39837250  0.58255913  1
  N  N60  1  0.22812029  0.86935093  0.37787843  1
  N  N61  1  0.11009890  0.76115177  0.13026637  1
  N  N62  1  0.88593467  0.86929272  0.82602255  1
  N  N63  1  0.78264194  0.75301835  0.58157499  1
  N  N64  1  0.55666654  0.87955005  0.32877423  1
  N  N65  1  0.44881357  0.75959695  0.08077714  1
  N  N66  1  0.21295318  0.87992515  0.87901041  1
  N  N67  1  0.12932992  0.75093942  0.63012825  1
  N  N68  1  0.89040012  0.89882928  0.37971885  1
  N  N69  1  0.77418283  0.76316344  0.07263984  1
  N  N70  1  0.55230566  0.87398432  0.82756605  1
  N  N71  1  0.46290103  0.74894647  0.57680157  1
