# generated using pymatgen
data_Al31B5N36
_symmetry_space_group_name_H-M   'P 1'
_cell_length_a   9.35186724
_cell_length_b   9.16780130
_cell_length_c   10.06796210
_cell_angle_alpha   90.00705232
_cell_angle_beta   90.36097359
_cell_angle_gamma   60.37745457
_symmetry_Int_Tables_number   1
_chemical_formula_structural   Al31B5N36
_chemical_formula_sum   'Al31 B5 N36'
_cell_volume   750.34991365
_cell_formula_units_Z   1
loop_
 _symmetry_equiv_pos_site_id
 _symmetry_equiv_pos_as_xyz
  1  'x, y, z'
loop_
 _atom_site_type_symbol
 _atom_site_label
 _atom_site_symmetry_multiplicity
 _atom_site_fract_x
 _atom_site_fract_y
 _atom_site_fract_z
 _atom_site_occupancy
  Al  Al0  1  0.11940480  0.09139022  0.32533525  1
  Al  Al1  1  0.21788340  0.20986677  0.07093691  1
  Al  Al2  1  0.76309321  0.10457008  0.87252006  1
  Al  Al3  1  0.45527307  0.10217464  0.39435908  1
  Al  Al4  1  0.11422031  0.09765188  0.80033491  1
  Al  Al5  1  0.87239589  0.20099770  0.14288581  1
  Al  Al6  1  0.44710438  0.09511736  0.88502152  1
  Al  Al7  1  0.11585505  0.42666806  0.32563205  1
  Al  Al8  1  0.21687233  0.53768282  0.07194823  1
  Al  Al9  1  0.77760122  0.42320004  0.88534294  1
  Al  Al10  1  0.88346612  0.53036819  0.63559609  1
  Al  Al11  1  0.45183591  0.41409028  0.38057860  1
  Al  Al12  1  0.55458452  0.53186710  0.13700264  1
  Al  Al13  1  0.11839692  0.41766814  0.81533874  1
  Al  Al14  1  0.21894702  0.53098238  0.56800998  1
  Al  Al15  1  0.77729516  0.41716068  0.39239822  1
  Al  Al16  1  0.88050837  0.53921777  0.14200201  1
  Al  Al17  1  0.44676246  0.42199016  0.88744022  1
  Al  Al18  1  0.55200482  0.52965500  0.64015902  1
  Al  Al19  1  0.10766939  0.76832733  0.31850040  1
  Al  Al20  1  0.21349105  0.88035325  0.06872725  1
  Al  Al21  1  0.77435322  0.75428271  0.88532540  1
  Al  Al22  1  0.89837629  0.87464162  0.58164183  1
  Al  Al23  1  0.45503237  0.75522208  0.38629071  1
  Al  Al24  1  0.55416267  0.88224512  0.14004284  1
  Al  Al25  1  0.10996005  0.76170391  0.81756943  1
  Al  Al26  1  0.22657174  0.87702142  0.56812270  1
  Al  Al27  1  0.77414724  0.76975303  0.38963262  1
  Al  Al28  1  0.88415889  0.87916158  0.06738090  1
  Al  Al29  1  0.44519852  0.76126118  0.88684706  1
  Al  Al30  1  0.56104497  0.87832209  0.63824978  1
  B  B31  1  0.83781563  0.23289735  0.64214262  1
  B  B32  1  0.53138620  0.21710047  0.14181052  1
  B  B33  1  0.17238723  0.22756097  0.55525365  1
  B  B34  1  0.84733238  0.07760279  0.41830329  1
  B  B35  1  0.50529794  0.22741035  0.64778995  1
  N  N36  1  0.21040765  0.21333851  0.40580226  1
  N  N37  1  0.11182597  0.09751026  0.13655248  1
  N  N38  1  0.87239880  0.21135924  0.79319399  1
  N  N39  1  0.83093662  0.10290931  0.56434539  1
  N  N40  1  0.52681583  0.21789232  0.29076454  1
  N  N41  1  0.45656013  0.10805288  0.07612900  1
  N  N42  1  0.21402880  0.20525738  0.88458232  1
  N  N43  1  0.15861250  0.09616443  0.62117963  1
  N  N44  1  0.88194683  0.19057747  0.33419684  1
  N  N45  1  0.75025021  0.11316959  0.06611698  1
  N  N46  1  0.54201235  0.21205686  0.79973802  1
  N  N47  1  0.49799474  0.09553457  0.57799178  1
  N  N48  1  0.21481978  0.54789465  0.38137487  1
  N  N49  1  0.11282554  0.42575983  0.13691233  1
  N  N50  1  0.88605617  0.53465424  0.82495482  1
  N  N51  1  0.77956620  0.40522430  0.58281471  1
  N  N52  1  0.55835155  0.53266110  0.32721401  1
  N  N53  1  0.45360840  0.40554850  0.07821320  1
  N  N54  1  0.21480141  0.53986102  0.87918358  1
  N  N55  1  0.11993461  0.39997597  0.62048173  1
  N  N56  1  0.88014891  0.54106258  0.33463607  1
  N  N57  1  0.77811725  0.42167725  0.07563239  1
  N  N58  1  0.55279899  0.53741838  0.82831944  1
  N  N59  1  0.45491489  0.39797272  0.58186840  1
  N  N60  1  0.22390629  0.87114335  0.37876987  1
  N  N61  1  0.10544124  0.76513483  0.12924062  1
  N  N62  1  0.88875323  0.87154840  0.86620448  1
  N  N63  1  0.78419483  0.75319901  0.58029724  1
  N  N64  1  0.55376782  0.87867969  0.32889436  1
  N  N65  1  0.44691601  0.76044044  0.07938206  1
  N  N66  1  0.21150962  0.88159014  0.87653685  1
  N  N67  1  0.12248621  0.75441909  0.63107875  1
  N  N68  1  0.88820733  0.89857115  0.38273193  1
  N  N69  1  0.77296092  0.75791751  0.07816250  1
  N  N70  1  0.55401868  0.87299795  0.82632604  1
  N  N71  1  0.46081520  0.75073223  0.57771686  1
