# generated using pymatgen
data_Al31B5N36
_symmetry_space_group_name_H-M   'P 1'
_cell_length_a   9.33586735
_cell_length_b   9.21169121
_cell_length_c   9.93534274
_cell_angle_alpha   89.93779125
_cell_angle_beta   89.94435298
_cell_angle_gamma   60.21028464
_symmetry_Int_Tables_number   1
_chemical_formula_structural   Al31B5N36
_chemical_formula_sum   'Al31 B5 N36'
_cell_volume   741.52121450
_cell_formula_units_Z   1
loop_
 _symmetry_equiv_pos_site_id
 _symmetry_equiv_pos_as_xyz
  1  'x, y, z'
loop_
 _atom_site_type_symbol
 _atom_site_label
 _atom_site_symmetry_multiplicity
 _atom_site_fract_x
 _atom_site_fract_y
 _atom_site_fract_z
 _atom_site_occupancy
  Al  Al0  1  0.09625038  0.09997196  0.33383681  1
  Al  Al1  1  0.22371649  0.20751275  0.07728835  1
  Al  Al2  1  0.78732052  0.09719714  0.80264761  1
  Al  Al3  1  0.45074281  0.10005100  0.40137500  1
  Al  Al4  1  0.11739927  0.09798863  0.81387503  1
  Al  Al5  1  0.88595724  0.20554334  0.07433068  1
  Al  Al6  1  0.45839625  0.09337696  0.89046538  1
  Al  Al7  1  0.10655543  0.42972521  0.32436720  1
  Al  Al8  1  0.22089853  0.53509686  0.07412728  1
  Al  Al9  1  0.78792534  0.41477840  0.81406050  1
  Al  Al10  1  0.88722266  0.52992661  0.56726972  1
  Al  Al11  1  0.45092168  0.41401503  0.38661752  1
  Al  Al12  1  0.55308180  0.53208663  0.12905686  1
  Al  Al13  1  0.11881643  0.41639640  0.81816890  1
  Al  Al14  1  0.21424646  0.53320117  0.57039963  1
  Al  Al15  1  0.77441545  0.42647721  0.32626551  1
  Al  Al16  1  0.88816874  0.53743157  0.06891504  1
  Al  Al17  1  0.45489672  0.41704366  0.88831360  1
  Al  Al18  1  0.55338735  0.52577594  0.61940701  1
  Al  Al19  1  0.10264121  0.76924668  0.31797410  1
  Al  Al20  1  0.21863885  0.87688199  0.06918349  1
  Al  Al21  1  0.78874798  0.75609954  0.82044987  1
  Al  Al22  1  0.88925387  0.88340742  0.56091761  1
  Al  Al23  1  0.43161076  0.76860543  0.32835564  1
  Al  Al24  1  0.55236897  0.88469378  0.13780690  1
  Al  Al25  1  0.11046344  0.76153852  0.81906186  1
  Al  Al26  1  0.22300092  0.87962583  0.57139002  1
  Al  Al27  1  0.77727441  0.76703834  0.32261876  1
  Al  Al28  1  0.88184976  0.88041152  0.07154198  1
  Al  Al29  1  0.44158054  0.76127936  0.82089838  1
  Al  Al30  1  0.55829251  0.88353451  0.63547047  1
  B  B31  1  0.83427932  0.22132903  0.54479688  1
  B  B32  1  0.55634094  0.20492806  0.15128377  1
  B  B33  1  0.16932339  0.22832599  0.56009117  1
  B  B34  1  0.77076093  0.09486714  0.30991692  1
  B  B35  1  0.50440812  0.22861377  0.65116530  1
  N  N36  1  0.20577657  0.21416564  0.40547632  1
  N  N37  1  0.10889531  0.09835148  0.14095617  1
  N  N38  1  0.89514953  0.20028691  0.88428163  1
  N  N39  1  0.82512558  0.09604150  0.62074270  1
  N  N40  1  0.56430523  0.19880543  0.31177158  1
  N  N41  1  0.46640892  0.10929733  0.08592005  1
  N  N42  1  0.22624572  0.20224914  0.88886650  1
  N  N43  1  0.15108538  0.10082745  0.62748959  1
  N  N44  1  0.85987511  0.20147794  0.38800587  1
  N  N45  1  0.76718433  0.10253170  0.14654953  1
  N  N46  1  0.54913521  0.21014004  0.80193744  1
  N  N47  1  0.49066196  0.09983594  0.58311753  1
  N  N48  1  0.21442118  0.54386522  0.37822839  1
  N  N49  1  0.10926257  0.42733987  0.13564002  1
  N  N50  1  0.89429892  0.53142455  0.87529246  1
  N  N51  1  0.78787416  0.39555880  0.61120827  1
  N  N52  1  0.54779610  0.53982272  0.34894651  1
  N  N53  1  0.46259449  0.39554420  0.08545056  1
  N  N54  1  0.22054750  0.53748083  0.87885789  1
  N  N55  1  0.11503516  0.40217336  0.62375611  1
  N  N56  1  0.88451639  0.54187691  0.37945199  1
  N  N57  1  0.78112513  0.42613493  0.13340015  1
  N  N58  1  0.56010765  0.53095124  0.83468613  1
  N  N59  1  0.44957959  0.39782896  0.58403262  1
  N  N60  1  0.21282675  0.87679278  0.38268942  1
  N  N61  1  0.10900105  0.76262638  0.12747234  1
  N  N62  1  0.88629511  0.87980947  0.87930105  1
  N  N63  1  0.79272986  0.75348922  0.62548350  1
  N  N64  1  0.54684925  0.88344198  0.33721310  1
  N  N65  1  0.43732665  0.76516433  0.12570451  1
  N  N66  1  0.22120090  0.87423747  0.87723739  1
  N  N67  1  0.11428813  0.75741844  0.62758325  1
  N  N68  1  0.87065844  0.90265096  0.36825992  1
  N  N69  1  0.78201098  0.75865506  0.12781402  1
  N  N70  1  0.55890156  0.87420525  0.83532988  1
  N  N71  1  0.44689977  0.75918035  0.62047890  1
