# generated using pymatgen
data_Al31B5N36
_symmetry_space_group_name_H-M   'P 1'
_cell_length_a   9.29393189
_cell_length_b   9.15654492
_cell_length_c   9.98402159
_cell_angle_alpha   90.37442544
_cell_angle_beta   89.93038046
_cell_angle_gamma   60.42248895
_symmetry_Int_Tables_number   1
_chemical_formula_structural   Al31B5N36
_chemical_formula_sum   'Al31 B5 N36'
_cell_volume   738.89978112
_cell_formula_units_Z   1
loop_
 _symmetry_equiv_pos_site_id
 _symmetry_equiv_pos_as_xyz
  1  'x, y, z'
loop_
 _atom_site_type_symbol
 _atom_site_label
 _atom_site_symmetry_multiplicity
 _atom_site_fract_x
 _atom_site_fract_y
 _atom_site_fract_z
 _atom_site_occupancy
  Al  Al0  1  0.09662881  0.09853026  0.32937136  1
  Al  Al1  1  0.22536686  0.20634235  0.07358475  1
  Al  Al2  1  0.79137796  0.09470521  0.79905955  1
  Al  Al3  1  0.44649806  0.10911791  0.39932867  1
  Al  Al4  1  0.11920827  0.09739081  0.80851712  1
  Al  Al5  1  0.88690856  0.20419545  0.06865532  1
  Al  Al6  1  0.45636696  0.10036691  0.88657048  1
  Al  Al7  1  0.10308267  0.43107065  0.31754464  1
  Al  Al8  1  0.22732119  0.53119243  0.06444977  1
  Al  Al9  1  0.78215569  0.41749306  0.80794453  1
  Al  Al10  1  0.88671996  0.52910369  0.56121095  1
  Al  Al11  1  0.44176111  0.42916773  0.31053236  1
  Al  Al12  1  0.55814789  0.53101216  0.06396110  1
  Al  Al13  1  0.11525350  0.41801313  0.81117502  1
  Al  Al14  1  0.22035529  0.52958356  0.56074997  1
  Al  Al15  1  0.76812293  0.42872190  0.31543248  1
  Al  Al16  1  0.89027784  0.53550051  0.06288122  1
  Al  Al17  1  0.44067550  0.43598182  0.81475633  1
  Al  Al18  1  0.55257325  0.52804356  0.56173560  1
  Al  Al19  1  0.10316801  0.76847465  0.31236301  1
  Al  Al20  1  0.22131823  0.87495028  0.06517958  1
  Al  Al21  1  0.78181126  0.76022949  0.81354694  1
  Al  Al22  1  0.89058964  0.88192150  0.55560298  1
  Al  Al23  1  0.43786631  0.76753006  0.31610937  1
  Al  Al24  1  0.56221222  0.86908447  0.06997973  1
  Al  Al25  1  0.10953948  0.76285971  0.81314252  1
  Al  Al26  1  0.22657518  0.87673690  0.56639378  1
  Al  Al27  1  0.76869839  0.77152650  0.31468347  1
  Al  Al28  1  0.88438934  0.87850897  0.06737243  1
  Al  Al29  1  0.44682756  0.76179331  0.81530126  1
  Al  Al30  1  0.56333112  0.87121908  0.57314784  1
  B  B31  1  0.83245742  0.22200469  0.54071735  1
  B  B32  1  0.55959534  0.19717437  0.15177782  1
  B  B33  1  0.16920433  0.22846868  0.55462568  1
  B  B34  1  0.77253651  0.09390518  0.30788536  1
  B  B35  1  0.50750147  0.22429220  0.65386188  1
  N  N36  1  0.20406966  0.21578716  0.39971480  1
  N  N37  1  0.10903742  0.09759185  0.13667559  1
  N  N38  1  0.89672475  0.20162881  0.87873990  1
  N  N39  1  0.82442824  0.09592297  0.61622701  1
  N  N40  1  0.56998882  0.19218210  0.31203586  1
  N  N41  1  0.46652394  0.10886376  0.08480300  1
  N  N42  1  0.22606007  0.20459656  0.88420022  1
  N  N43  1  0.15237393  0.09968884  0.62200383  1
  N  N44  1  0.85907696  0.20248366  0.38356513  1
  N  N45  1  0.76813768  0.10126122  0.14288183  1
  N  N46  1  0.55792753  0.20278278  0.80284279  1
  N  N47  1  0.48568016  0.10318129  0.58273437  1
  N  N48  1  0.21823230  0.54048227  0.37162425  1
  N  N49  1  0.10935436  0.42817726  0.12924421  1
  N  N50  1  0.89184517  0.53367412  0.86910422  1
  N  N51  1  0.78156508  0.39856169  0.60905002  1
  N  N52  1  0.54728553  0.54232664  0.37349090  1
  N  N53  1  0.45459785  0.40646818  0.11925103  1
  N  N54  1  0.22106957  0.53731627  0.87257444  1
  N  N55  1  0.11369976  0.40354817  0.61708633  1
  N  N56  1  0.88114645  0.54316863  0.37324160  1
  N  N57  1  0.77640953  0.42786967  0.12627276  1
  N  N58  1  0.56078815  0.53571347  0.87264649  1
  N  N59  1  0.44131539  0.41138198  0.62073826  1
  N  N60  1  0.21761063  0.87394766  0.37722517  1
  N  N61  1  0.11111073  0.76029539  0.12215068  1
  N  N62  1  0.88733464  0.87807577  0.87508510  1
  N  N63  1  0.78843524  0.75504590  0.62286824  1
  N  N64  1  0.55038883  0.87461516  0.37854798  1
  N  N65  1  0.44329101  0.76087412  0.12451129  1
  N  N66  1  0.22388951  0.87338769  0.87297171  1
  N  N67  1  0.11494466  0.75612384  0.62152744  1
  N  N68  1  0.87193429  0.90036827  0.36347477  1
  N  N69  1  0.78044882  0.75860708  0.12503650  1
  N  N70  1  0.56237956  0.86689423  0.87605486  1
  N  N71  1  0.45198117  0.75258729  0.62591619  1
