# generated using pymatgen
data_Al31B5N36
_symmetry_space_group_name_H-M   'P 1'
_cell_length_a   9.26862587
_cell_length_b   9.16261789
_cell_length_c   10.17336029
_cell_angle_alpha   89.29294707
_cell_angle_beta   90.13114114
_cell_angle_gamma   59.86214233
_symmetry_Int_Tables_number   1
_chemical_formula_structural   Al31B5N36
_chemical_formula_sum   'Al31 B5 N36'
_cell_volume   747.08675075
_cell_formula_units_Z   1
loop_
 _symmetry_equiv_pos_site_id
 _symmetry_equiv_pos_as_xyz
  1  'x, y, z'
loop_
 _atom_site_type_symbol
 _atom_site_label
 _atom_site_symmetry_multiplicity
 _atom_site_fract_x
 _atom_site_fract_y
 _atom_site_fract_z
 _atom_site_occupancy
  Al  Al0  1  0.10469960  0.09175112  0.32330349  1
  Al  Al1  1  0.22414991  0.20802541  0.07060404  1
  Al  Al2  1  0.78500627  0.09902759  0.80146126  1
  Al  Al3  1  0.45294288  0.09816798  0.40076969  1
  Al  Al4  1  0.10734593  0.10242872  0.81881872  1
  Al  Al5  1  0.88102580  0.20744597  0.11975545  1
  Al  Al6  1  0.45851173  0.09258243  0.88813278  1
  Al  Al7  1  0.11323013  0.42555702  0.32564714  1
  Al  Al8  1  0.22128263  0.53499401  0.07184020  1
  Al  Al9  1  0.78051348  0.42756090  0.89462839  1
  Al  Al10  1  0.88279325  0.53688988  0.63603366  1
  Al  Al11  1  0.45561538  0.41195417  0.38665059  1
  Al  Al12  1  0.55374432  0.53442035  0.14231531  1
  Al  Al13  1  0.12294661  0.41698029  0.81597384  1
  Al  Al14  1  0.21757904  0.53299673  0.56612777  1
  Al  Al15  1  0.77750770  0.41167676  0.38860425  1
  Al  Al16  1  0.88078445  0.54202501  0.14442963  1
  Al  Al17  1  0.45639610  0.41648278  0.89039144  1
  Al  Al18  1  0.56073962  0.52242723  0.64144931  1
  Al  Al19  1  0.10208853  0.76931261  0.31545119  1
  Al  Al20  1  0.21511057  0.87875577  0.06436544  1
  Al  Al21  1  0.77828447  0.75591090  0.88883407  1
  Al  Al22  1  0.89018183  0.89356599  0.55640774  1
  Al  Al23  1  0.44719195  0.75823991  0.39195987  1
  Al  Al24  1  0.55413638  0.87946997  0.14083750  1
  Al  Al25  1  0.10700793  0.76253466  0.81530220  1
  Al  Al26  1  0.21433945  0.88082442  0.57296190  1
  Al  Al27  1  0.76966932  0.76552460  0.38528994  1
  Al  Al28  1  0.88318382  0.88327357  0.06612202  1
  Al  Al29  1  0.45074449  0.75765577  0.88555592  1
  Al  Al30  1  0.56391039  0.87754945  0.64078494  1
  B  B31  1  0.89902942  0.20829037  0.60934034  1
  B  B32  1  0.55232546  0.20371706  0.14552511  1
  B  B33  1  0.15651528  0.24036545  0.55493570  1
  B  B34  1  0.77248815  0.09190212  0.29641338  1
  B  B35  1  0.50536501  0.22855969  0.64777276  1
  N  N36  1  0.20233132  0.21121102  0.41025007  1
  N  N37  1  0.12101774  0.09289861  0.13678239  1
  N  N38  1  0.89119136  0.20168877  0.87534567  1
  N  N39  1  0.83025342  0.10020464  0.62327037  1
  N  N40  1  0.55853071  0.20018102  0.30629144  1
  N  N41  1  0.46461925  0.10698683  0.08020439  1
  N  N42  1  0.22404531  0.20197161  0.88438935  1
  N  N43  1  0.09664460  0.12747411  0.61973828  1
  N  N44  1  0.86844281  0.19507779  0.32184086  1
  N  N45  1  0.75557129  0.09648512  0.13782249  1
  N  N46  1  0.54358407  0.21293229  0.79740276  1
  N  N47  1  0.48819742  0.09893741  0.58176074  1
  N  N48  1  0.21544504  0.54329703  0.38020366  1
  N  N49  1  0.11722310  0.42256176  0.13909273  1
  N  N50  1  0.88810019  0.53857716  0.82319568  1
  N  N51  1  0.79348825  0.39897327  0.58089745  1
  N  N52  1  0.55232241  0.53710812  0.33126996  1
  N  N53  1  0.46384013  0.39732820  0.08242045  1
  N  N54  1  0.21904647  0.53859624  0.88097444  1
  N  N55  1  0.12201443  0.39989721  0.62103484  1
  N  N56  1  0.87835563  0.53880169  0.33333382  1
  N  N57  1  0.77209467  0.43639492  0.08039137  1
  N  N58  1  0.55830721  0.53457008  0.82702540  1
  N  N59  1  0.45652763  0.39835736  0.58134333  1
  N  N60  1  0.21355967  0.87322830  0.38583928  1
  N  N61  1  0.10949935  0.76300481  0.12853699  1
  N  N62  1  0.88585034  0.88099275  0.87644362  1
  N  N63  1  0.78442868  0.75845335  0.57362845  1
  N  N64  1  0.54474719  0.88060900  0.32844009  1
  N  N65  1  0.44851966  0.75983629  0.07697086  1
  N  N66  1  0.21726887  0.87574642  0.87162635  1
  N  N67  1  0.11383399  0.75431793  0.62823965  1
  N  N68  1  0.86980303  0.90393404  0.36412080  1
  N  N69  1  0.77457830  0.75871972  0.07823332  1
  N  N70  1  0.55801957  0.87236223  0.82660944  1
  N  N71  1  0.45495523  0.75650608  0.58251616  1
