# generated using pymatgen
data_Al31B5N36
_symmetry_space_group_name_H-M   'P 1'
_cell_length_a   9.30271029
_cell_length_b   9.20266002
_cell_length_c   10.06648710
_cell_angle_alpha   89.75153109
_cell_angle_beta   90.18273284
_cell_angle_gamma   59.97115910
_symmetry_Int_Tables_number   1
_chemical_formula_structural   Al31B5N36
_chemical_formula_sum   'Al31 B5 N36'
_cell_volume   746.09263606
_cell_formula_units_Z   1
loop_
 _symmetry_equiv_pos_site_id
 _symmetry_equiv_pos_as_xyz
  1  'x, y, z'
loop_
 _atom_site_type_symbol
 _atom_site_label
 _atom_site_symmetry_multiplicity
 _atom_site_fract_x
 _atom_site_fract_y
 _atom_site_fract_z
 _atom_site_occupancy
  Al  Al0  1  0.09629754  0.09554974  0.32343494  1
  Al  Al1  1  0.22343235  0.20743605  0.07206222  1
  Al  Al2  1  0.78506434  0.09680778  0.80900433  1
  Al  Al3  1  0.45153833  0.10064675  0.40053214  1
  Al  Al4  1  0.10754446  0.10074032  0.82055344  1
  Al  Al5  1  0.88379747  0.20479745  0.08374408  1
  Al  Al6  1  0.45802341  0.09223238  0.88920893  1
  Al  Al7  1  0.10637295  0.42904678  0.32365125  1
  Al  Al8  1  0.22056631  0.53477207  0.07310457  1
  Al  Al9  1  0.78601899  0.42091895  0.83009237  1
  Al  Al10  1  0.88462737  0.53577533  0.56795818  1
  Al  Al11  1  0.45656936  0.41077288  0.38751938  1
  Al  Al12  1  0.55035468  0.53111420  0.13743273  1
  Al  Al13  1  0.11789802  0.41817531  0.81629257  1
  Al  Al14  1  0.21707509  0.53228250  0.56690989  1
  Al  Al15  1  0.77974082  0.41741211  0.32040251  1
  Al  Al16  1  0.88783636  0.53981728  0.07000847  1
  Al  Al17  1  0.45452472  0.41625941  0.89047652  1
  Al  Al18  1  0.55807622  0.52007315  0.63477155  1
  Al  Al19  1  0.10270853  0.76787976  0.31696043  1
  Al  Al20  1  0.21976030  0.87487890  0.06596150  1
  Al  Al21  1  0.78922139  0.75715940  0.81912940  1
  Al  Al22  1  0.88932141  0.89070041  0.56047038  1
  Al  Al23  1  0.43245158  0.76726537  0.32557932  1
  Al  Al24  1  0.55094012  0.88536713  0.13861845  1
  Al  Al25  1  0.10903757  0.76085804  0.81629736  1
  Al  Al26  1  0.21813103  0.87860221  0.56798524  1
  Al  Al27  1  0.77745410  0.76705762  0.32272293  1
  Al  Al28  1  0.88069009  0.87882345  0.07003088  1
  Al  Al29  1  0.43885081  0.76426133  0.81951384  1
  Al  Al30  1  0.55905723  0.88373534  0.63514755  1
  B  B31  1  0.89993088  0.20673310  0.60807853  1
  B  B32  1  0.55556892  0.20291095  0.14833444  1
  B  B33  1  0.15620292  0.23950326  0.55477954  1
  B  B34  1  0.77782362  0.09612514  0.30213421  1
  B  B35  1  0.50548014  0.22848289  0.65035604  1
  N  N36  1  0.20073680  0.21274208  0.40815637  1
  N  N37  1  0.11613333  0.09426447  0.13400345  1
  N  N38  1  0.88980040  0.20231121  0.89265183  1
  N  N39  1  0.83670099  0.09551149  0.63268169  1
  N  N40  1  0.56043395  0.19980456  0.30744485  1
  N  N41  1  0.46404142  0.10874043  0.08144076  1
  N  N42  1  0.22395772  0.20161775  0.88320940  1
  N  N43  1  0.09806783  0.12596847  0.61978518  1
  N  N44  1  0.86882424  0.19010031  0.34809302  1
  N  N45  1  0.76070943  0.09907071  0.13918758  1
  N  N46  1  0.54599199  0.21089395  0.80055545  1
  N  N47  1  0.48651619  0.10174388  0.58229164  1
  N  N48  1  0.21603396  0.54135240  0.37846592  1
  N  N49  1  0.11073130  0.42540072  0.13651232  1
  N  N50  1  0.89598884  0.53506365  0.87925823  1
  N  N51  1  0.79794043  0.39794081  0.62945520  1
  N  N52  1  0.54927554  0.53619749  0.33650799  1
  N  N53  1  0.46230605  0.39545938  0.08219850  1
  N  N54  1  0.21934046  0.53749574  0.87900001  1
  N  N55  1  0.11644536  0.40229421  0.62219241  1
  N  N56  1  0.88272776  0.53960649  0.38134054  1
  N  N57  1  0.77845578  0.43088059  0.12668424  1
  N  N58  1  0.55549664  0.53240244  0.83030889  1
  N  N59  1  0.45472092  0.39638292  0.58282886  1
  N  N60  1  0.21480139  0.87430087  0.38237239  1
  N  N61  1  0.10934877  0.76227918  0.12758411  1
  N  N62  1  0.88668168  0.87759127  0.88075897  1
  N  N63  1  0.79380878  0.75770878  0.62615407  1
  N  N64  1  0.54493330  0.88463238  0.33596903  1
  N  N65  1  0.43756535  0.76500714  0.12387017  1
  N  N66  1  0.21857469  0.87498163  0.87457500  1
  N  N67  1  0.11631681  0.75413746  0.62702952  1
  N  N68  1  0.87192030  0.90112757  0.36937835  1
  N  N69  1  0.78191806  0.75883159  0.13079761  1
  N  N70  1  0.55843701  0.87433700  0.83187668  1
  N  N71  1  0.44341919  0.76258363  0.62082788  1
