# generated using pymatgen
data_Al31B5N36
_symmetry_space_group_name_H-M   'P 1'
_cell_length_a   9.39075888
_cell_length_b   9.14515780
_cell_length_c   9.94376778
_cell_angle_alpha   90.00544601
_cell_angle_beta   90.54983325
_cell_angle_gamma   60.70860057
_symmetry_Int_Tables_number   1
_chemical_formula_structural   Al31B5N36
_chemical_formula_sum   'Al31 B5 N36'
_cell_volume   744.73950105
_cell_formula_units_Z   1
loop_
 _symmetry_equiv_pos_site_id
 _symmetry_equiv_pos_as_xyz
  1  'x, y, z'
loop_
 _atom_site_type_symbol
 _atom_site_label
 _atom_site_symmetry_multiplicity
 _atom_site_fract_x
 _atom_site_fract_y
 _atom_site_fract_z
 _atom_site_occupancy
  Al  Al0  1  0.11539823  0.09331188  0.34266166  1
  Al  Al1  1  0.21601817  0.20510519  0.08637094  1
  Al  Al2  1  0.77172918  0.09638210  0.88599529  1
  Al  Al3  1  0.45213997  0.09970573  0.40293806  1
  Al  Al4  1  0.11111162  0.10869363  0.80661177  1
  Al  Al5  1  0.87795860  0.20185267  0.15030653  1
  Al  Al6  1  0.44380953  0.09785545  0.89798174  1
  Al  Al7  1  0.10472936  0.43519906  0.40110054  1
  Al  Al8  1  0.21770942  0.53962375  0.15400660  1
  Al  Al9  1  0.77460781  0.42411033  0.89766787  1
  Al  Al10  1  0.89220395  0.52587466  0.65116035  1
  Al  Al11  1  0.44345752  0.42004309  0.39893247  1
  Al  Al12  1  0.55575109  0.52907090  0.15085200  1
  Al  Al13  1  0.10115353  0.43791281  0.90354900  1
  Al  Al14  1  0.22224184  0.52775710  0.65357896  1
  Al  Al15  1  0.77642494  0.41646691  0.40403451  1
  Al  Al16  1  0.88287868  0.54168876  0.15459390  1
  Al  Al17  1  0.43964085  0.42371271  0.90174884  1
  Al  Al18  1  0.55698072  0.52448700  0.65490321  1
  Al  Al19  1  0.11432474  0.76270440  0.40413030  1
  Al  Al20  1  0.22717876  0.86581008  0.15197685  1
  Al  Al21  1  0.77565816  0.76378854  0.90188003  1
  Al  Al22  1  0.89868210  0.87238500  0.64617618  1
  Al  Al23  1  0.45319841  0.75570510  0.40190599  1
  Al  Al24  1  0.55590157  0.88161062  0.15327459  1
  Al  Al25  1  0.10661898  0.76899545  0.89993203  1
  Al  Al26  1  0.23829422  0.86526143  0.64075990  1
  Al  Al27  1  0.77695601  0.77150260  0.40408941  1
  Al  Al28  1  0.88186720  0.88948030  0.15035193  1
  Al  Al29  1  0.43911116  0.76456206  0.90034193  1
  Al  Al30  1  0.55835503  0.87930349  0.65233379  1
  B  B31  1  0.84050462  0.22565151  0.65001427  1
  B  B32  1  0.49754043  0.23370115  0.16435690  1
  B  B33  1  0.20175021  0.21252497  0.56190220  1
  B  B34  1  0.84956672  0.07072961  0.42367656  1
  B  B35  1  0.49430663  0.23115527  0.66382289  1
  N  N36  1  0.22211556  0.20325294  0.40267646  1
  N  N37  1  0.10924751  0.09907713  0.14818941  1
  N  N38  1  0.87318017  0.21061908  0.80290578  1
  N  N39  1  0.83337371  0.09001099  0.57167007  1
  N  N40  1  0.52274064  0.22226212  0.30812770  1
  N  N41  1  0.45043337  0.11186537  0.09438079  1
  N  N42  1  0.21530798  0.20563666  0.89496511  1
  N  N43  1  0.16001397  0.09580865  0.62342497  1
  N  N44  1  0.88175556  0.19103036  0.34627881  1
  N  N45  1  0.77990122  0.09684338  0.07008336  1
  N  N46  1  0.54338706  0.21055740  0.81368584  1
  N  N47  1  0.46133116  0.10974537  0.59548916  1
  N  N48  1  0.21771645  0.54285730  0.34435057  1
  N  N49  1  0.09880004  0.43845877  0.09803979  1
  N  N50  1  0.88433028  0.53837675  0.84153480  1
  N  N51  1  0.78094111  0.40182281  0.59536190  1
  N  N52  1  0.55803562  0.53157334  0.34333335  1
  N  N53  1  0.44229268  0.40853308  0.09440959  1
  N  N54  1  0.21913106  0.54035249  0.84364977  1
  N  N55  1  0.11547557  0.40729395  0.59506465  1
  N  N56  1  0.88360983  0.53988325  0.34723680  1
  N  N57  1  0.77516225  0.42590966  0.09032267  1
  N  N58  1  0.55181811  0.53619616  0.84538394  1
  N  N59  1  0.44789727  0.40086348  0.59701306  1
  N  N60  1  0.23474515  0.86053364  0.34697493  1
  N  N61  1  0.10795028  0.76344619  0.09284560  1
  N  N62  1  0.88828078  0.87103041  0.83468123  1
  N  N63  1  0.78243365  0.75794932  0.59329076  1
  N  N64  1  0.55785294  0.87539464  0.34458935  1
  N  N65  1  0.44519236  0.76116691  0.09281861  1
  N  N66  1  0.22150460  0.87314908  0.83602132  1
  N  N67  1  0.12138000  0.75113709  0.59244198  1
  N  N68  1  0.88568416  0.90192114  0.35420994  1
  N  N69  1  0.77546049  0.76690831  0.09622609  1
  N  N70  1  0.55467636  0.87387122  0.84377238  1
  N  N71  1  0.46047610  0.74791217  0.59226394  1
