# generated using pymatgen
data_Al31B5N36
_symmetry_space_group_name_H-M   'P 1'
_cell_length_a   9.27156143
_cell_length_b   9.16008311
_cell_length_c   10.18105492
_cell_angle_alpha   89.28381958
_cell_angle_beta   90.09559001
_cell_angle_gamma   59.86555093
_symmetry_Int_Tables_number   1
_chemical_formula_structural   Al31B5N36
_chemical_formula_sum   'Al31 B5 N36'
_cell_volume   747.71049823
_cell_formula_units_Z   1
loop_
 _symmetry_equiv_pos_site_id
 _symmetry_equiv_pos_as_xyz
  1  'x, y, z'
loop_
 _atom_site_type_symbol
 _atom_site_label
 _atom_site_symmetry_multiplicity
 _atom_site_fract_x
 _atom_site_fract_y
 _atom_site_fract_z
 _atom_site_occupancy
  Al  Al0  1  0.10640298  0.09088167  0.32647036  1
  Al  Al1  1  0.22373968  0.20812713  0.07131679  1
  Al  Al2  1  0.78190848  0.09452914  0.79580103  1
  Al  Al3  1  0.45283131  0.09787036  0.40114230  1
  Al  Al4  1  0.11740666  0.09925810  0.81241706  1
  Al  Al5  1  0.87932202  0.20947302  0.13743139  1
  Al  Al6  1  0.45806787  0.09325907  0.88875950  1
  Al  Al7  1  0.11271685  0.42533617  0.32605989  1
  Al  Al8  1  0.22110763  0.53480388  0.07184081  1
  Al  Al9  1  0.78086235  0.42875903  0.88948281  1
  Al  Al10  1  0.88212783  0.53775593  0.63643300  1
  Al  Al11  1  0.45613885  0.41160374  0.38716001  1
  Al  Al12  1  0.55485907  0.53288256  0.14156591  1
  Al  Al13  1  0.12272998  0.41791734  0.81553772  1
  Al  Al14  1  0.21713435  0.53281550  0.56639441  1
  Al  Al15  1  0.77822961  0.40978411  0.39529636  1
  Al  Al16  1  0.88113864  0.53993085  0.14342008  1
  Al  Al17  1  0.45546602  0.41728521  0.89016059  1
  Al  Al18  1  0.56008029  0.52413861  0.64186366  1
  Al  Al19  1  0.10272750  0.76814972  0.31532721  1
  Al  Al20  1  0.21525254  0.87816348  0.06553915  1
  Al  Al21  1  0.77784997  0.75768248  0.88938762  1
  Al  Al22  1  0.88959993  0.89465925  0.55443087  1
  Al  Al23  1  0.44814910  0.75688071  0.39202648  1
  Al  Al24  1  0.55434372  0.87915276  0.14155021  1
  Al  Al25  1  0.10675438  0.76347954  0.81504866  1
  Al  Al26  1  0.21385041  0.88214225  0.57195131  1
  Al  Al27  1  0.76968115  0.76417893  0.38511197  1
  Al  Al28  1  0.88366068  0.88224401  0.06804443  1
  Al  Al29  1  0.45019795  0.75840636  0.88616999  1
  Al  Al30  1  0.56350986  0.87780844  0.64025998  1
  B  B31  1  0.88999659  0.21431545  0.64296361  1
  B  B32  1  0.55192864  0.20408668  0.14547401  1
  B  B33  1  0.15834744  0.23685157  0.55615216  1
  B  B34  1  0.77132474  0.09033582  0.29809650  1
  B  B35  1  0.50628486  0.22851156  0.64699993  1
  N  N36  1  0.20335267  0.21095345  0.40974003  1
  N  N37  1  0.11806933  0.09386321  0.13668594  1
  N  N38  1  0.88872905  0.21659590  0.82362185  1
  N  N39  1  0.82594360  0.09898686  0.61954816  1
  N  N40  1  0.55986576  0.19906944  0.30627027  1
  N  N41  1  0.46473561  0.10658772  0.08082481  1
  N  N42  1  0.22384562  0.20340673  0.88603063  1
  N  N43  1  0.10785408  0.12061139  0.62127025  1
  N  N44  1  0.86868073  0.19427942  0.32501895  1
  N  N45  1  0.75592365  0.09738610  0.13666087  1
  N  N46  1  0.54241569  0.21354220  0.79789976  1
  N  N47  1  0.48802825  0.09923764  0.58170841  1
  N  N48  1  0.21569272  0.54256269  0.38023218  1
  N  N49  1  0.11712418  0.42245490  0.13933163  1
  N  N50  1  0.88835237  0.54182366  0.82389489  1
  N  N51  1  0.79089194  0.40205391  0.58453476  1
  N  N52  1  0.55432281  0.53535027  0.33059479  1
  N  N53  1  0.46372517  0.39690810  0.08242981  1
  N  N54  1  0.21862031  0.53956130  0.88123708  1
  N  N55  1  0.12134637  0.39964472  0.62121327  1
  N  N56  1  0.87749802  0.53708259  0.33244414  1
  N  N57  1  0.77599503  0.42890634  0.07530352  1
  N  N58  1  0.55659040  0.53618248  0.82789692  1
  N  N59  1  0.45612789  0.39913337  0.58151002  1
  N  N60  1  0.21463161  0.87153930  0.38471464  1
  N  N61  1  0.10990377  0.76225614  0.12884023  1
  N  N62  1  0.88615457  0.88324071  0.87922541  1
  N  N63  1  0.78426662  0.75894227  0.57296407  1
  N  N64  1  0.54479900  0.88025329  0.32850195  1
  N  N65  1  0.44930049  0.75908001  0.07751972  1
  N  N66  1  0.21592505  0.87726641  0.87391277  1
  N  N67  1  0.11365921  0.75483505  0.62814795  1
  N  N68  1  0.86990823  0.90233913  0.36192222  1
  N  N69  1  0.77447168  0.75768058  0.07864352  1
  N  N70  1  0.55757641  0.87316273  0.82673152  1
  N  N71  1  0.45458774  0.75682940  0.58216921  1
