# generated using pymatgen
data_Al31B5N36
_symmetry_space_group_name_H-M   'P 1'
_cell_length_a   9.29457378
_cell_length_b   9.20155610
_cell_length_c   10.04633523
_cell_angle_alpha   89.88884047
_cell_angle_beta   90.30804578
_cell_angle_gamma   60.02898160
_symmetry_Int_Tables_number   1
_chemical_formula_structural   Al31B5N36
_chemical_formula_sum   'Al31 B5 N36'
_cell_volume   744.29198426
_cell_formula_units_Z   1
loop_
 _symmetry_equiv_pos_site_id
 _symmetry_equiv_pos_as_xyz
  1  'x, y, z'
loop_
 _atom_site_type_symbol
 _atom_site_label
 _atom_site_symmetry_multiplicity
 _atom_site_fract_x
 _atom_site_fract_y
 _atom_site_fract_z
 _atom_site_occupancy
  Al  Al0  1  0.09608918  0.09623285  0.32478317  1
  Al  Al1  1  0.22349605  0.20700361  0.07236248  1
  Al  Al2  1  0.78520983  0.09646431  0.80720942  1
  Al  Al3  1  0.45148516  0.10081828  0.40088905  1
  Al  Al4  1  0.10708367  0.10088394  0.81710765  1
  Al  Al5  1  0.88405539  0.20576726  0.07937867  1
  Al  Al6  1  0.45808192  0.09253803  0.88942139  1
  Al  Al7  1  0.10635482  0.42927186  0.32314064  1
  Al  Al8  1  0.22135216  0.53433975  0.07324658  1
  Al  Al9  1  0.78666078  0.42000084  0.82403182  1
  Al  Al10  1  0.88440714  0.53565974  0.56773921  1
  Al  Al11  1  0.45594873  0.41130532  0.38792936  1
  Al  Al12  1  0.55152017  0.53079888  0.13884569  1
  Al  Al13  1  0.11818667  0.41759495  0.81665303  1
  Al  Al14  1  0.21654171  0.53183371  0.56726659  1
  Al  Al15  1  0.78009789  0.41760684  0.32366750  1
  Al  Al16  1  0.88762831  0.53901805  0.06996409  1
  Al  Al17  1  0.45551575  0.41643700  0.89038427  1
  Al  Al18  1  0.55633116  0.52159777  0.63243755  1
  Al  Al19  1  0.10321844  0.76759856  0.31702492  1
  Al  Al20  1  0.21959374  0.87517168  0.06618448  1
  Al  Al21  1  0.78904041  0.75700355  0.82017069  1
  Al  Al22  1  0.88922358  0.88871321  0.56097317  1
  Al  Al23  1  0.43266914  0.76778792  0.32624362  1
  Al  Al24  1  0.55128573  0.88531460  0.13826732  1
  Al  Al25  1  0.10902555  0.76078287  0.81682649  1
  Al  Al26  1  0.21727859  0.87902999  0.56769790  1
  Al  Al27  1  0.77771087  0.76729598  0.32248925  1
  Al  Al28  1  0.88121653  0.87960568  0.07125094  1
  Al  Al29  1  0.43873817  0.76415883  0.81955254  1
  Al  Al30  1  0.55852452  0.88391393  0.63558414  1
  B  B31  1  0.89535918  0.20561243  0.59481784  1
  B  B32  1  0.55723598  0.20318902  0.14987084  1
  B  B33  1  0.15651714  0.23863728  0.55424303  1
  B  B34  1  0.77864243  0.09645715  0.30689669  1
  B  B35  1  0.50526356  0.22836640  0.65058898  1
  N  N36  1  0.20128837  0.21328435  0.40721633  1
  N  N37  1  0.11421729  0.09506811  0.13490925  1
  N  N38  1  0.88950358  0.20319617  0.88993875  1
  N  N39  1  0.83435699  0.09447173  0.63079035  1
  N  N40  1  0.56198030  0.19957376  0.30911522  1
  N  N41  1  0.46511785  0.10890481  0.08214850  1
  N  N42  1  0.22395232  0.20085541  0.88318275  1
  N  N43  1  0.09752423  0.12527830  0.61735939  1
  N  N44  1  0.86928930  0.19121116  0.36197244  1
  N  N45  1  0.76394599  0.10044678  0.14271432  1
  N  N46  1  0.54612618  0.21095775  0.80089849  1
  N  N47  1  0.48498072  0.10182067  0.58303082  1
  N  N48  1  0.21601801  0.54155616  0.37833186  1
  N  N49  1  0.11098241  0.42528834  0.13587712  1
  N  N50  1  0.89554728  0.53415886  0.87860710  1
  N  N51  1  0.79573286  0.39801902  0.62465074  1
  N  N52  1  0.54924221  0.53682328  0.33821114  1
  N  N53  1  0.46359171  0.39517583  0.08298190  1
  N  N54  1  0.21995226  0.53723302  0.87913882  1
  N  N55  1  0.11601940  0.40177330  0.62232097  1
  N  N56  1  0.88335465  0.54078832  0.38120435  1
  N  N57  1  0.78026142  0.42878490  0.13010002  1
  N  N58  1  0.55601256  0.53238717  0.82880045  1
  N  N59  1  0.45371920  0.39622414  0.58287238  1
  N  N60  1  0.21483949  0.87456922  0.38185434  1
  N  N61  1  0.11006784  0.76173079  0.12763842  1
  N  N62  1  0.88645743  0.87830394  0.88145709  1
  N  N63  1  0.79320946  0.75718716  0.62679932  1
  N  N64  1  0.54543253  0.88495461  0.33595069  1
  N  N65  1  0.43795361  0.76466191  0.12394678  1
  N  N66  1  0.21823062  0.87571874  0.87443014  1
  N  N67  1  0.11615224  0.75373936  0.62719532  1
  N  N68  1  0.87247224  0.90110521  0.36979731  1
  N  N69  1  0.78225315  0.75879988  0.13021647  1
  N  N70  1  0.55833576  0.87435629  0.83274965  1
  N  N71  1  0.44239933  0.76350764  0.62037536  1
