# generated using pymatgen
data_Al31B5N36
_symmetry_space_group_name_H-M   'P 1'
_cell_length_a   9.27576578
_cell_length_b   9.16389594
_cell_length_c   10.14101374
_cell_angle_alpha   89.54081815
_cell_angle_beta   90.23123938
_cell_angle_gamma   59.93973293
_symmetry_Int_Tables_number   1
_chemical_formula_structural   Al31B5N36
_chemical_formula_sum   'Al31 B5 N36'
_cell_volume   746.01081991
_cell_formula_units_Z   1
loop_
 _symmetry_equiv_pos_site_id
 _symmetry_equiv_pos_as_xyz
  1  'x, y, z'
loop_
 _atom_site_type_symbol
 _atom_site_label
 _atom_site_symmetry_multiplicity
 _atom_site_fract_x
 _atom_site_fract_y
 _atom_site_fract_z
 _atom_site_occupancy
  Al  Al0  1  0.11077164  0.09037660  0.32647342  1
  Al  Al1  1  0.22037639  0.21035917  0.07295987  1
  Al  Al2  1  0.77195621  0.09636275  0.83164091  1
  Al  Al3  1  0.46006004  0.09498394  0.39886223  1
  Al  Al4  1  0.12055188  0.09834436  0.80234465  1
  Al  Al5  1  0.87239296  0.20658436  0.13548493  1
  Al  Al6  1  0.45241373  0.09570184  0.88763651  1
  Al  Al7  1  0.11445823  0.42451164  0.32678868  1
  Al  Al8  1  0.21767284  0.53810123  0.07256632  1
  Al  Al9  1  0.77977811  0.42919425  0.88932502  1
  Al  Al10  1  0.88598433  0.52987823  0.63626674  1
  Al  Al11  1  0.45870785  0.41114421  0.38511869  1
  Al  Al12  1  0.55386338  0.53452330  0.13900754  1
  Al  Al13  1  0.12409010  0.41651597  0.81511024  1
  Al  Al14  1  0.22094360  0.53019818  0.56783056  1
  Al  Al15  1  0.77601882  0.41059415  0.39527554  1
  Al  Al16  1  0.88036501  0.54075497  0.14389539  1
  Al  Al17  1  0.45277798  0.41813081  0.89044806  1
  Al  Al18  1  0.55245760  0.53095233  0.64144080  1
  Al  Al19  1  0.10315695  0.76938561  0.31812238  1
  Al  Al20  1  0.21181252  0.88130524  0.06729379  1
  Al  Al21  1  0.77704481  0.75446188  0.88679265  1
  Al  Al22  1  0.88169882  0.89669204  0.57059913  1
  Al  Al23  1  0.45195663  0.75516536  0.38758873  1
  Al  Al24  1  0.55444834  0.88112304  0.14050591  1
  Al  Al25  1  0.11053123  0.76148226  0.81410449  1
  Al  Al26  1  0.22477576  0.87773978  0.56879365  1
  Al  Al27  1  0.77058907  0.76294933  0.39002415  1
  Al  Al28  1  0.88191826  0.88348891  0.06279153  1
  Al  Al29  1  0.44671457  0.76137052  0.88741457  1
  Al  Al30  1  0.56163504  0.87949389  0.63898851  1
  B  B31  1  0.83179090  0.23799360  0.66078547  1
  B  B32  1  0.56112493  0.20350949  0.12995535  1
  B  B33  1  0.17907487  0.22397257  0.55683912  1
  B  B34  1  0.77162960  0.09426854  0.33856357  1
  B  B35  1  0.54498366  0.21274716  0.64175342  1
  N  N36  1  0.21165534  0.20908493  0.40467306  1
  N  N37  1  0.11152055  0.09809617  0.13765894  1
  N  N38  1  0.88344517  0.22000975  0.80712073  1
  N  N39  1  0.77448553  0.11875783  0.62948251  1
  N  N40  1  0.58046210  0.19065941  0.30665268  1
  N  N41  1  0.46188191  0.10896333  0.08180926  1
  N  N42  1  0.21850503  0.20465995  0.88824903  1
  N  N43  1  0.15575371  0.09624827  0.62155676  1
  N  N44  1  0.86716211  0.18853455  0.32778427  1
  N  N45  1  0.74508750  0.11569144  0.07501787  1
  N  N46  1  0.53986097  0.21427393  0.80215228  1
  N  N47  1  0.49858808  0.09512412  0.57761167  1
  N  N48  1  0.21751533  0.54262613  0.37994643  1
  N  N49  1  0.11450135  0.42555646  0.13951662  1
  N  N50  1  0.88904816  0.53768711  0.82385555  1
  N  N51  1  0.78356706  0.40014303  0.58579417  1
  N  N52  1  0.55667365  0.53409329  0.32715660  1
  N  N53  1  0.45841218  0.40218737  0.08360314  1
  N  N54  1  0.21794501  0.54025478  0.88085712  1
  N  N55  1  0.12481554  0.39667608  0.62094583  1
  N  N56  1  0.87869085  0.53517734  0.33554663  1
  N  N57  1  0.77685330  0.42783398  0.07562772  1
  N  N58  1  0.55430937  0.53801457  0.82880807  1
  N  N59  1  0.45986385  0.39961678  0.57930052  1
  N  N60  1  0.21890572  0.87036939  0.38110898  1
  N  N61  1  0.10457204  0.76642237  0.13068544  1
  N  N62  1  0.89281795  0.87012357  0.87291443  1
  N  N63  1  0.78688637  0.75291916  0.57718314  1
  N  N64  1  0.54997077  0.87751503  0.32721291  1
  N  N65  1  0.44654591  0.76192233  0.07875670  1
  N  N66  1  0.21180278  0.88100732  0.87592174  1
  N  N67  1  0.11257875  0.76146588  0.62646653  1
  N  N68  1  0.86873595  0.90693720  0.37197359  1
  N  N69  1  0.77380921  0.75840065  0.07833857  1
  N  N70  1  0.55532470  0.87383828  0.82659145  1
  N  N71  1  0.46150087  0.75185325  0.57750951  1
