# generated using pymatgen
data_Al31B5N36
_symmetry_space_group_name_H-M   'P 1'
_cell_length_a   9.32026563
_cell_length_b   9.22358927
_cell_length_c   10.05848386
_cell_angle_alpha   89.51558931
_cell_angle_beta   90.23843418
_cell_angle_gamma   59.77036457
_symmetry_Int_Tables_number   1
_chemical_formula_structural   Al31B5N36
_chemical_formula_sum   'Al31 B5 N36'
_cell_volume   747.04311330
_cell_formula_units_Z   1
loop_
 _symmetry_equiv_pos_site_id
 _symmetry_equiv_pos_as_xyz
  1  'x, y, z'
loop_
 _atom_site_type_symbol
 _atom_site_label
 _atom_site_symmetry_multiplicity
 _atom_site_fract_x
 _atom_site_fract_y
 _atom_site_fract_z
 _atom_site_occupancy
  Al  Al0  1  0.10150860  0.09434180  0.32043634  1
  Al  Al1  1  0.22428690  0.20750394  0.07028471  1
  Al  Al2  1  0.78560406  0.09890035  0.80743655  1
  Al  Al3  1  0.45019671  0.10170626  0.40080526  1
  Al  Al4  1  0.10492630  0.10222377  0.82171912  1
  Al  Al5  1  0.88510462  0.20142403  0.10091046  1
  Al  Al6  1  0.45698381  0.09242369  0.88789068  1
  Al  Al7  1  0.10565115  0.42996286  0.32325650  1
  Al  Al8  1  0.22179929  0.53535754  0.07236995  1
  Al  Al9  1  0.77378911  0.42636316  0.89732632  1
  Al  Al10  1  0.88769101  0.53945283  0.56719418  1
  Al  Al11  1  0.45285636  0.41143778  0.38693476  1
  Al  Al12  1  0.55675894  0.52633498  0.14446659  1
  Al  Al13  1  0.11551206  0.41894410  0.81601405  1
  Al  Al14  1  0.21712790  0.53370222  0.56756925  1
  Al  Al15  1  0.77594723  0.40933520  0.38229676  1
  Al  Al16  1  0.89169710  0.54220721  0.07593363  1
  Al  Al17  1  0.45419356  0.41589801  0.88954801  1
  Al  Al18  1  0.56592013  0.51415032  0.63579389  1
  Al  Al19  1  0.10239911  0.76949756  0.31577011  1
  Al  Al20  1  0.22354491  0.87301849  0.06452000  1
  Al  Al21  1  0.78709624  0.75749210  0.82608348  1
  Al  Al22  1  0.88951206  0.89299310  0.55947186  1
  Al  Al23  1  0.43370521  0.76622588  0.32609474  1
  Al  Al24  1  0.55097519  0.88523095  0.13923315  1
  Al  Al25  1  0.10879235  0.76126635  0.81569420  1
  Al  Al26  1  0.22033288  0.87757192  0.56835277  1
  Al  Al27  1  0.77574783  0.76957269  0.32704776  1
  Al  Al28  1  0.88100905  0.87974491  0.06801024  1
  Al  Al29  1  0.44039770  0.76143121  0.81605247  1
  Al  Al30  1  0.56034384  0.88361445  0.63480401  1
  B  B31  1  0.90127066  0.20669976  0.60490209  1
  B  B32  1  0.55315177  0.20327256  0.14635038  1
  B  B33  1  0.15634547  0.24013513  0.55494920  1
  B  B34  1  0.77487257  0.09449267  0.29598173  1
  B  B35  1  0.50337169  0.22952796  0.65035753  1
  N  N36  1  0.19984560  0.21364210  0.40813992  1
  N  N37  1  0.12240825  0.09165441  0.13302614  1
  N  N38  1  0.89267397  0.19531175  0.89456518  1
  N  N39  1  0.83524697  0.09865039  0.62941968  1
  N  N40  1  0.55893621  0.20045652  0.30694355  1
  N  N41  1  0.46292390  0.10904483  0.08050103  1
  N  N42  1  0.22335951  0.20176695  0.88176036  1
  N  N43  1  0.09655541  0.12769397  0.61935280  1
  N  N44  1  0.87022748  0.19179852  0.32380376  1
  N  N45  1  0.75586529  0.09710166  0.13647817  1
  N  N46  1  0.54580022  0.21045806  0.80008631  1
  N  N47  1  0.48272316  0.10371681  0.58300169  1
  N  N48  1  0.21415630  0.54302857  0.37839740  1
  N  N49  1  0.11379139  0.42431695  0.13695998  1
  N  N50  1  0.89718884  0.53511531  0.87951940  1
  N  N51  1  0.79450844  0.39544788  0.58157638  1
  N  N52  1  0.55213390  0.53272217  0.33745880  1
  N  N53  1  0.46250571  0.39662321  0.08271827  1
  N  N54  1  0.21927988  0.53709164  0.87788864  1
  N  N55  1  0.11617526  0.40310196  0.62183172  1
  N  N56  1  0.88302866  0.54111092  0.37751152  1
  N  N57  1  0.77050354  0.43516043  0.08782265  1
  N  N58  1  0.56047458  0.52709315  0.82604501  1
  N  N59  1  0.45432745  0.39706515  0.58271463  1
  N  N60  1  0.21538267  0.87413838  0.38257146  1
  N  N61  1  0.10997496  0.76332650  0.12638757  1
  N  N62  1  0.88661861  0.87809088  0.87883609  1
  N  N63  1  0.79250507  0.76118205  0.62075885  1
  N  N64  1  0.54353724  0.88598283  0.33671293  1
  N  N65  1  0.44006859  0.76200928  0.12688147  1
  N  N66  1  0.22106811  0.87298083  0.87290142  1
  N  N67  1  0.11627494  0.75561796  0.62620660  1
  N  N68  1  0.87146256  0.90429120  0.36756040  1
  N  N69  1  0.78118464  0.76144408  0.12962650  1
  N  N70  1  0.55710770  0.87401270  0.83148331  1
  N  N71  1  0.44674495  0.76008523  0.61931441  1
