# generated using pymatgen
data_Al31B5N36
_symmetry_space_group_name_H-M   'P 1'
_cell_length_a   9.30557778
_cell_length_b   9.23619491
_cell_length_c   10.09287574
_cell_angle_alpha   89.50606913
_cell_angle_beta   90.29998746
_cell_angle_gamma   59.77668353
_symmetry_Int_Tables_number   1
_chemical_formula_structural   Al31B5N36
_chemical_formula_sum   'Al31 B5 N36'
_cell_volume   749.47559040
_cell_formula_units_Z   1
loop_
 _symmetry_equiv_pos_site_id
 _symmetry_equiv_pos_as_xyz
  1  'x, y, z'
loop_
 _atom_site_type_symbol
 _atom_site_label
 _atom_site_symmetry_multiplicity
 _atom_site_fract_x
 _atom_site_fract_y
 _atom_site_fract_z
 _atom_site_occupancy
  Al  Al0  1  0.10141954  0.09410715  0.32097367  1
  Al  Al1  1  0.22447501  0.20705456  0.07106230  1
  Al  Al2  1  0.78503465  0.09850622  0.80782602  1
  Al  Al3  1  0.44975433  0.10218368  0.40172131  1
  Al  Al4  1  0.10454706  0.10214329  0.82306100  1
  Al  Al5  1  0.88485823  0.20070101  0.10039258  1
  Al  Al6  1  0.45553694  0.09387679  0.88857241  1
  Al  Al7  1  0.10685097  0.42965065  0.32565152  1
  Al  Al8  1  0.22105168  0.53549097  0.07226468  1
  Al  Al9  1  0.77484372  0.42592481  0.89706048  1
  Al  Al10  1  0.89014916  0.53424152  0.57273839  1
  Al  Al11  1  0.45333178  0.41135962  0.38794342  1
  Al  Al12  1  0.55543777  0.52655484  0.14528405  1
  Al  Al13  1  0.11408208  0.41989098  0.81589823  1
  Al  Al14  1  0.21801174  0.53405705  0.56814000  1
  Al  Al15  1  0.77598970  0.40845467  0.38302663  1
  Al  Al16  1  0.89182400  0.53654757  0.09037222  1
  Al  Al17  1  0.45359974  0.41611129  0.89037726  1
  Al  Al18  1  0.56621921  0.51416080  0.63763398  1
  Al  Al19  1  0.10189704  0.76956815  0.31628280  1
  Al  Al20  1  0.22490331  0.87275370  0.06505506  1
  Al  Al21  1  0.77531514  0.76021493  0.88834226  1
  Al  Al22  1  0.89363168  0.89626919  0.55974066  1
  Al  Al23  1  0.43418683  0.76609149  0.32529269  1
  Al  Al24  1  0.55642436  0.88399883  0.14302199  1
  Al  Al25  1  0.10709820  0.76138291  0.81602061  1
  Al  Al26  1  0.22318140  0.87693175  0.56903079  1
  Al  Al27  1  0.76774972  0.77420619  0.38416339  1
  Al  Al28  1  0.88443876  0.88324919  0.06846714  1
  Al  Al29  1  0.44052752  0.76138913  0.81599880  1
  Al  Al30  1  0.56745951  0.88182084  0.64039515  1
  B  B31  1  0.90236576  0.20677019  0.60566618  1
  B  B32  1  0.55206809  0.20347817  0.14714680  1
  B  B33  1  0.15874741  0.23867490  0.55552426  1
  B  B34  1  0.77569213  0.09368568  0.29634221  1
  B  B35  1  0.50331624  0.22943392  0.65087347  1
  N  N36  1  0.20097843  0.21255381  0.40899814  1
  N  N37  1  0.12216893  0.09143453  0.13382472  1
  N  N38  1  0.89197259  0.19480521  0.89583630  1
  N  N39  1  0.83527936  0.10011088  0.63074376  1
  N  N40  1  0.55776854  0.20113222  0.30743751  1
  N  N41  1  0.46279157  0.10877646  0.08144107  1
  N  N42  1  0.22225475  0.20272246  0.88299738  1
  N  N43  1  0.09764945  0.12752904  0.62021235  1
  N  N44  1  0.87008364  0.19175782  0.32467205  1
  N  N45  1  0.75541151  0.09720666  0.13779654  1
  N  N46  1  0.54458615  0.21133621  0.80051609  1
  N  N47  1  0.48389824  0.10278576  0.58391669  1
  N  N48  1  0.21403367  0.54390696  0.37992516  1
  N  N49  1  0.11532169  0.42333824  0.13950279  1
  N  N50  1  0.89491417  0.53243602  0.86831148  1
  N  N51  1  0.79460819  0.39475662  0.58164673  1
  N  N52  1  0.55198262  0.53277967  0.33760174  1
  N  N53  1  0.46181457  0.39664434  0.08317048  1
  N  N54  1  0.21804917  0.53754926  0.87901585  1
  N  N55  1  0.11904418  0.40183370  0.62155826  1
  N  N56  1  0.88289021  0.53801718  0.37235449  1
  N  N57  1  0.76940840  0.43368770  0.08778163  1
  N  N58  1  0.55980929  0.52717391  0.82722654  1
  N  N59  1  0.45523247  0.39673407  0.58322338  1
  N  N60  1  0.21613111  0.87396123  0.38352564  1
  N  N61  1  0.11078032  0.76280712  0.12765655  1
  N  N62  1  0.88680789  0.87963371  0.87712235  1
  N  N63  1  0.78578555  0.76600674  0.57950276  1
  N  N64  1  0.54546973  0.88620711  0.33399021  1
  N  N65  1  0.44126200  0.76231513  0.12836765  1
  N  N66  1  0.22122998  0.87266733  0.87389386  1
  N  N67  1  0.11735961  0.75566448  0.62714436  1
  N  N68  1  0.87172996  0.90633016  0.36553985  1
  N  N69  1  0.77337478  0.76423521  0.08482835  1
  N  N70  1  0.55773850  0.87520798  0.82990530  1
  N  N71  1  0.44932804  0.75990942  0.62083441  1
