# generated using pymatgen
data_Al31B5N36
_symmetry_space_group_name_H-M   'P 1'
_cell_length_a   9.32638941
_cell_length_b   9.17807947
_cell_length_c   10.02669224
_cell_angle_alpha   90.05261628
_cell_angle_beta   90.60212177
_cell_angle_gamma   60.22788394
_symmetry_Int_Tables_number   1
_chemical_formula_structural   Al31B5N36
_chemical_formula_sum   'Al31 B5 N36'
_cell_volume   744.93274573
_cell_formula_units_Z   1
loop_
 _symmetry_equiv_pos_site_id
 _symmetry_equiv_pos_as_xyz
  1  'x, y, z'
loop_
 _atom_site_type_symbol
 _atom_site_label
 _atom_site_symmetry_multiplicity
 _atom_site_fract_x
 _atom_site_fract_y
 _atom_site_fract_z
 _atom_site_occupancy
  Al  Al0  1  0.11491310  0.09204113  0.32741973  1
  Al  Al1  1  0.22023276  0.20913735  0.07323876  1
  Al  Al2  1  0.76332953  0.10390848  0.87121655  1
  Al  Al3  1  0.45967775  0.10034082  0.39534056  1
  Al  Al4  1  0.11418410  0.09849088  0.79961725  1
  Al  Al5  1  0.87312041  0.20348424  0.14143927  1
  Al  Al6  1  0.44897313  0.09476715  0.88775135  1
  Al  Al7  1  0.11498505  0.42624629  0.32630755  1
  Al  Al8  1  0.21928318  0.53631445  0.07414846  1
  Al  Al9  1  0.77859298  0.42278783  0.88315366  1
  Al  Al10  1  0.88391498  0.53040919  0.63457777  1
  Al  Al11  1  0.45615848  0.41172775  0.38224646  1
  Al  Al12  1  0.55510284  0.53301288  0.13763873  1
  Al  Al13  1  0.12062283  0.41689951  0.81576994  1
  Al  Al14  1  0.21838278  0.53209552  0.56764378  1
  Al  Al15  1  0.77677798  0.41656568  0.39184516  1
  Al  Al16  1  0.88126915  0.53828167  0.14118678  1
  Al  Al17  1  0.44849650  0.42142593  0.88980193  1
  Al  Al18  1  0.55141499  0.53057170  0.64046423  1
  Al  Al19  1  0.10493831  0.76937610  0.31890896  1
  Al  Al20  1  0.21347996  0.88050695  0.06872651  1
  Al  Al21  1  0.77577698  0.75362277  0.88591985  1
  Al  Al22  1  0.89456868  0.88032576  0.57391053  1
  Al  Al23  1  0.45275485  0.75624843  0.38700436  1
  Al  Al24  1  0.55439761  0.88108416  0.14094036  1
  Al  Al25  1  0.10917393  0.76223114  0.81717812  1
  Al  Al26  1  0.22519562  0.87809193  0.56873244  1
  Al  Al27  1  0.77308160  0.76695058  0.38823948  1
  Al  Al28  1  0.88422310  0.87821788  0.06991276  1
  Al  Al29  1  0.44537134  0.76159985  0.88655971  1
  Al  Al30  1  0.56094855  0.87877176  0.63895236  1
  B  B31  1  0.83119926  0.23302108  0.63791604  1
  B  B32  1  0.55551294  0.20598636  0.14157967  1
  B  B33  1  0.17568443  0.22666144  0.55476229  1
  B  B34  1  0.81199399  0.09217940  0.40388250  1
  B  B35  1  0.50631093  0.22747682  0.64882710  1
  N  N36  1  0.21334423  0.21170229  0.40387823  1
  N  N37  1  0.11191499  0.09754533  0.13647433  1
  N  N38  1  0.87190714  0.20977303  0.79116801  1
  N  N39  1  0.81260503  0.11106413  0.55864018  1
  N  N40  1  0.56177991  0.20220373  0.30221568  1
  N  N41  1  0.46058826  0.10798760  0.08161766  1
  N  N42  1  0.21571113  0.20441263  0.88597940  1
  N  N43  1  0.15844399  0.09704578  0.62000113  1
  N  N44  1  0.87713251  0.19271358  0.33081404  1
  N  N45  1  0.74584760  0.11481349  0.06920884  1
  N  N46  1  0.54207485  0.21227153  0.80154053  1
  N  N47  1  0.49518970  0.09674893  0.58015399  1
  N  N48  1  0.21737154  0.54527097  0.37952855  1
  N  N49  1  0.11371588  0.42546263  0.13719280  1
  N  N50  1  0.88750370  0.53430584  0.82472633  1
  N  N51  1  0.77846648  0.40622492  0.58220656  1
  N  N52  1  0.55706751  0.53456881  0.32779173  1
  N  N53  1  0.45763340  0.40250633  0.08282416  1
  N  N54  1  0.21625271  0.54001408  0.88022726  1
  N  N55  1  0.12127233  0.39968232  0.61984788  1
  N  N56  1  0.88009833  0.53896100  0.33445818  1
  N  N57  1  0.77820484  0.42238027  0.07352279  1
  N  N58  1  0.55267433  0.53765536  0.82894997  1
  N  N59  1  0.45430168  0.39889315  0.58324426  1
  N  N60  1  0.22139836  0.87145149  0.37940599  1
  N  N61  1  0.10676402  0.76468465  0.12938227  1
  N  N62  1  0.88932948  0.87201914  0.87028743  1
  N  N63  1  0.78434842  0.75384638  0.57974843  1
  N  N64  1  0.55181137  0.87850712  0.32959182  1
  N  N65  1  0.44707213  0.76066731  0.07950983  1
  N  N66  1  0.21122410  0.88209605  0.87555006  1
  N  N67  1  0.11849388  0.75738744  0.62941480  1
  N  N68  1  0.88117112  0.89914246  0.37615386  1
  N  N69  1  0.77336262  0.75722986  0.07926109  1
  N  N70  1  0.55462031  0.87330913  0.82766960  1
  N  N71  1  0.45985976  0.75168396  0.57906496  1
