# generated using pymatgen
data_Al31B5N36
_symmetry_space_group_name_H-M   'P 1'
_cell_length_a   9.35431520
_cell_length_b   9.14406614
_cell_length_c   9.80970943
_cell_angle_alpha   90.30371124
_cell_angle_beta   90.85378360
_cell_angle_gamma   60.59983231
_symmetry_Int_Tables_number   1
_chemical_formula_structural   Al31B5N36
_chemical_formula_sum   'Al31 B5 N36'
_cell_volume   730.94072045
_cell_formula_units_Z   1
loop_
 _symmetry_equiv_pos_site_id
 _symmetry_equiv_pos_as_xyz
  1  'x, y, z'
loop_
 _atom_site_type_symbol
 _atom_site_label
 _atom_site_symmetry_multiplicity
 _atom_site_fract_x
 _atom_site_fract_y
 _atom_site_fract_z
 _atom_site_occupancy
  Al  Al0  1  0.12245395  0.09485879  0.41902371  1
  Al  Al1  1  0.22255968  0.20723588  0.15669726  1
  Al  Al2  1  0.75901034  0.10174449  0.89915857  1
  Al  Al3  1  0.45500918  0.10081328  0.40631053  1
  Al  Al4  1  0.09772327  0.09827795  0.89463596  1
  Al  Al5  1  0.87886056  0.20285364  0.15996758  1
  Al  Al6  1  0.43401276  0.10158718  0.89837271  1
  Al  Al7  1  0.11347411  0.41957210  0.41367172  1
  Al  Al8  1  0.22100024  0.53634438  0.16172053  1
  Al  Al9  1  0.77128943  0.42765440  0.90751526  1
  Al  Al10  1  0.88766214  0.52949512  0.66116825  1
  Al  Al11  1  0.44943569  0.41262988  0.40406264  1
  Al  Al12  1  0.55395671  0.53299901  0.16068765  1
  Al  Al13  1  0.10320153  0.43176954  0.90868733  1
  Al  Al14  1  0.22392613  0.52736216  0.66136347  1
  Al  Al15  1  0.77909528  0.41510478  0.41271076  1
  Al  Al16  1  0.88628906  0.53958680  0.16251041  1
  Al  Al17  1  0.43892790  0.42632147  0.91002811  1
  Al  Al18  1  0.55464479  0.52695163  0.65999698  1
  Al  Al19  1  0.11630571  0.76183017  0.41178473  1
  Al  Al20  1  0.21855689  0.87746604  0.15906221  1
  Al  Al21  1  0.77337606  0.76543319  0.91131167  1
  Al  Al22  1  0.89756096  0.87443461  0.65580246  1
  Al  Al23  1  0.45000077  0.75905916  0.40916234  1
  Al  Al24  1  0.55273903  0.88281566  0.15860061  1
  Al  Al25  1  0.10472346  0.76510053  0.91129504  1
  Al  Al26  1  0.23188025  0.87322713  0.66022482  1
  Al  Al27  1  0.77864522  0.76895331  0.41169961  1
  Al  Al28  1  0.87514293  0.89164531  0.16444655  1
  Al  Al29  1  0.44096725  0.76299661  0.91000498  1
  Al  Al30  1  0.56229843  0.87787348  0.65746485  1
  B  B31  1  0.84618449  0.22288272  0.66464815  1
  B  B32  1  0.53909485  0.21628374  0.16106979  1
  B  B33  1  0.17254128  0.22680781  0.67562110  1
  B  B34  1  0.84818933  0.07217769  0.43157293  1
  B  B35  1  0.50297623  0.22728497  0.66864808  1
  N  N36  1  0.22795183  0.20207390  0.34725966  1
  N  N37  1  0.09950575  0.10167583  0.09109226  1
  N  N38  1  0.87317017  0.20826754  0.82225194  1
  N  N39  1  0.83697612  0.09037482  0.58242377  1
  N  N40  1  0.54223118  0.21210527  0.31416126  1
  N  N41  1  0.44486004  0.11222378  0.09347554  1
  N  N42  1  0.20863327  0.21254335  0.83089857  1
  N  N43  1  0.14970010  0.09919503  0.60838018  1
  N  N44  1  0.89518467  0.18625560  0.35538339  1
  N  N45  1  0.74468191  0.11388790  0.09358188  1
  N  N46  1  0.54086846  0.21274752  0.82302641  1
  N  N47  1  0.48769303  0.09895824  0.59726760  1
  N  N48  1  0.21926071  0.53865547  0.35585439  1
  N  N49  1  0.10388173  0.43087721  0.09983717  1
  N  N50  1  0.88218231  0.54028704  0.85279693  1
  N  N51  1  0.78237814  0.40021996  0.60784755  1
  N  N52  1  0.55830297  0.53249479  0.35478217  1
  N  N53  1  0.44661743  0.41046556  0.10218830  1
  N  N54  1  0.21778646  0.54007951  0.85340049  1
  N  N55  1  0.11449800  0.40180464  0.61118402  1
  N  N56  1  0.88918836  0.53596973  0.35760945  1
  N  N57  1  0.77385644  0.42716540  0.10151334  1
  N  N58  1  0.55037568  0.53793844  0.85228211  1
  N  N59  1  0.44904459  0.40016382  0.60383203  1
  N  N60  1  0.22749228  0.87281115  0.35351363  1
  N  N61  1  0.10168303  0.76687077  0.10586094  1
  N  N62  1  0.88442189  0.87652871  0.84846372  1
  N  N63  1  0.78641276  0.75479853  0.60275500  1
  N  N64  1  0.55914984  0.87330422  0.35179351  1
  N  N65  1  0.44095654  0.76327482  0.10336561  1
  N  N66  1  0.22047680  0.87158641  0.85163095  1
  N  N67  1  0.12201490  0.75251221  0.60360312  1
  N  N68  1  0.88590019  0.90124293  0.36470941  1
  N  N69  1  0.77496838  0.76604719  0.10642144  1
  N  N70  1  0.55250372  0.87475235  0.85093429  1
  N  N71  1  0.45452324  0.75362203  0.60225884  1
