# generated using pymatgen
data_Al31B5N36
_symmetry_space_group_name_H-M   'P 1'
_cell_length_a   9.32967985
_cell_length_b   9.18803083
_cell_length_c   9.94543182
_cell_angle_alpha   90.03011860
_cell_angle_beta   89.87204295
_cell_angle_gamma   60.24150618
_symmetry_Int_Tables_number   1
_chemical_formula_structural   Al31B5N36
_chemical_formula_sum   'Al31 B5 N36'
_cell_volume   740.10504023
_cell_formula_units_Z   1
loop_
 _symmetry_equiv_pos_site_id
 _symmetry_equiv_pos_as_xyz
  1  'x, y, z'
loop_
 _atom_site_type_symbol
 _atom_site_label
 _atom_site_symmetry_multiplicity
 _atom_site_fract_x
 _atom_site_fract_y
 _atom_site_fract_z
 _atom_site_occupancy
  Al  Al0  1  0.09655070  0.09970358  0.33545555  1
  Al  Al1  1  0.22380424  0.20770285  0.07758149  1
  Al  Al2  1  0.78970143  0.09558927  0.80375703  1
  Al  Al3  1  0.45123179  0.10117875  0.40528710  1
  Al  Al4  1  0.11834560  0.09713201  0.81412915  1
  Al  Al5  1  0.88686459  0.20540210  0.07462286  1
  Al  Al6  1  0.45953777  0.09168966  0.89222615  1
  Al  Al7  1  0.10388469  0.42929261  0.32438404  1
  Al  Al8  1  0.22123116  0.53541810  0.07589406  1
  Al  Al9  1  0.78254972  0.41694254  0.81359516  1
  Al  Al10  1  0.88666417  0.52916255  0.56804581  1
  Al  Al11  1  0.44283897  0.42432970  0.34017625  1
  Al  Al12  1  0.56087429  0.53668314  0.07432810  1
  Al  Al13  1  0.11776018  0.41565544  0.81720557  1
  Al  Al14  1  0.22100847  0.52846272  0.56742714  1
  Al  Al15  1  0.76903012  0.42891267  0.32218684  1
  Al  Al16  1  0.88904455  0.53747705  0.06869384  1
  Al  Al17  1  0.44802224  0.42092696  0.87198401  1
  Al  Al18  1  0.55268741  0.52725988  0.56996000  1
  Al  Al19  1  0.10087582  0.77144480  0.31800906  1
  Al  Al20  1  0.21921089  0.87659753  0.06982355  1
  Al  Al21  1  0.78907387  0.75562525  0.82040675  1
  Al  Al22  1  0.89025963  0.88194925  0.56161004  1
  Al  Al23  1  0.43306489  0.76593570  0.32358342  1
  Al  Al24  1  0.55231345  0.88569379  0.13945732  1
  Al  Al25  1  0.11066616  0.76096629  0.81816869  1
  Al  Al26  1  0.22560408  0.87641533  0.57258799  1
  Al  Al27  1  0.77657680  0.76713056  0.32362403  1
  Al  Al28  1  0.88204594  0.88045413  0.07168822  1
  Al  Al29  1  0.44359071  0.75695499  0.82117587  1
  Al  Al30  1  0.55773886  0.88257817  0.63765946  1
  B  B31  1  0.83247291  0.22190284  0.54643761  1
  B  B32  1  0.55829077  0.20265815  0.15344798  1
  B  B33  1  0.17000141  0.22760919  0.56047977  1
  B  B34  1  0.77136470  0.09498443  0.31165977  1
  B  B35  1  0.50435855  0.22970805  0.65459377  1
  N  N36  1  0.20617823  0.21404322  0.40597409  1
  N  N37  1  0.10911382  0.09842780  0.14206982  1
  N  N38  1  0.89568899  0.20105323  0.88442831  1
  N  N39  1  0.82644970  0.09475413  0.62175595  1
  N  N40  1  0.56764287  0.19430777  0.31400907  1
  N  N41  1  0.46644978  0.11024720  0.08671155  1
  N  N42  1  0.22720099  0.20178473  0.88928719  1
  N  N43  1  0.15321873  0.09873126  0.62785646  1
  N  N44  1  0.85857414  0.20313282  0.38875883  1
  N  N45  1  0.76748243  0.10292955  0.14694741  1
  N  N46  1  0.55378302  0.20558366  0.80631114  1
  N  N47  1  0.48981797  0.10016459  0.58660980  1
  N  N48  1  0.21359145  0.54388789  0.37496460  1
  N  N49  1  0.10834328  0.42761059  0.13587983  1
  N  N50  1  0.89377053  0.53084837  0.87492104  1
  N  N51  1  0.78231481  0.39808801  0.61504794  1
  N  N52  1  0.54878495  0.54316591  0.37790862  1
  N  N53  1  0.45802270  0.40273186  0.10674730  1
  N  N54  1  0.21896082  0.53723531  0.88115330  1
  N  N55  1  0.11463432  0.40216232  0.62294327  1
  N  N56  1  0.88239134  0.54117258  0.37984274  1
  N  N57  1  0.77835695  0.42818044  0.13329215  1
  N  N58  1  0.56355833  0.53505159  0.88089824  1
  N  N59  1  0.44676856  0.40212723  0.60164656  1
  N  N60  1  0.21499636  0.87522892  0.38336042  1
  N  N61  1  0.10820438  0.76385472  0.12798631  1
  N  N62  1  0.88769564  0.87829850  0.87973844  1
  N  N63  1  0.79217025  0.75338519  0.62579836  1
  N  N64  1  0.54595886  0.88395045  0.33843136  1
  N  N65  1  0.43881653  0.76272783  0.12809588  1
  N  N66  1  0.22224516  0.87277753  0.87789890  1
  N  N67  1  0.11521178  0.75483275  0.62671769  1
  N  N68  1  0.87079351  0.90257657  0.36911764  1
  N  N69  1  0.78187399  0.75893553  0.12863388  1
  N  N70  1  0.55938990  0.87245617  0.83685318  1
  N  N71  1  0.44967416  0.75166737  0.62761633  1
