# generated using pymatgen
data_Al31B5N36
_symmetry_space_group_name_H-M   'P 1'
_cell_length_a   9.33268549
_cell_length_b   9.15853000
_cell_length_c   9.80632333
_cell_angle_alpha   90.10809011
_cell_angle_beta   90.43529309
_cell_angle_gamma   60.43974554
_symmetry_Int_Tables_number   1
_chemical_formula_structural   Al31B5N36
_chemical_formula_sum   'Al31 B5 N36'
_cell_volume   729.05978172
_cell_formula_units_Z   1
loop_
 _symmetry_equiv_pos_site_id
 _symmetry_equiv_pos_as_xyz
  1  'x, y, z'
loop_
 _atom_site_type_symbol
 _atom_site_label
 _atom_site_symmetry_multiplicity
 _atom_site_fract_x
 _atom_site_fract_y
 _atom_site_fract_z
 _atom_site_occupancy
  Al  Al0  1  0.11927432  0.09487635  0.40784556  1
  Al  Al1  1  0.22018982  0.20574428  0.14402545  1
  Al  Al2  1  0.76106991  0.10164199  0.89043830  1
  Al  Al3  1  0.44655546  0.10476408  0.39428501  1
  Al  Al4  1  0.10233163  0.10286634  0.83685416  1
  Al  Al5  1  0.88261900  0.20111666  0.15030470  1
  Al  Al6  1  0.43835273  0.09867132  0.89821776  1
  Al  Al7  1  0.11357752  0.42229397  0.40021658  1
  Al  Al8  1  0.22250115  0.53638603  0.15099434  1
  Al  Al9  1  0.77430385  0.42614356  0.89812941  1
  Al  Al10  1  0.89394104  0.52402833  0.64928860  1
  Al  Al11  1  0.44985024  0.41341716  0.39448670  1
  Al  Al12  1  0.55467930  0.53224009  0.14969700  1
  Al  Al13  1  0.10693855  0.42920861  0.90046092  1
  Al  Al14  1  0.22099972  0.53067744  0.65178782  1
  Al  Al15  1  0.77818419  0.41566883  0.40193863  1
  Al  Al16  1  0.88659038  0.53908982  0.15335595  1
  Al  Al17  1  0.43915673  0.42632703  0.90187574  1
  Al  Al18  1  0.55665927  0.52521227  0.65297678  1
  Al  Al19  1  0.11421727  0.76197188  0.39996403  1
  Al  Al20  1  0.21777191  0.87945012  0.15043797  1
  Al  Al21  1  0.77588794  0.76253636  0.90122386  1
  Al  Al22  1  0.89578092  0.87567910  0.64708706  1
  Al  Al23  1  0.45104754  0.75701992  0.39906820  1
  Al  Al24  1  0.55409955  0.88070360  0.15130212  1
  Al  Al25  1  0.10589346  0.76832696  0.90141671  1
  Al  Al26  1  0.23628201  0.86588779  0.64184676  1
  Al  Al27  1  0.77759126  0.77000215  0.40321252  1
  Al  Al28  1  0.87664762  0.89009710  0.15376509  1
  Al  Al29  1  0.43933467  0.76453547  0.90060448  1
  Al  Al30  1  0.55527172  0.87901464  0.65058180  1
  B  B31  1  0.83714050  0.22542436  0.65094696  1
  B  B32  1  0.54700334  0.21046457  0.15440909  1
  B  B33  1  0.22740913  0.20768688  0.64357096  1
  B  B34  1  0.83675619  0.07591612  0.41914760  1
  B  B35  1  0.49039192  0.23587998  0.66467846  1
  N  N36  1  0.22443230  0.20418595  0.33601188  1
  N  N37  1  0.10052610  0.10005849  0.08849110  1
  N  N38  1  0.86879713  0.21009871  0.80669608  1
  N  N39  1  0.82410480  0.09348095  0.57183968  1
  N  N40  1  0.55005188  0.20789165  0.31158114  1
  N  N41  1  0.45080861  0.10994953  0.09137430  1
  N  N42  1  0.22297617  0.21210877  0.82710094  1
  N  N43  1  0.15565173  0.09539813  0.60168290  1
  N  N44  1  0.89063364  0.18706986  0.34692304  1
  N  N45  1  0.74418418  0.11423768  0.08552413  1
  N  N46  1  0.54130794  0.21100283  0.81315683  1
  N  N47  1  0.43291853  0.12293965  0.59874305  1
  N  N48  1  0.22139485  0.53906527  0.34411183  1
  N  N49  1  0.10464046  0.43215390  0.09193360  1
  N  N50  1  0.88595035  0.53749743  0.84119820  1
  N  N51  1  0.78175212  0.40035474  0.59576709  1
  N  N52  1  0.55822475  0.53232723  0.34360827  1
  N  N53  1  0.44948434  0.40721001  0.09416272  1
  N  N54  1  0.21805378  0.54240413  0.84401849  1
  N  N55  1  0.12227993  0.40102801  0.59544187  1
  N  N56  1  0.88736142  0.53802918  0.34891246  1
  N  N57  1  0.77540988  0.42636913  0.09162637  1
  N  N58  1  0.55151471  0.53751409  0.84453806  1
  N  N59  1  0.44943536  0.39949438  0.59604539  1
  N  N60  1  0.22823946  0.87076726  0.34631190  1
  N  N61  1  0.10367188  0.76656386  0.09560582  1
  N  N62  1  0.88480221  0.87692710  0.83966871  1
  N  N63  1  0.78130775  0.75974435  0.59481867  1
  N  N64  1  0.55724978  0.87576914  0.34568587  1
  N  N65  1  0.44169848  0.76304992  0.09415558  1
  N  N66  1  0.22214962  0.87034899  0.83412950  1
  N  N67  1  0.11897071  0.75333267  0.59137674  1
  N  N68  1  0.88385172  0.90099235  0.35372637  1
  N  N69  1  0.77610747  0.76481445  0.09670784  1
  N  N70  1  0.55400122  0.87396151  0.84307088  1
  N  N71  1  0.45914804  0.74786354  0.59144408  1
