# generated using pymatgen
data_Al31B5N36
_symmetry_space_group_name_H-M   'P 1'
_cell_length_a   9.41589254
_cell_length_b   9.14832667
_cell_length_c   10.03448811
_cell_angle_alpha   90.16900027
_cell_angle_beta   90.46293229
_cell_angle_gamma   60.77979658
_symmetry_Int_Tables_number   1
_chemical_formula_structural   Al31B5N36
_chemical_formula_sum   'Al31 B5 N36'
_cell_volume   754.35153389
_cell_formula_units_Z   1
loop_
 _symmetry_equiv_pos_site_id
 _symmetry_equiv_pos_as_xyz
  1  'x, y, z'
loop_
 _atom_site_type_symbol
 _atom_site_label
 _atom_site_symmetry_multiplicity
 _atom_site_fract_x
 _atom_site_fract_y
 _atom_site_fract_z
 _atom_site_occupancy
  Al  Al0  1  0.12108274  0.09059775  0.33918215  1
  Al  Al1  1  0.21330855  0.21286052  0.08302235  1
  Al  Al2  1  0.77642061  0.09347422  0.88710205  1
  Al  Al3  1  0.44703509  0.10121298  0.41455729  1
  Al  Al4  1  0.11343771  0.09622728  0.81514788  1
  Al  Al5  1  0.88316705  0.20192124  0.15201957  1
  Al  Al6  1  0.44615932  0.09692404  0.89820998  1
  Al  Al7  1  0.11013896  0.42859925  0.34553862  1
  Al  Al8  1  0.21513269  0.54051863  0.09913379  1
  Al  Al9  1  0.77710628  0.42306412  0.89799880  1
  Al  Al10  1  0.87972190  0.53273653  0.64922085  1
  Al  Al11  1  0.44672068  0.41814519  0.40187805  1
  Al  Al12  1  0.55562824  0.52906342  0.15206137  1
  Al  Al13  1  0.11365551  0.41887901  0.82855513  1
  Al  Al14  1  0.21870709  0.52992626  0.59019935  1
  Al  Al15  1  0.77663045  0.41638144  0.40527432  1
  Al  Al16  1  0.87825119  0.54456490  0.15661837  1
  Al  Al17  1  0.44447973  0.42027072  0.90116256  1
  Al  Al18  1  0.55386728  0.52685029  0.65675401  1
  Al  Al19  1  0.11541902  0.76496089  0.34235053  1
  Al  Al20  1  0.21273568  0.87871425  0.08403753  1
  Al  Al21  1  0.77980475  0.76187804  0.90349028  1
  Al  Al22  1  0.88948596  0.87869708  0.64146831  1
  Al  Al23  1  0.45823812  0.75333514  0.40133550  1
  Al  Al24  1  0.55203197  0.88381627  0.15443439  1
  Al  Al25  1  0.11427485  0.75953259  0.82838082  1
  Al  Al26  1  0.23016000  0.87535873  0.58300112  1
  Al  Al27  1  0.77392362  0.77399043  0.40526831  1
  Al  Al28  1  0.87672749  0.89271332  0.15404221  1
  Al  Al29  1  0.44687804  0.75982511  0.90296282  1
  Al  Al30  1  0.56392239  0.87539384  0.65577344  1
  B  B31  1  0.84102641  0.22708944  0.65145928  1
  B  B32  1  0.48336112  0.23880730  0.16588053  1
  B  B33  1  0.16670059  0.22826651  0.57046269  1
  B  B34  1  0.85458430  0.07072717  0.42508394  1
  B  B35  1  0.50684315  0.22520943  0.66614760  1
  N  N36  1  0.20743787  0.21383238  0.42221814  1
  N  N37  1  0.11830572  0.09592839  0.15165448  1
  N  N38  1  0.87432351  0.21012869  0.80285793  1
  N  N39  1  0.83907904  0.09155091  0.57092275  1
  N  N40  1  0.50081542  0.22869534  0.30759961  1
  N  N41  1  0.44900885  0.11265014  0.09133964  1
  N  N42  1  0.21342826  0.20607543  0.89709011  1
  N  N43  1  0.15917982  0.09404049  0.63641971  1
  N  N44  1  0.88517534  0.19099817  0.34559505  1
  N  N45  1  0.79641432  0.09071790  0.06784308  1
  N  N46  1  0.54735947  0.20908266  0.81720830  1
  N  N47  1  0.49829515  0.09345614  0.59618122  1
  N  N48  1  0.21412242  0.54591221  0.40030419  1
  N  N49  1  0.10932549  0.42686291  0.15394650  1
  N  N50  1  0.88312084  0.53901160  0.84095018  1
  N  N51  1  0.77850424  0.40261200  0.59565208  1
  N  N52  1  0.55801861  0.52972510  0.34278041  1
  N  N53  1  0.44700253  0.40549257  0.09475877  1
  N  N54  1  0.21777558  0.53703565  0.88199696  1
  N  N55  1  0.11302165  0.40126923  0.63367202  1
  N  N56  1  0.87673280  0.54412836  0.34966416  1
  N  N57  1  0.77716221  0.42503287  0.08982792  1
  N  N58  1  0.55323062  0.53525999  0.84563726  1
  N  N59  1  0.45471967  0.39641179  0.59946887  1
  N  N60  1  0.22912728  0.87149226  0.39418288  1
  N  N61  1  0.11167109  0.76170244  0.15161085  1
  N  N62  1  0.88345295  0.87235989  0.83062749  1
  N  N63  1  0.78359104  0.75567381  0.59124737  1
  N  N64  1  0.55373166  0.87985998  0.34416595  1
  N  N65  1  0.44733273  0.75867780  0.09553179  1
  N  N66  1  0.21361915  0.87942399  0.89157612  1
  N  N67  1  0.12383255  0.75622966  0.63871715  1
  N  N68  1  0.87967424  0.90671047  0.35843288  1
  N  N69  1  0.77534399  0.76779239  0.09674630  1
  N  N70  1  0.55665529  0.87221276  0.84560334  1
  N  N71  1  0.46348691  0.74822499  0.59397603  1
