# generated using pymatgen
data_Al31B5N36
_symmetry_space_group_name_H-M   'P 1'
_cell_length_a   9.39268789
_cell_length_b   9.14623334
_cell_length_c   10.11029511
_cell_angle_alpha   89.75964888
_cell_angle_beta   90.32700186
_cell_angle_gamma   60.78920769
_symmetry_Int_Tables_number   1
_chemical_formula_structural   Al31B5N36
_chemical_formula_sum   'Al31 B5 N36'
_cell_volume   758.06210595
_cell_formula_units_Z   1
loop_
 _symmetry_equiv_pos_site_id
 _symmetry_equiv_pos_as_xyz
  1  'x, y, z'
loop_
 _atom_site_type_symbol
 _atom_site_label
 _atom_site_symmetry_multiplicity
 _atom_site_fract_x
 _atom_site_fract_y
 _atom_site_fract_z
 _atom_site_occupancy
  Al  Al0  1  0.12095116  0.09053192  0.32625980  1
  Al  Al1  1  0.21238452  0.21233601  0.06869475  1
  Al  Al2  1  0.77271099  0.09953696  0.86544075  1
  Al  Al3  1  0.44749840  0.10183399  0.39851846  1
  Al  Al4  1  0.11560970  0.09516780  0.80003717  1
  Al  Al5  1  0.87988235  0.19862849  0.14163947  1
  Al  Al6  1  0.44612739  0.09652466  0.88432311  1
  Al  Al7  1  0.11363289  0.42841455  0.32538200  1
  Al  Al8  1  0.21236586  0.54048921  0.06908782  1
  Al  Al9  1  0.77798925  0.42060745  0.88766499  1
  Al  Al10  1  0.88185891  0.53049997  0.63671178  1
  Al  Al11  1  0.44479010  0.42083694  0.38464125  1
  Al  Al12  1  0.55520382  0.52953116  0.13829351  1
  Al  Al13  1  0.11537778  0.41798795  0.81517729  1
  Al  Al14  1  0.21749467  0.53039258  0.56930585  1
  Al  Al15  1  0.77786574  0.41679720  0.39139703  1
  Al  Al16  1  0.87783402  0.54420116  0.14198427  1
  Al  Al17  1  0.44761064  0.41825901  0.88755611  1
  Al  Al18  1  0.55300577  0.52850864  0.64134817  1
  Al  Al19  1  0.10730262  0.76879008  0.31946293  1
  Al  Al20  1  0.21490394  0.88027668  0.07011567  1
  Al  Al21  1  0.77319919  0.75441966  0.88156770  1
  Al  Al22  1  0.90048414  0.87290589  0.59382973  1
  Al  Al23  1  0.45770715  0.75394383  0.38551413  1
  Al  Al24  1  0.55581338  0.88448220  0.14001937  1
  Al  Al25  1  0.11471126  0.75824333  0.81539386  1
  Al  Al26  1  0.23051578  0.87411636  0.56700700  1
  Al  Al27  1  0.77559089  0.77262510  0.39297626  1
  Al  Al28  1  0.89318955  0.87603809  0.05970310  1
  Al  Al29  1  0.44582023  0.75962998  0.88915321  1
  Al  Al30  1  0.56183384  0.87710720  0.63940339  1
  B  B31  1  0.84039393  0.23413958  0.64165328  1
  B  B32  1  0.48183332  0.24138690  0.15016300  1
  B  B33  1  0.16914686  0.22803558  0.55688966  1
  B  B34  1  0.85759613  0.07234843  0.42253226  1
  B  B35  1  0.50528454  0.22687420  0.64808154  1
  N  N36  1  0.20611364  0.21578798  0.40852113  1
  N  N37  1  0.11697165  0.09588536  0.13980512  1
  N  N38  1  0.87612502  0.21319448  0.78973764  1
  N  N39  1  0.83832587  0.10009200  0.56657726  1
  N  N40  1  0.49633669  0.23242058  0.29109354  1
  N  N41  1  0.44925809  0.11349947  0.07611457  1
  N  N42  1  0.21360992  0.20503290  0.88373423  1
  N  N43  1  0.16313644  0.09201954  0.62235679  1
  N  N44  1  0.88447157  0.18900757  0.33486846  1
  N  N45  1  0.78935387  0.10040922  0.04721391  1
  N  N46  1  0.54489431  0.21012898  0.79902047  1
  N  N47  1  0.49918809  0.09440350  0.57847169  1
  N  N48  1  0.21128231  0.54997611  0.38386205  1
  N  N49  1  0.10973530  0.42753524  0.13624948  1
  N  N50  1  0.88472825  0.53359476  0.82559895  1
  N  N51  1  0.77834443  0.40634264  0.58133759  1
  N  N52  1  0.55872528  0.53050023  0.32766737  1
  N  N53  1  0.44724446  0.40666810  0.07894403  1
  N  N54  1  0.21591455  0.53714928  0.87823127  1
  N  N55  1  0.11693659  0.40023483  0.62191454  1
  N  N56  1  0.87868744  0.54470445  0.33390507  1
  N  N57  1  0.77725950  0.42353811  0.07804279  1
  N  N58  1  0.55344198  0.53549140  0.83015308  1
  N  N59  1  0.45335499  0.39856651  0.58261912  1
  N  N60  1  0.22742068  0.86934702  0.37819654  1
  N  N61  1  0.10829020  0.76238461  0.12950224  1
  N  N62  1  0.89010690  0.86575330  0.84672195  1
  N  N63  1  0.78332017  0.75330409  0.58204265  1
  N  N64  1  0.55586697  0.87995464  0.32894857  1
  N  N65  1  0.44853565  0.75974612  0.08083302  1
  N  N66  1  0.21316493  0.87950059  0.87857017  1
  N  N67  1  0.12795869  0.75157381  0.63080930  1
  N  N68  1  0.89235839  0.89735846  0.38733765  1
  N  N69  1  0.77323708  0.76273102  0.07397097  1
  N  N70  1  0.55226905  0.87380103  0.82733290  1
  N  N71  1  0.46311213  0.74900726  0.57679714  1
