# generated using pymatgen
data_Al31B5N36
_symmetry_space_group_name_H-M   'P 1'
_cell_length_a   9.30108780
_cell_length_b   9.16257064
_cell_length_c   9.92894409
_cell_angle_alpha   90.06362687
_cell_angle_beta   89.61110347
_cell_angle_gamma   60.36865104
_symmetry_Int_Tables_number   1
_chemical_formula_structural   Al31B5N36
_chemical_formula_sum   'Al31 B5 N36'
_cell_volume   735.47918737
_cell_formula_units_Z   1
loop_
 _symmetry_equiv_pos_site_id
 _symmetry_equiv_pos_as_xyz
  1  'x, y, z'
loop_
 _atom_site_type_symbol
 _atom_site_label
 _atom_site_symmetry_multiplicity
 _atom_site_fract_x
 _atom_site_fract_y
 _atom_site_fract_z
 _atom_site_occupancy
  Al  Al0  1  0.09930058  0.09889444  0.32170960  1
  Al  Al1  1  0.23678639  0.20295350  0.06418685  1
  Al  Al2  1  0.78947848  0.09428643  0.79743413  1
  Al  Al3  1  0.44622892  0.10798356  0.39369141  1
  Al  Al4  1  0.11529378  0.09718901  0.80401709  1
  Al  Al5  1  0.88692527  0.20408477  0.06485471  1
  Al  Al6  1  0.44363132  0.08961963  0.80613457  1
  Al  Al7  1  0.10599810  0.42985692  0.30967709  1
  Al  Al8  1  0.22814410  0.53114332  0.05983148  1
  Al  Al9  1  0.78116679  0.41715071  0.80301683  1
  Al  Al10  1  0.88872254  0.52812411  0.55452778  1
  Al  Al11  1  0.44364146  0.43032946  0.30759411  1
  Al  Al12  1  0.55778225  0.53195169  0.06028772  1
  Al  Al13  1  0.11338336  0.41927351  0.80653612  1
  Al  Al14  1  0.22187256  0.52861169  0.55591021  1
  Al  Al15  1  0.76993038  0.42902784  0.30972776  1
  Al  Al16  1  0.88976286  0.53624361  0.05785236  1
  Al  Al17  1  0.44083481  0.43310735  0.81151190  1
  Al  Al18  1  0.55337823  0.52947750  0.55545384  1
  Al  Al19  1  0.10470079  0.76853762  0.30714427  1
  Al  Al20  1  0.22176865  0.87609943  0.06014152  1
  Al  Al21  1  0.78288961  0.75889627  0.80857887  1
  Al  Al22  1  0.88981447  0.88256058  0.55046263  1
  Al  Al23  1  0.44004952  0.76981234  0.30780405  1
  Al  Al24  1  0.55706343  0.88299298  0.05921423  1
  Al  Al25  1  0.10976950  0.76242395  0.80817266  1
  Al  Al26  1  0.22742763  0.87644256  0.55994496  1
  Al  Al27  1  0.76949094  0.77249171  0.30682231  1
  Al  Al28  1  0.88397012  0.87968252  0.06292408  1
  Al  Al29  1  0.44636918  0.75819922  0.81107062  1
  Al  Al30  1  0.56825649  0.86347711  0.56647257  1
  B  B31  1  0.82980192  0.22393131  0.53477439  1
  B  B32  1  0.55605777  0.19546968  0.15358146  1
  B  B33  1  0.16640466  0.22917244  0.54936133  1
  B  B34  1  0.77374231  0.09468824  0.30488014  1
  B  B35  1  0.52773312  0.22132764  0.64591930  1
  N  N36  1  0.20537554  0.21559727  0.39614129  1
  N  N37  1  0.11029523  0.09947242  0.12850866  1
  N  N38  1  0.89525442  0.20093829  0.87342607  1
  N  N39  1  0.80486845  0.10358236  0.60929031  1
  N  N40  1  0.57419703  0.19497722  0.31818441  1
  N  N41  1  0.46089522  0.10831027  0.10726488  1
  N  N42  1  0.22842424  0.20179349  0.87226487  1
  N  N43  1  0.14728386  0.10012447  0.61633425  1
  N  N44  1  0.86230381  0.20217133  0.37928867  1
  N  N45  1  0.76750761  0.10141430  0.14041441  1
  N  N46  1  0.55993403  0.20320065  0.80044507  1
  N  N47  1  0.48041203  0.09984143  0.59467850  1
  N  N48  1  0.21902368  0.54040256  0.36637919  1
  N  N49  1  0.10995603  0.42701778  0.12031554  1
  N  N50  1  0.89050638  0.53295374  0.86340644  1
  N  N51  1  0.78213176  0.39827008  0.60325074  1
  N  N52  1  0.54888091  0.54505514  0.36701262  1
  N  N53  1  0.45381223  0.40757699  0.11660499  1
  N  N54  1  0.22052523  0.53707975  0.86620044  1
  N  N55  1  0.11408771  0.40289388  0.61201848  1
  N  N56  1  0.88330086  0.54314346  0.36583449  1
  N  N57  1  0.77654774  0.42784126  0.12052640  1
  N  N58  1  0.56027692  0.53384980  0.86764152  1
  N  N59  1  0.44565798  0.40975586  0.61309940  1
  N  N60  1  0.21973051  0.87416593  0.37019246  1
  N  N61  1  0.11129088  0.76086624  0.11635656  1
  N  N62  1  0.88794484  0.87671337  0.86928196  1
  N  N63  1  0.79107890  0.75282665  0.61712612  1
  N  N64  1  0.55313080  0.87405351  0.37638087  1
  N  N65  1  0.44486299  0.76391874  0.11568867  1
  N  N66  1  0.22320698  0.87295416  0.86698485  1
  N  N67  1  0.11415771  0.75783782  0.61547642  1
  N  N68  1  0.87357957  0.89981270  0.35854232  1
  N  N69  1  0.77753622  0.76092581  0.11617250  1
  N  N70  1  0.55976002  0.86914602  0.86374292  1
  N  N71  1  0.45151373  0.75234661  0.62071421  1
