# generated using pymatgen
data_Al31B5N36
_symmetry_space_group_name_H-M   'P 1'
_cell_length_a   9.29629595
_cell_length_b   9.20338205
_cell_length_c   10.00811040
_cell_angle_alpha   89.95923229
_cell_angle_beta   90.37505623
_cell_angle_gamma   60.04701031
_symmetry_Int_Tables_number   1
_chemical_formula_structural   Al31B5N36
_chemical_formula_sum   'Al31 B5 N36'
_cell_volume   741.87674578
_cell_formula_units_Z   1
loop_
 _symmetry_equiv_pos_site_id
 _symmetry_equiv_pos_as_xyz
  1  'x, y, z'
loop_
 _atom_site_type_symbol
 _atom_site_label
 _atom_site_symmetry_multiplicity
 _atom_site_fract_x
 _atom_site_fract_y
 _atom_site_fract_z
 _atom_site_occupancy
  Al  Al0  1  0.09782330  0.09684746  0.32737908  1
  Al  Al1  1  0.22336462  0.20693305  0.07285995  1
  Al  Al2  1  0.78587335  0.09668197  0.80482220  1
  Al  Al3  1  0.45097356  0.10084706  0.40135648  1
  Al  Al4  1  0.10676903  0.10132444  0.81285477  1
  Al  Al5  1  0.88470538  0.20610126  0.07639612  1
  Al  Al6  1  0.45788204  0.09292243  0.88919903  1
  Al  Al7  1  0.10653357  0.42953042  0.32313642  1
  Al  Al8  1  0.22164552  0.53416068  0.07334825  1
  Al  Al9  1  0.78753029  0.41838547  0.81921277  1
  Al  Al10  1  0.88435896  0.53477709  0.56795173  1
  Al  Al11  1  0.45518711  0.41203969  0.38843448  1
  Al  Al12  1  0.55227806  0.53053938  0.13921441  1
  Al  Al13  1  0.11827109  0.41707942  0.81682737  1
  Al  Al14  1  0.21618061  0.53150789  0.56804763  1
  Al  Al15  1  0.77971918  0.41998359  0.32672209  1
  Al  Al16  1  0.88767850  0.53837625  0.07008390  1
  Al  Al17  1  0.45597744  0.41644745  0.89008455  1
  Al  Al18  1  0.55536312  0.52282105  0.63122672  1
  Al  Al19  1  0.10368628  0.76745189  0.31716481  1
  Al  Al20  1  0.21919502  0.87566614  0.06634132  1
  Al  Al21  1  0.78882549  0.75691518  0.82081273  1
  Al  Al22  1  0.88898116  0.88672890  0.56175523  1
  Al  Al23  1  0.43277118  0.76801110  0.32679945  1
  Al  Al24  1  0.55153499  0.88517655  0.13769964  1
  Al  Al25  1  0.10906478  0.76094390  0.81724124  1
  Al  Al26  1  0.21729582  0.88001664  0.56819671  1
  Al  Al27  1  0.77763117  0.76765560  0.32255895  1
  Al  Al28  1  0.88173300  0.88017492  0.07204070  1
  Al  Al29  1  0.43869372  0.76408857  0.81991844  1
  Al  Al30  1  0.55811023  0.88382274  0.63566114  1
  B  B31  1  0.88192853  0.20609419  0.56855030  1
  B  B32  1  0.55780388  0.20399099  0.15107440  1
  B  B33  1  0.15838671  0.23602727  0.55491411  1
  B  B34  1  0.77645069  0.09519398  0.31178095  1
  B  B35  1  0.50561718  0.22805333  0.65064398  1
  N  N36  1  0.20284403  0.21385482  0.40603025  1
  N  N37  1  0.11219246  0.09609131  0.13691980  1
  N  N38  1  0.88978031  0.20323773  0.88822721  1
  N  N39  1  0.83159686  0.09387444  0.62766827  1
  N  N40  1  0.56405385  0.19885458  0.31107751  1
  N  N41  1  0.46608400  0.10922372  0.08304440  1
  N  N42  1  0.22387669  0.20027748  0.88360391  1
  N  N43  1  0.10416281  0.12142123  0.61590791  1
  N  N44  1  0.87040713  0.19461675  0.38314601  1
  N  N45  1  0.76731857  0.10174647  0.14718450  1
  N  N46  1  0.54670841  0.21081862  0.80128494  1
  N  N47  1  0.48469185  0.10163210  0.58356014  1
  N  N48  1  0.21615810  0.54180859  0.37811868  1
  N  N49  1  0.11103016  0.42542855  0.13548255  1
  N  N50  1  0.89501941  0.53336871  0.87812050  1
  N  N51  1  0.79289828  0.39838999  0.61963125  1
  N  N52  1  0.54906626  0.53702313  0.33873853  1
  N  N53  1  0.46438413  0.39469322  0.08389821  1
  N  N54  1  0.22028649  0.53706093  0.87913019  1
  N  N55  1  0.11568419  0.40157182  0.62244688  1
  N  N56  1  0.88405771  0.54219780  0.38091014  1
  N  N57  1  0.78206274  0.42646029  0.13332635  1
  N  N58  1  0.55667116  0.53224173  0.82892824  1
  N  N59  1  0.45310803  0.39637948  0.58308500  1
  N  N60  1  0.21477913  0.87463512  0.38141095  1
  N  N61  1  0.11041699  0.76150246  0.12756986  1
  N  N62  1  0.88608438  0.87919103  0.88162024  1
  N  N63  1  0.79273835  0.75651139  0.62696685  1
  N  N64  1  0.54576449  0.88497131  0.33606095  1
  N  N65  1  0.43815999  0.76455163  0.12367709  1
  N  N66  1  0.21784550  0.87647111  0.87437079  1
  N  N67  1  0.11593793  0.75384752  0.62710984  1
  N  N68  1  0.87233546  0.90181500  0.36993872  1
  N  N69  1  0.78240120  0.75897459  0.12971035  1
  N  N70  1  0.55830137  0.87429480  0.83368692  1
  N  N71  1  0.44237724  0.76337113  0.62004535  1
