# generated using pymatgen
data_Al31B5N36
_symmetry_space_group_name_H-M   'P 1'
_cell_length_a   9.33701360
_cell_length_b   9.16235090
_cell_length_c   9.82689959
_cell_angle_alpha   90.06066049
_cell_angle_beta   90.41452710
_cell_angle_gamma   60.44017112
_symmetry_Int_Tables_number   1
_chemical_formula_structural   Al31B5N36
_chemical_formula_sum   'Al31 B5 N36'
_cell_volume   731.23697476
_cell_formula_units_Z   1
loop_
 _symmetry_equiv_pos_site_id
 _symmetry_equiv_pos_as_xyz
  1  'x, y, z'
loop_
 _atom_site_type_symbol
 _atom_site_label
 _atom_site_symmetry_multiplicity
 _atom_site_fract_x
 _atom_site_fract_y
 _atom_site_fract_z
 _atom_site_occupancy
  Al  Al0  1  0.11816638  0.09467171  0.39702318  1
  Al  Al1  1  0.22055320  0.20616375  0.14049770  1
  Al  Al2  1  0.76161964  0.10152575  0.89043606  1
  Al  Al3  1  0.44774641  0.10437481  0.39156280  1
  Al  Al4  1  0.10427726  0.10535263  0.82081106  1
  Al  Al5  1  0.88112556  0.20159686  0.15165117  1
  Al  Al6  1  0.43827130  0.09848255  0.90091130  1
  Al  Al7  1  0.11349228  0.42313900  0.39792115  1
  Al  Al8  1  0.22251783  0.53697836  0.15151572  1
  Al  Al9  1  0.77481910  0.42588379  0.89823332  1
  Al  Al10  1  0.89402515  0.52343815  0.64956877  1
  Al  Al11  1  0.45002719  0.41368926  0.39439613  1
  Al  Al12  1  0.55474692  0.53222656  0.14936606  1
  Al  Al13  1  0.10600666  0.43020892  0.90389723  1
  Al  Al14  1  0.22118945  0.53026381  0.65245707  1
  Al  Al15  1  0.77758344  0.41608378  0.40256081  1
  Al  Al16  1  0.88599707  0.53940640  0.15404176  1
  Al  Al17  1  0.43869185  0.42629867  0.90215519  1
  Al  Al18  1  0.55667704  0.52511411  0.65369152  1
  Al  Al19  1  0.11393913  0.76158078  0.40058190  1
  Al  Al20  1  0.21866565  0.87754365  0.15175631  1
  Al  Al21  1  0.77573344  0.76255949  0.90143355  1
  Al  Al22  1  0.89567273  0.87556146  0.64764555  1
  Al  Al23  1  0.45209216  0.75617750  0.39942783  1
  Al  Al24  1  0.55456668  0.88032421  0.15150275  1
  Al  Al25  1  0.10584920  0.76926820  0.90110866  1
  Al  Al26  1  0.23732981  0.86393098  0.63952321  1
  Al  Al27  1  0.77782875  0.76995925  0.40341876  1
  Al  Al28  1  0.87714767  0.88993512  0.15350139  1
  Al  Al29  1  0.43822727  0.76566960  0.90027348  1
  Al  Al30  1  0.55535150  0.87839316  0.65118879  1
  B  B31  1  0.83494801  0.22606732  0.65082918  1
  B  B32  1  0.54796180  0.20926847  0.15460204  1
  B  B33  1  0.23128945  0.20600224  0.62345716  1
  B  B34  1  0.83518366  0.07655249  0.41962980  1
  B  B35  1  0.48897719  0.23715366  0.66535779  1
  N  N36  1  0.22633910  0.20526633  0.33561747  1
  N  N37  1  0.09997164  0.09891443  0.10512692  1
  N  N38  1  0.86882035  0.21020068  0.80564274  1
  N  N39  1  0.82344646  0.09332504  0.57234732  1
  N  N40  1  0.55175451  0.20803583  0.31223119  1
  N  N41  1  0.45405936  0.10908244  0.09360749  1
  N  N42  1  0.22084852  0.21088183  0.85061646  1
  N  N43  1  0.15646307  0.09561192  0.60070631  1
  N  N44  1  0.88731903  0.18859267  0.34804679  1
  N  N45  1  0.74432592  0.11417226  0.08530852  1
  N  N46  1  0.54088177  0.21062952  0.81274188  1
  N  N47  1  0.42943497  0.12443655  0.59826417  1
  N  N48  1  0.22190481  0.53938171  0.34444961  1
  N  N49  1  0.10314548  0.43512499  0.09487340  1
  N  N50  1  0.88598084  0.53778042  0.84085449  1
  N  N51  1  0.78130289  0.40054046  0.59587627  1
  N  N52  1  0.55836590  0.53241214  0.34333898  1
  N  N53  1  0.44940546  0.40724172  0.09426892  1
  N  N54  1  0.21752788  0.54262549  0.84393719  1
  N  N55  1  0.12387361  0.39902087  0.59422797  1
  N  N56  1  0.88692888  0.53809760  0.34961189  1
  N  N57  1  0.77528930  0.42654482  0.09139263  1
  N  N58  1  0.55125977  0.53760999  0.84468870  1
  N  N59  1  0.44931576  0.39947410  0.59614128  1
  N  N60  1  0.23003527  0.86765808  0.34793527  1
  N  N61  1  0.10407850  0.76629860  0.09509468  1
  N  N62  1  0.88459192  0.87693346  0.83969412  1
  N  N63  1  0.78133440  0.75970155  0.59481792  1
  N  N64  1  0.55768798  0.87528443  0.34588294  1
  N  N65  1  0.44186009  0.76307599  0.09373228  1
  N  N66  1  0.22094577  0.87217927  0.83219850  1
  N  N67  1  0.11858736  0.75268064  0.59150640  1
  N  N68  1  0.88396673  0.90093384  0.35384875  1
  N  N69  1  0.77614873  0.76479704  0.09674078  1
  N  N70  1  0.55394605  0.87427277  0.84292053  1
  N  N71  1  0.45994911  0.74731004  0.59140762  1
