# generated using pymatgen
data_Al31B5N36
_symmetry_space_group_name_H-M   'P 1'
_cell_length_a   9.28358773
_cell_length_b   9.17134797
_cell_length_c   10.08422287
_cell_angle_alpha   89.72072631
_cell_angle_beta   90.31216729
_cell_angle_gamma   60.04910814
_symmetry_Int_Tables_number   1
_chemical_formula_structural   Al31B5N36
_chemical_formula_sum   'Al31 B5 N36'
_cell_volume   743.89844611
_cell_formula_units_Z   1
loop_
 _symmetry_equiv_pos_site_id
 _symmetry_equiv_pos_as_xyz
  1  'x, y, z'
loop_
 _atom_site_type_symbol
 _atom_site_label
 _atom_site_symmetry_multiplicity
 _atom_site_fract_x
 _atom_site_fract_y
 _atom_site_fract_z
 _atom_site_occupancy
  Al  Al0  1  0.11185354  0.09031493  0.32721128  1
  Al  Al1  1  0.22096147  0.20979128  0.07268124  1
  Al  Al2  1  0.76777047  0.10189859  0.86087021  1
  Al  Al3  1  0.46072551  0.09505871  0.39881129  1
  Al  Al4  1  0.11747528  0.09906832  0.80121263  1
  Al  Al5  1  0.87381873  0.20599827  0.13630914  1
  Al  Al6  1  0.45124117  0.09646072  0.88516535  1
  Al  Al7  1  0.11481037  0.42459627  0.32682502  1
  Al  Al8  1  0.21887881  0.53679732  0.07298263  1
  Al  Al9  1  0.77906953  0.42834136  0.88702661  1
  Al  Al10  1  0.88536008  0.53033608  0.63538245  1
  Al  Al11  1  0.45956877  0.41087467  0.38567364  1
  Al  Al12  1  0.55444283  0.53399554  0.13839964  1
  Al  Al13  1  0.12302520  0.41676317  0.81485453  1
  Al  Al14  1  0.22102064  0.53040022  0.56828379  1
  Al  Al15  1  0.77638046  0.41090276  0.39525862  1
  Al  Al16  1  0.88079838  0.53939131  0.14322754  1
  Al  Al17  1  0.45086635  0.41938215  0.88828833  1
  Al  Al18  1  0.55149451  0.53201705  0.64072393  1
  Al  Al19  1  0.10438755  0.76864269  0.31933752  1
  Al  Al20  1  0.21263326  0.88077428  0.06776118  1
  Al  Al21  1  0.77662751  0.75466977  0.88620987  1
  Al  Al22  1  0.88081462  0.89744624  0.57282784  1
  Al  Al23  1  0.45259250  0.75510401  0.38739486  1
  Al  Al24  1  0.55437050  0.88089326  0.14033117  1
  Al  Al25  1  0.10928997  0.76263480  0.81432944  1
  Al  Al26  1  0.22490366  0.87807859  0.56891078  1
  Al  Al27  1  0.77151318  0.76312788  0.38970943  1
  Al  Al28  1  0.88508968  0.87824596  0.06612972  1
  Al  Al29  1  0.44591790  0.76201333  0.88664162  1
  Al  Al30  1  0.56140330  0.88017985  0.63862885  1
  B  B31  1  0.82564659  0.23768838  0.65718596  1
  B  B32  1  0.56069810  0.20377754  0.13060728  1
  B  B33  1  0.18002312  0.22417977  0.55636808  1
  B  B34  1  0.77357460  0.09461141  0.34646182  1
  B  B35  1  0.55254105  0.20963106  0.64037634  1
  N  N36  1  0.21313134  0.20920601  0.40349608  1
  N  N37  1  0.11208989  0.09779003  0.13718699  1
  N  N38  1  0.87914014  0.21676262  0.80450110  1
  N  N39  1  0.76639274  0.12587453  0.61221650  1
  N  N40  1  0.58334011  0.18966618  0.30619271  1
  N  N41  1  0.46254344  0.10869350  0.08167463  1
  N  N42  1  0.21767765  0.20471371  0.88700203  1
  N  N43  1  0.15494215  0.09712439  0.62027118  1
  N  N44  1  0.86889178  0.18825644  0.32779235  1
  N  N45  1  0.74692107  0.11516749  0.06785416  1
  N  N46  1  0.54464512  0.21240881  0.80322824  1
  N  N47  1  0.49642151  0.09611150  0.57869408  1
  N  N48  1  0.21873215  0.54214224  0.37930991  1
  N  N49  1  0.11438486  0.42526755  0.13846901  1
  N  N50  1  0.88870931  0.53707693  0.82424640  1
  N  N51  1  0.78185539  0.40195279  0.58602300  1
  N  N52  1  0.55745632  0.53379694  0.32717104  1
  N  N53  1  0.45916842  0.40092757  0.08338216  1
  N  N54  1  0.21720206  0.54077471  0.88018941  1
  N  N55  1  0.12367469  0.39770921  0.62018823  1
  N  N56  1  0.87946166  0.53496831  0.33573387  1
  N  N57  1  0.77726003  0.42610356  0.07474752  1
  N  N58  1  0.55336894  0.53873879  0.82892737  1
  N  N59  1  0.45840261  0.40090225  0.58022032  1
  N  N60  1  0.22016541  0.87030606  0.38029602  1
  N  N61  1  0.10664361  0.76473596  0.13098672  1
  N  N62  1  0.89234411  0.87042692  0.87345725  1
  N  N63  1  0.78644357  0.75341278  0.57794519  1
  N  N64  1  0.55084112  0.87730719  0.32757000  1
  N  N65  1  0.44673710  0.76129387  0.07895171  1
  N  N66  1  0.21121546  0.88187530  0.87557617  1
  N  N67  1  0.11208950  0.76237017  0.62619320  1
  N  N68  1  0.87095482  0.90519801  0.37138125  1
  N  N69  1  0.77384255  0.75744416  0.07933234  1
  N  N70  1  0.55516448  0.87381256  0.82707834  1
  N  N71  1  0.46075793  0.75268701  0.57812748  1
