# generated using pymatgen
data_Al31B5N36
_symmetry_space_group_name_H-M   'P 1'
_cell_length_a   9.29046360
_cell_length_b   9.17261040
_cell_length_c   10.07356873
_cell_angle_alpha   89.74138418
_cell_angle_beta   90.35835698
_cell_angle_gamma   60.07416367
_symmetry_Int_Tables_number   1
_chemical_formula_structural   Al31B5N36
_chemical_formula_sum   'Al31 B5 N36'
_cell_volume   743.94880234
_cell_formula_units_Z   1
loop_
 _symmetry_equiv_pos_site_id
 _symmetry_equiv_pos_as_xyz
  1  'x, y, z'
loop_
 _atom_site_type_symbol
 _atom_site_label
 _atom_site_symmetry_multiplicity
 _atom_site_fract_x
 _atom_site_fract_y
 _atom_site_fract_z
 _atom_site_occupancy
  Al  Al0  1  0.11169542  0.09053548  0.32736016  1
  Al  Al1  1  0.22081630  0.20978216  0.07284671  1
  Al  Al2  1  0.76774728  0.10221527  0.86156284  1
  Al  Al3  1  0.46040451  0.09555606  0.39849125  1
  Al  Al4  1  0.11688868  0.09916218  0.80118476  1
  Al  Al5  1  0.87372770  0.20586060  0.13669817  1
  Al  Al6  1  0.45103147  0.09607043  0.88572080  1
  Al  Al7  1  0.11462976  0.42484375  0.32673124  1
  Al  Al8  1  0.21893592  0.53671383  0.07321022  1
  Al  Al9  1  0.77908789  0.42777192  0.88665723  1
  Al  Al10  1  0.88492525  0.53084203  0.63522370  1
  Al  Al11  1  0.45952552  0.41067441  0.38560668  1
  Al  Al12  1  0.55465055  0.53388627  0.13854130  1
  Al  Al13  1  0.12258522  0.41690147  0.81502703  1
  Al  Al14  1  0.22008021  0.53096475  0.56802070  1
  Al  Al15  1  0.77666598  0.41111085  0.39518922  1
  Al  Al16  1  0.88080709  0.53930912  0.14297707  1
  Al  Al17  1  0.45062322  0.41974314  0.88864836  1
  Al  Al18  1  0.55210555  0.53130522  0.64086143  1
  Al  Al19  1  0.10435806  0.76878389  0.31912611  1
  Al  Al20  1  0.21275902  0.88076253  0.06781224  1
  Al  Al21  1  0.77663989  0.75463460  0.88620804  1
  Al  Al22  1  0.88341802  0.89547942  0.57216109  1
  Al  Al23  1  0.45246038  0.75520337  0.38760524  1
  Al  Al24  1  0.55447037  0.88076175  0.14053561  1
  Al  Al25  1  0.10925321  0.76257002  0.81451584  1
  Al  Al26  1  0.22479548  0.87815561  0.56912055  1
  Al  Al27  1  0.77183143  0.76327515  0.38939844  1
  Al  Al28  1  0.88500062  0.87829085  0.06661273  1
  Al  Al29  1  0.44583066  0.76191975  0.88660471  1
  Al  Al30  1  0.56140108  0.87981071  0.63881278  1
  B  B31  1  0.82778140  0.23627441  0.65451468  1
  B  B32  1  0.56113422  0.20354079  0.13141604  1
  B  B33  1  0.17923940  0.22465083  0.55622353  1
  B  B34  1  0.77440652  0.09524650  0.35125691  1
  B  B35  1  0.54041526  0.21472124  0.64236817  1
  N  N36  1  0.21320732  0.20948476  0.40338678  1
  N  N37  1  0.11208115  0.09775707  0.13704327  1
  N  N38  1  0.87855792  0.21643674  0.80378017  1
  N  N39  1  0.77636538  0.12278040  0.60430106  1
  N  N40  1  0.58375735  0.18963953  0.30721908  1
  N  N41  1  0.46254367  0.10870559  0.08205010  1
  N  N42  1  0.21773960  0.20466199  0.88694733  1
  N  N43  1  0.15629621  0.09694701  0.62049871  1
  N  N44  1  0.86951617  0.18866904  0.32777351  1
  N  N45  1  0.74654762  0.11534284  0.06755535  1
  N  N46  1  0.54439157  0.21234075  0.80234277  1
  N  N47  1  0.49498454  0.09676143  0.57927662  1
  N  N48  1  0.21899134  0.54209965  0.37904941  1
  N  N49  1  0.11424321  0.42532909  0.13826502  1
  N  N50  1  0.88859456  0.53698257  0.82440102  1
  N  N51  1  0.78138661  0.40333589  0.58566840  1
  N  N52  1  0.55737157  0.53378003  0.32760295  1
  N  N53  1  0.45923434  0.40075829  0.08368972  1
  N  N54  1  0.21727594  0.54053419  0.88030611  1
  N  N55  1  0.12318317  0.39817401  0.62006530  1
  N  N56  1  0.87954520  0.53526653  0.33553993  1
  N  N57  1  0.77718929  0.42594871  0.07471562  1
  N  N58  1  0.55326793  0.53855399  0.82912633  1
  N  N59  1  0.45714888  0.40051646  0.58110873  1
  N  N60  1  0.22020679  0.87041872  0.38027781  1
  N  N61  1  0.10681485  0.76466290  0.13064981  1
  N  N62  1  0.89205511  0.87069609  0.87318858  1
  N  N63  1  0.78598301  0.75408901  0.57804286  1
  N  N64  1  0.55082808  0.87750349  0.32806153  1
  N  N65  1  0.44678238  0.76123187  0.07914297  1
  N  N66  1  0.21133100  0.88178344  0.87547954  1
  N  N67  1  0.11358962  0.76083664  0.62641271  1
  N  N68  1  0.87202764  0.90401224  0.37099142  1
  N  N69  1  0.77372213  0.75754561  0.07940815  1
  N  N70  1  0.55514898  0.87377783  0.82731358  1
  N  N71  1  0.46056358  0.75239886  0.57847976  1
