# generated using pymatgen
data_Al31B5N36
_symmetry_space_group_name_H-M   'P 1'
_cell_length_a   9.38230326
_cell_length_b   9.12349692
_cell_length_c   10.11009523
_cell_angle_alpha   90.18075641
_cell_angle_beta   90.50552400
_cell_angle_gamma   60.76745828
_symmetry_Int_Tables_number   1
_chemical_formula_structural   Al31B5N36
_chemical_formula_sum   'Al31 B5 N36'
_cell_volume   755.17271313
_cell_formula_units_Z   1
loop_
 _symmetry_equiv_pos_site_id
 _symmetry_equiv_pos_as_xyz
  1  'x, y, z'
loop_
 _atom_site_type_symbol
 _atom_site_label
 _atom_site_symmetry_multiplicity
 _atom_site_fract_x
 _atom_site_fract_y
 _atom_site_fract_z
 _atom_site_occupancy
  Al  Al0  1  0.12122304  0.09070815  0.33081822  1
  Al  Al1  1  0.21309223  0.21265016  0.07288681  1
  Al  Al2  1  0.77648292  0.09374231  0.87605032  1
  Al  Al3  1  0.44731839  0.10134880  0.40443732  1
  Al  Al4  1  0.11383329  0.09634319  0.80437787  1
  Al  Al5  1  0.88353192  0.20217821  0.14231363  1
  Al  Al6  1  0.44559929  0.09697899  0.88870297  1
  Al  Al7  1  0.11334922  0.42770827  0.32995720  1
  Al  Al8  1  0.21019430  0.54286446  0.07390115  1
  Al  Al9  1  0.77692516  0.42257234  0.88744814  1
  Al  Al10  1  0.88115839  0.53159918  0.63975652  1
  Al  Al11  1  0.44616813  0.41901205  0.39070384  1
  Al  Al12  1  0.55454761  0.52923532  0.14221380  1
  Al  Al13  1  0.11344986  0.41988651  0.82003956  1
  Al  Al14  1  0.21718926  0.53052556  0.57567145  1
  Al  Al15  1  0.77776103  0.41643564  0.39470528  1
  Al  Al16  1  0.87783451  0.54474205  0.14557982  1
  Al  Al17  1  0.44627307  0.41945929  0.89235082  1
  Al  Al18  1  0.55407130  0.52639027  0.64597164  1
  Al  Al19  1  0.11774050  0.76255967  0.32615499  1
  Al  Al20  1  0.21265254  0.87976303  0.07404313  1
  Al  Al21  1  0.77837243  0.76234609  0.89339626  1
  Al  Al22  1  0.89224292  0.87628564  0.63254839  1
  Al  Al23  1  0.45845264  0.75352430  0.39196415  1
  Al  Al24  1  0.55201278  0.88429374  0.14493691  1
  Al  Al25  1  0.11367784  0.76030232  0.82154788  1
  Al  Al26  1  0.23010116  0.87385929  0.57337520  1
  Al  Al27  1  0.77619109  0.77262635  0.39455141  1
  Al  Al28  1  0.87705567  0.89275659  0.14236020  1
  Al  Al29  1  0.44663133  0.76029964  0.89346190  1
  Al  Al30  1  0.56483308  0.87508214  0.64514380  1
  B  B31  1  0.84306638  0.22518969  0.63939363  1
  B  B32  1  0.48029582  0.24156846  0.15506124  1
  B  B33  1  0.16855460  0.22854681  0.56210677  1
  B  B34  1  0.85717255  0.06798971  0.41376346  1
  B  B35  1  0.50544579  0.22611153  0.65496383  1
  N  N36  1  0.20628839  0.21586634  0.41395760  1
  N  N37  1  0.11973234  0.09572710  0.14454452  1
  N  N38  1  0.87402331  0.20983287  0.79043794  1
  N  N39  1  0.84411733  0.08753121  0.55912363  1
  N  N40  1  0.49694164  0.23074269  0.29597643  1
  N  N41  1  0.44918625  0.11284328  0.08054540  1
  N  N42  1  0.21216500  0.20672468  0.88822448  1
  N  N43  1  0.16168896  0.09303014  0.62719318  1
  N  N44  1  0.88450935  0.19085194  0.33486730  1
  N  N45  1  0.79982513  0.08985980  0.05517776  1
  N  N46  1  0.54474239  0.21039277  0.80583034  1
  N  N47  1  0.49960108  0.09302930  0.58482369  1
  N  N48  1  0.21261763  0.54717870  0.39089936  1
  N  N49  1  0.10963859  0.42809033  0.14090528  1
  N  N50  1  0.88224233  0.53944967  0.83007727  1
  N  N51  1  0.78004347  0.40143374  0.58409678  1
  N  N52  1  0.55814536  0.53010400  0.33186519  1
  N  N53  1  0.44686956  0.40571464  0.08358175  1
  N  N54  1  0.21356347  0.53988183  0.88373918  1
  N  N55  1  0.11626148  0.40078622  0.62735790  1
  N  N56  1  0.87846740  0.54319395  0.33697567  1
  N  N57  1  0.77669668  0.42508960  0.07837100  1
  N  N58  1  0.55220746  0.53592182  0.83394657  1
  N  N59  1  0.45407776  0.39682709  0.58820337  1
  N  N60  1  0.22801470  0.87055264  0.38556410  1
  N  N61  1  0.11266801  0.76020142  0.13858393  1
  N  N62  1  0.88223032  0.87247176  0.82002911  1
  N  N63  1  0.78584528  0.75418624  0.57973537  1
  N  N64  1  0.55431635  0.87975579  0.33358532  1
  N  N65  1  0.44788469  0.75885605  0.08465031  1
  N  N66  1  0.21274708  0.88103548  0.88331021  1
  N  N67  1  0.12801817  0.75187629  0.63473049  1
  N  N68  1  0.88132885  0.90524493  0.34567787  1
  N  N69  1  0.77500955  0.76816308  0.08511545  1
  N  N70  1  0.55573380  0.87275992  0.83400179  1
  N  N71  1  0.46471419  0.74768233  0.58276371  1
