# generated using pymatgen
data_Al31B5N36
_symmetry_space_group_name_H-M   'P 1'
_cell_length_a   9.33563177
_cell_length_b   9.20886801
_cell_length_c   9.93004813
_cell_angle_alpha   89.91063168
_cell_angle_beta   89.92453060
_cell_angle_gamma   60.18772425
_symmetry_Int_Tables_number   1
_chemical_formula_structural   Al31B5N36
_chemical_formula_sum   'Al31 B5 N36'
_cell_volume   740.71263939
_cell_formula_units_Z   1
loop_
 _symmetry_equiv_pos_site_id
 _symmetry_equiv_pos_as_xyz
  1  'x, y, z'
loop_
 _atom_site_type_symbol
 _atom_site_label
 _atom_site_symmetry_multiplicity
 _atom_site_fract_x
 _atom_site_fract_y
 _atom_site_fract_z
 _atom_site_occupancy
  Al  Al0  1  0.09637536  0.09991895  0.33424611  1
  Al  Al1  1  0.22385214  0.20745793  0.07729677  1
  Al  Al2  1  0.78756381  0.09726155  0.80288244  1
  Al  Al3  1  0.45078361  0.09953852  0.40159061  1
  Al  Al4  1  0.11728690  0.09806413  0.81411066  1
  Al  Al5  1  0.88624016  0.20520239  0.07458898  1
  Al  Al6  1  0.45850757  0.09298600  0.89061900  1
  Al  Al7  1  0.10600286  0.42966937  0.32448036  1
  Al  Al8  1  0.22121775  0.53485390  0.07476208  1
  Al  Al9  1  0.78442722  0.41651904  0.81392330  1
  Al  Al10  1  0.88758061  0.52972178  0.56761899  1
  Al  Al11  1  0.44934170  0.41362700  0.38406829  1
  Al  Al12  1  0.55778524  0.53416820  0.09075909  1
  Al  Al13  1  0.11820425  0.41640284  0.81818015  1
  Al  Al14  1  0.21474183  0.53287966  0.57072129  1
  Al  Al15  1  0.77062947  0.42830453  0.32515277  1
  Al  Al16  1  0.88864516  0.53734487  0.06900272  1
  Al  Al17  1  0.45279846  0.41621115  0.88653362  1
  Al  Al18  1  0.55509573  0.52959702  0.58472698  1
  Al  Al19  1  0.10256212  0.76954469  0.31806432  1
  Al  Al20  1  0.21865963  0.87667204  0.06956785  1
  Al  Al21  1  0.78878512  0.75599543  0.82072293  1
  Al  Al22  1  0.88925637  0.88327836  0.56100718  1
  Al  Al23  1  0.43307580  0.76525605  0.32674391  1
  Al  Al24  1  0.55229653  0.88468049  0.13843904  1
  Al  Al25  1  0.11046863  0.76175260  0.81915237  1
  Al  Al26  1  0.22326709  0.87927566  0.57183905  1
  Al  Al27  1  0.77724834  0.76684284  0.32294380  1
  Al  Al28  1  0.88174845  0.88047249  0.07156407  1
  Al  Al29  1  0.44268321  0.75891097  0.82058186  1
  Al  Al30  1  0.55825024  0.88357696  0.63638415  1
  B  B31  1  0.83444125  0.22108512  0.54536540  1
  B  B32  1  0.55586596  0.20567526  0.15142572  1
  B  B33  1  0.16953811  0.22820269  0.56006477  1
  B  B34  1  0.77078864  0.09482957  0.30999240  1
  B  B35  1  0.50423913  0.22891547  0.65118571  1
  N  N36  1  0.20597732  0.21407668  0.40547945  1
  N  N37  1  0.10903230  0.09830672  0.14115575  1
  N  N38  1  0.89491414  0.20083931  0.88437741  1
  N  N39  1  0.82537827  0.09576089  0.62089980  1
  N  N40  1  0.56466508  0.19831987  0.31189568  1
  N  N41  1  0.46625261  0.10907647  0.08610251  1
  N  N42  1  0.22634811  0.20222932  0.88885139  1
  N  N43  1  0.15120092  0.10062800  0.62746691  1
  N  N44  1  0.85967265  0.20218138  0.38823520  1
  N  N45  1  0.76731907  0.10253576  0.14661299  1
  N  N46  1  0.54963855  0.20969997  0.80191057  1
  N  N47  1  0.49064326  0.09970354  0.58330990  1
  N  N48  1  0.21405081  0.54394353  0.37790411  1
  N  N49  1  0.10909024  0.42723843  0.13571596  1
  N  N50  1  0.89413687  0.53119163  0.87529972  1
  N  N51  1  0.78643191  0.39650129  0.61400908  1
  N  N52  1  0.54970197  0.54178840  0.37609568  1
  N  N53  1  0.46184869  0.39509147  0.08733712  1
  N  N54  1  0.21987909  0.53757640  0.87878616  1
  N  N55  1  0.11504882  0.40205872  0.62370112  1
  N  N56  1  0.88407058  0.54137216  0.37947580  1
  N  N57  1  0.77937874  0.42707562  0.13461793  1
  N  N58  1  0.56218346  0.53405730  0.86452707  1
  N  N59  1  0.44918524  0.39784102  0.58530735  1
  N  N60  1  0.21378897  0.87619955  0.38284685  1
  N  N61  1  0.10877957  0.76269984  0.12752616  1
  N  N62  1  0.88634386  0.87978137  0.87932817  1
  N  N63  1  0.79266474  0.75344904  0.62548926  1
  N  N64  1  0.54665261  0.88284488  0.33745827  1
  N  N65  1  0.43797606  0.76279563  0.12849712  1
  N  N66  1  0.22160061  0.87407218  0.87760557  1
  N  N67  1  0.11418015  0.75741356  0.62753391  1
  N  N68  1  0.87066254  0.90264976  0.36830532  1
  N  N69  1  0.78190568  0.75857975  0.12788459  1
  N  N70  1  0.55893936  0.87400061  0.83573720  1
  N  N71  1  0.44735426  0.75743154  0.62474821  1
