# generated using pymatgen
data_Al31B5N36
_symmetry_space_group_name_H-M   'P 1'
_cell_length_a   9.33880429
_cell_length_b   9.15138163
_cell_length_c   9.79235618
_cell_angle_alpha   90.20642205
_cell_angle_beta   90.53376398
_cell_angle_gamma   60.43823354
_symmetry_Int_Tables_number   1
_chemical_formula_structural   Al31B5N36
_chemical_formula_sum   'Al31 B5 N36'
_cell_volume   727.90980920
_cell_formula_units_Z   1
loop_
 _symmetry_equiv_pos_site_id
 _symmetry_equiv_pos_as_xyz
  1  'x, y, z'
loop_
 _atom_site_type_symbol
 _atom_site_label
 _atom_site_symmetry_multiplicity
 _atom_site_fract_x
 _atom_site_fract_y
 _atom_site_fract_z
 _atom_site_occupancy
  Al  Al0  1  0.12046906  0.09512778  0.41043433  1
  Al  Al1  1  0.22171695  0.20666883  0.14475871  1
  Al  Al2  1  0.76023952  0.10173204  0.88941223  1
  Al  Al3  1  0.44789214  0.10396472  0.39725869  1
  Al  Al4  1  0.10080539  0.09941597  0.87480385  1
  Al  Al5  1  0.88108923  0.20179567  0.14868309  1
  Al  Al6  1  0.43769651  0.09933296  0.89248859  1
  Al  Al7  1  0.11332060  0.42110015  0.40232688  1
  Al  Al8  1  0.22202893  0.53589722  0.15070368  1
  Al  Al9  1  0.77360581  0.42653352  0.89708948  1
  Al  Al10  1  0.89109755  0.52703220  0.64939326  1
  Al  Al11  1  0.44975250  0.41273550  0.39444320  1
  Al  Al12  1  0.55465680  0.53238910  0.15028470  1
  Al  Al13  1  0.10664752  0.42945770  0.89683494  1
  Al  Al14  1  0.22289168  0.53017857  0.65063204  1
  Al  Al15  1  0.77902256  0.41512550  0.40168248  1
  Al  Al16  1  0.88726405  0.53905625  0.15227234  1
  Al  Al17  1  0.44000047  0.42586030  0.90090118  1
  Al  Al18  1  0.55618902  0.52563233  0.65098676  1
  Al  Al19  1  0.11496937  0.76268646  0.39991033  1
  Al  Al20  1  0.21817594  0.87886020  0.14797395  1
  Al  Al21  1  0.77542202  0.76330909  0.90078417  1
  Al  Al22  1  0.89624365  0.87570089  0.64596362  1
  Al  Al23  1  0.44931350  0.75860656  0.39901955  1
  Al  Al24  1  0.55339745  0.88181250  0.15042249  1
  Al  Al25  1  0.10565874  0.76601081  0.90104536  1
  Al  Al26  1  0.23276834  0.87184869  0.64768293  1
  Al  Al27  1  0.77717375  0.77012653  0.40249088  1
  Al  Al28  1  0.87556974  0.89064283  0.15408580  1
  Al  Al29  1  0.44153808  0.76259750  0.90027492  1
  Al  Al30  1  0.55701628  0.87972391  0.64877779  1
  B  B31  1  0.84447188  0.22303836  0.65276067  1
  B  B32  1  0.54375448  0.21286932  0.15334496  1
  B  B33  1  0.19874063  0.21719182  0.65884605  1
  B  B34  1  0.84174362  0.07429742  0.41958067  1
  B  B35  1  0.49573741  0.23125494  0.66146091  1
  N  N36  1  0.22381219  0.20354218  0.33524695  1
  N  N37  1  0.10056303  0.10142178  0.07600825  1
  N  N38  1  0.87314263  0.20800327  0.81013986  1
  N  N39  1  0.82970301  0.09269423  0.57159614  1
  N  N40  1  0.54573742  0.20901457  0.30859964  1
  N  N41  1  0.44763851  0.11080145  0.08692970  1
  N  N42  1  0.21758769  0.21040601  0.81942104  1
  N  N43  1  0.15338358  0.09745901  0.59884641  1
  N  N44  1  0.89380890  0.18589284  0.34466211  1
  N  N45  1  0.74441801  0.11398316  0.08473400  1
  N  N46  1  0.54175403  0.21171680  0.81324171  1
  N  N47  1  0.45693869  0.11208759  0.59436629  1
  N  N48  1  0.22007242  0.53888519  0.34457651  1
  N  N49  1  0.10524585  0.43058872  0.08867444  1
  N  N50  1  0.88514070  0.53814599  0.84143477  1
  N  N51  1  0.78334892  0.39977202  0.59650921  1
  N  N52  1  0.55817823  0.53233952  0.34430448  1
  N  N53  1  0.44881730  0.40830887  0.09346667  1
  N  N54  1  0.21902908  0.54098951  0.84319454  1
  N  N55  1  0.11930558  0.40175398  0.59871464  1
  N  N56  1  0.88818621  0.53741430  0.34796119  1
  N  N57  1  0.77543888  0.42647121  0.09132132  1
  N  N58  1  0.55196723  0.53696632  0.84334624  1
  N  N59  1  0.44951142  0.39990242  0.59488495  1
  N  N60  1  0.22665795  0.87345363  0.34287692  1
  N  N61  1  0.10260497  0.76696373  0.09564112  1
  N  N62  1  0.88505360  0.87650548  0.83899393  1
  N  N63  1  0.78298636  0.75821512  0.59399506  1
  N  N64  1  0.55694068  0.87548242  0.34440205  1
  N  N65  1  0.44186108  0.76294161  0.09392771  1
  N  N66  1  0.22221119  0.87028972  0.83923713  1
  N  N67  1  0.12035988  0.75431406  0.59197398  1
  N  N68  1  0.88416466  0.90122960  0.35386847  1
  N  N69  1  0.77575239  0.76515866  0.09646621  1
  N  N70  1  0.55405518  0.87342058  0.84221823  1
  N  N71  1  0.45593638  0.75082626  0.59203720  1
