# generated using pymatgen
data_Al31B5N36
_symmetry_space_group_name_H-M   'P 1'
_cell_length_a   9.32894156
_cell_length_b   9.18706686
_cell_length_c   9.94642455
_cell_angle_alpha   90.04546122
_cell_angle_beta   89.87379137
_cell_angle_gamma   60.24542889
_symmetry_Int_Tables_number   1
_chemical_formula_structural   Al31B5N36
_chemical_formula_sum   'Al31 B5 N36'
_cell_volume   740.07127285
_cell_formula_units_Z   1
loop_
 _symmetry_equiv_pos_site_id
 _symmetry_equiv_pos_as_xyz
  1  'x, y, z'
loop_
 _atom_site_type_symbol
 _atom_site_label
 _atom_site_symmetry_multiplicity
 _atom_site_fract_x
 _atom_site_fract_y
 _atom_site_fract_z
 _atom_site_occupancy
  Al  Al0  1  0.09656245  0.09967605  0.33547390  1
  Al  Al1  1  0.22371878  0.20776346  0.07764326  1
  Al  Al2  1  0.78996496  0.09535478  0.80389578  1
  Al  Al3  1  0.45124776  0.10139630  0.40540621  1
  Al  Al4  1  0.11842267  0.09708966  0.81413310  1
  Al  Al5  1  0.88684270  0.20540764  0.07463140  1
  Al  Al6  1  0.45960906  0.09160249  0.89261750  1
  Al  Al7  1  0.10396277  0.42928921  0.32440634  1
  Al  Al8  1  0.22158949  0.53520865  0.07559823  1
  Al  Al9  1  0.78266101  0.41685749  0.81353909  1
  Al  Al10  1  0.88662974  0.52918206  0.56801818  1
  Al  Al11  1  0.44245999  0.42548211  0.33366729  1
  Al  Al12  1  0.56060447  0.53639737  0.07409413  1
  Al  Al13  1  0.11766807  0.41557842  0.81714711  1
  Al  Al14  1  0.22142572  0.52826624  0.56721772  1
  Al  Al15  1  0.76896448  0.42890096  0.32222056  1
  Al  Al16  1  0.88899568  0.53747990  0.06873755  1
  Al  Al17  1  0.44707861  0.42259289  0.86532793  1
  Al  Al18  1  0.55241458  0.52698960  0.56966221  1
  Al  Al19  1  0.10096967  0.77128594  0.31808177  1
  Al  Al20  1  0.21923411  0.87654678  0.06988027  1
  Al  Al21  1  0.78905797  0.75563401  0.82039366  1
  Al  Al22  1  0.89031032  0.88191011  0.56161352  1
  Al  Al23  1  0.43315310  0.76585283  0.32370800  1
  Al  Al24  1  0.55227464  0.88567923  0.13957019  1
  Al  Al25  1  0.11056900  0.76105014  0.81813131  1
  Al  Al26  1  0.22563713  0.87637332  0.57257692  1
  Al  Al27  1  0.77656905  0.76714507  0.32364205  1
  Al  Al28  1  0.88210285  0.88038515  0.07174622  1
  Al  Al29  1  0.44361222  0.75705822  0.82116532  1
  Al  Al30  1  0.55769595  0.88262798  0.63763616  1
  B  B31  1  0.83247550  0.22189847  0.54644737  1
  B  B32  1  0.55856396  0.20216379  0.15394784  1
  B  B33  1  0.16998143  0.22762613  0.56046861  1
  B  B34  1  0.77135413  0.09497718  0.31187029  1
  B  B35  1  0.50458201  0.22925475  0.65539536  1
  N  N36  1  0.20617510  0.21402579  0.40597829  1
  N  N37  1  0.10908850  0.09842164  0.14208023  1
  N  N38  1  0.89579670  0.20103023  0.88443465  1
  N  N39  1  0.82639646  0.09478856  0.62180610  1
  N  N40  1  0.56807579  0.19388212  0.31460611  1
  N  N41  1  0.46638997  0.11037089  0.08693194  1
  N  N42  1  0.22725991  0.20177310  0.88933828  1
  N  N43  1  0.15326131  0.09871237  0.62787882  1
  N  N44  1  0.85865611  0.20307623  0.38879803  1
  N  N45  1  0.76741147  0.10294651  0.14698073  1
  N  N46  1  0.55459069  0.20432601  0.80703294  1
  N  N47  1  0.48969623  0.10041732  0.58670475  1
  N  N48  1  0.21423605  0.54344306  0.37508582  1
  N  N49  1  0.10832714  0.42770329  0.13584832  1
  N  N50  1  0.89373737  0.53085979  0.87492880  1
  N  N51  1  0.78220962  0.39812744  0.61500840  1
  N  N52  1  0.54856586  0.54283321  0.37802992  1
  N  N53  1  0.45728676  0.40384564  0.11092481  1
  N  N54  1  0.21895462  0.53716851  0.88131424  1
  N  N55  1  0.11461277  0.40220081  0.62289986  1
  N  N56  1  0.88239532  0.54117570  0.37982658  1
  N  N57  1  0.77820047  0.42822171  0.13324659  1
  N  N58  1  0.56351562  0.53493532  0.88106170  1
  N  N59  1  0.44599018  0.40342427  0.60649369  1
  N  N60  1  0.21502226  0.87520584  0.38336979  1
  N  N61  1  0.10827535  0.76373365  0.12800960  1
  N  N62  1  0.88785226  0.87812578  0.87980387  1
  N  N63  1  0.79212612  0.75343541  0.62582057  1
  N  N64  1  0.54593630  0.88398323  0.33853785  1
  N  N65  1  0.43886085  0.76260786  0.12811697  1
  N  N66  1  0.22228465  0.87271621  0.87792150  1
  N  N67  1  0.11524224  0.75477085  0.62671078  1
  N  N68  1  0.87093563  0.90243968  0.36915969  1
  N  N69  1  0.78182353  0.75896993  0.12865603  1
  N  N70  1  0.55938414  0.87243462  0.83689173  1
  N  N71  1  0.44973137  0.75152664  0.62761672  1
