# generated using pymatgen
data_Al31B5N36
_symmetry_space_group_name_H-M   'P 1'
_cell_length_a   9.29393235
_cell_length_b   9.15654478
_cell_length_c   9.98401820
_cell_angle_alpha   90.37442546
_cell_angle_beta   89.93039014
_cell_angle_gamma   60.42249941
_symmetry_Int_Tables_number   1
_chemical_formula_structural   Al31B5N36
_chemical_formula_sum   'Al31 B5 N36'
_cell_volume   738.89963343
_cell_formula_units_Z   1
loop_
 _symmetry_equiv_pos_site_id
 _symmetry_equiv_pos_as_xyz
  1  'x, y, z'
loop_
 _atom_site_type_symbol
 _atom_site_label
 _atom_site_symmetry_multiplicity
 _atom_site_fract_x
 _atom_site_fract_y
 _atom_site_fract_z
 _atom_site_occupancy
  Al  Al0  1  0.09665412  0.09852060  0.32821211  1
  Al  Al1  1  0.22539278  0.20633338  0.07242752  1
  Al  Al2  1  0.79140312  0.09469594  0.79790261  1
  Al  Al3  1  0.44652265  0.10910934  0.39817072  1
  Al  Al4  1  0.11923289  0.09738227  0.80736131  1
  Al  Al5  1  0.88693350  0.20418675  0.06749846  1
  Al  Al6  1  0.45639200  0.10035784  0.88541065  1
  Al  Al7  1  0.10310769  0.43106174  0.31638786  1
  Al  Al8  1  0.22734688  0.53118268  0.06328952  1
  Al  Al9  1  0.78218099  0.41748352  0.80678499  1
  Al  Al10  1  0.88674533  0.52909437  0.56005185  1
  Al  Al11  1  0.44178592  0.42915868  0.30937513  1
  Al  Al12  1  0.55817293  0.53100261  0.06280075  1
  Al  Al13  1  0.11527840  0.41800406  0.81001718  1
  Al  Al14  1  0.22038012  0.52957463  0.55959178  1
  Al  Al15  1  0.76814784  0.42871298  0.31427417  1
  Al  Al16  1  0.89030319  0.53549114  0.06172140  1
  Al  Al17  1  0.44070052  0.43597310  0.81359462  1
  Al  Al18  1  0.55259851  0.52803452  0.56057574  1
  Al  Al19  1  0.10319401  0.76846516  0.31120294  1
  Al  Al20  1  0.22134377  0.87494069  0.06401993  1
  Al  Al21  1  0.78183616  0.76022099  0.81238621  1
  Al  Al22  1  0.89061469  0.88191308  0.55444216  1
  Al  Al23  1  0.43789063  0.76752109  0.31495122  1
  Al  Al24  1  0.56223724  0.86907555  0.06882139  1
  Al  Al25  1  0.10956364  0.76285100  0.81198217  1
  Al  Al26  1  0.22659971  0.87672860  0.56523750  1
  Al  Al27  1  0.76872360  0.77151700  0.31352358  1
  Al  Al28  1  0.88441450  0.87849973  0.06621546  1
  Al  Al29  1  0.44685308  0.76178438  0.81414258  1
  Al  Al30  1  0.56335671  0.87120924  0.57198708  1
  B  B31  1  0.83248254  0.22199529  0.53955897  1
  B  B32  1  0.55961989  0.19716599  0.15061940  1
  B  B33  1  0.16922876  0.22845964  0.55346840  1
  B  B34  1  0.77256139  0.09389635  0.30672656  1
  B  B35  1  0.50752771  0.22428320  0.65270335  1
  N  N36  1  0.20409426  0.21577775  0.39855725  1
  N  N37  1  0.10906310  0.09758217  0.13551700  1
  N  N38  1  0.89674932  0.20162022  0.87758291  1
  N  N39  1  0.82445343  0.09591372  0.61506925  1
  N  N40  1  0.57001356  0.19217314  0.31087781  1
  N  N41  1  0.46654947  0.10885478  0.08364420  1
  N  N42  1  0.22608515  0.20458798  0.88304287  1
  N  N43  1  0.15239849  0.09968034  0.62084769  1
  N  N44  1  0.85910198  0.20247429  0.38240644  1
  N  N45  1  0.76816245  0.10125253  0.14172359  1
  N  N46  1  0.55795262  0.20277411  0.80168400  1
  N  N47  1  0.48570584  0.10317043  0.58157569  1
  N  N48  1  0.21825712  0.54047351  0.37046629  1
  N  N49  1  0.10937945  0.42816856  0.12808656  1
  N  N50  1  0.89186984  0.53366541  0.86794473  1
  N  N51  1  0.78159022  0.39855247  0.60789078  1
  N  N52  1  0.54731064  0.54231779  0.37233207  1
  N  N53  1  0.45462278  0.40645937  0.11809332  1
  N  N54  1  0.22109503  0.53730726  0.87141420  1
  N  N55  1  0.11372478  0.40353924  0.61592832  1
  N  N56  1  0.88117126  0.54315968  0.37208306  1
  N  N57  1  0.77643430  0.42786118  0.12511419  1
  N  N58  1  0.56081322  0.53570411  0.87148634  1
  N  N59  1  0.44134114  0.41137210  0.61957760  1
  N  N60  1  0.21763539  0.87393872  0.37606811  1
  N  N61  1  0.11113653  0.76028577  0.12099115  1
  N  N62  1  0.88735965  0.87806637  0.87392724  1
  N  N63  1  0.78846066  0.75503693  0.62170787  1
  N  N64  1  0.55041369  0.87460660  0.37738794  1
  N  N65  1  0.44331609  0.76086469  0.12335251  1
  N  N66  1  0.22391467  0.87337809  0.87181236  1
  N  N67  1  0.11496915  0.75611498  0.62036804  1
  N  N68  1  0.87195959  0.90035909  0.36231450  1
  N  N69  1  0.78047408  0.75859742  0.12387731  1
  N  N70  1  0.56240495  0.86688515  0.87489626  1
  N  N71  1  0.45200663  0.75257803  0.62475728  1
