# generated using pymatgen
data_Al31B5N36
_symmetry_space_group_name_H-M   'P 1'
_cell_length_a   9.29294199
_cell_length_b   9.16151939
_cell_length_c   9.92585392
_cell_angle_alpha   90.05497793
_cell_angle_beta   89.58282001
_cell_angle_gamma   60.33465192
_symmetry_Int_Tables_number   1
_chemical_formula_structural   Al31B5N36
_chemical_formula_sum   'Al31 B5 N36'
_cell_volume   734.27104524
_cell_formula_units_Z   1
loop_
 _symmetry_equiv_pos_site_id
 _symmetry_equiv_pos_as_xyz
  1  'x, y, z'
loop_
 _atom_site_type_symbol
 _atom_site_label
 _atom_site_symmetry_multiplicity
 _atom_site_fract_x
 _atom_site_fract_y
 _atom_site_fract_z
 _atom_site_occupancy
  Al  Al0  1  0.09966832  0.09880541  0.32179937  1
  Al  Al1  1  0.23735639  0.20275495  0.06376790  1
  Al  Al2  1  0.78869413  0.09430546  0.80029978  1
  Al  Al3  1  0.44679403  0.10785389  0.39516936  1
  Al  Al4  1  0.11592628  0.09697040  0.80435130  1
  Al  Al5  1  0.88713955  0.20387896  0.06485474  1
  Al  Al6  1  0.44352968  0.09069050  0.80157309  1
  Al  Al7  1  0.10656870  0.42958645  0.30970715  1
  Al  Al8  1  0.22853506  0.53086611  0.05955058  1
  Al  Al9  1  0.78077485  0.41729317  0.80321565  1
  Al  Al10  1  0.88918426  0.52791265  0.55433023  1
  Al  Al11  1  0.44381344  0.43037258  0.30804659  1
  Al  Al12  1  0.55761267  0.53176722  0.06006904  1
  Al  Al13  1  0.11351667  0.41908811  0.80663614  1
  Al  Al14  1  0.22354116  0.52749732  0.55674391  1
  Al  Al15  1  0.77007960  0.42921227  0.30958795  1
  Al  Al16  1  0.88985286  0.53616252  0.05784689  1
  Al  Al17  1  0.44131029  0.43170011  0.80979934  1
  Al  Al18  1  0.55257389  0.53077551  0.55521395  1
  Al  Al19  1  0.10483201  0.76828779  0.30752779  1
  Al  Al20  1  0.22185912  0.87598745  0.06024356  1
  Al  Al21  1  0.78250724  0.75890194  0.80874314  1
  Al  Al22  1  0.88691638  0.88397162  0.55084252  1
  Al  Al23  1  0.44027690  0.76996296  0.30732179  1
  Al  Al24  1  0.55676442  0.88371225  0.05857769  1
  Al  Al25  1  0.11013126  0.76223489  0.80822749  1
  Al  Al26  1  0.22752857  0.87648834  0.55977070  1
  Al  Al27  1  0.76937202  0.77244216  0.30662512  1
  Al  Al28  1  0.88421833  0.87940452  0.06314243  1
  Al  Al29  1  0.44657962  0.75826071  0.81136042  1
  Al  Al30  1  0.56863431  0.86327817  0.56634689  1
  B  B31  1  0.82581357  0.22682128  0.53450219  1
  B  B32  1  0.55551237  0.19571432  0.15383987  1
  B  B33  1  0.16596192  0.22917400  0.54956008  1
  B  B34  1  0.77331687  0.09440969  0.30491489  1
  B  B35  1  0.54605054  0.21359676  0.64307455  1
  N  N36  1  0.20540318  0.21536956  0.39665596  1
  N  N37  1  0.11032546  0.09953913  0.12861089  1
  N  N38  1  0.89570919  0.20058902  0.87300292  1
  N  N39  1  0.78617283  0.11183460  0.60834130  1
  N  N40  1  0.57434030  0.19497772  0.31862628  1
  N  N41  1  0.46072821  0.10830423  0.10838071  1
  N  N42  1  0.22894594  0.20151090  0.87183199  1
  N  N43  1  0.14430187  0.10071787  0.61608044  1
  N  N44  1  0.86202063  0.20198243  0.38057605  1
  N  N45  1  0.76781200  0.10124126  0.14058685  1
  N  N46  1  0.56117920  0.20247770  0.80247889  1
  N  N47  1  0.48261884  0.09848104  0.59564746  1
  N  N48  1  0.21912482  0.54035179  0.36701914  1
  N  N49  1  0.11018140  0.42689359  0.12025072  1
  N  N50  1  0.89032934  0.53282533  0.86342247  1
  N  N51  1  0.78208226  0.39807085  0.60307513  1
  N  N52  1  0.54912014  0.54539022  0.36673390  1
  N  N53  1  0.45387228  0.40742985  0.11708737  1
  N  N54  1  0.22070227  0.53697544  0.86574910  1
  N  N55  1  0.11427159  0.40248872  0.61223285  1
  N  N56  1  0.88354939  0.54298124  0.36570496  1
  N  N57  1  0.77672371  0.42753565  0.12046557  1
  N  N58  1  0.55993467  0.53367303  0.86751843  1
  N  N59  1  0.44852527  0.40879491  0.61263557  1
  N  N60  1  0.21982467  0.87411827  0.37009409  1
  N  N61  1  0.11148811  0.76060534  0.11660579  1
  N  N62  1  0.88842844  0.87614289  0.86932785  1
  N  N63  1  0.79148057  0.75195583  0.61727880  1
  N  N64  1  0.55321367  0.87385310  0.37625574  1
  N  N65  1  0.44506389  0.76388910  0.11534302  1
  N  N66  1  0.22316106  0.87292324  0.86714475  1
  N  N67  1  0.11220446  0.76003061  0.61534236  1
  N  N68  1  0.87333492  0.90006948  0.35897473  1
  N  N69  1  0.77753531  0.76092644  0.11602767  1
  N  N70  1  0.55918435  0.87021133  0.86328876  1
  N  N71  1  0.45118284  0.75304192  0.62083385  1
