# generated using pymatgen
data_Al31B5N36
_symmetry_space_group_name_H-M   'P 1'
_cell_length_a   9.31460347
_cell_length_b   9.17297551
_cell_length_c   9.95195812
_cell_angle_alpha   90.27619105
_cell_angle_beta   89.91489952
_cell_angle_gamma   60.35409068
_symmetry_Int_Tables_number   1
_chemical_formula_structural   Al31B5N36
_chemical_formula_sum   'Al31 B5 N36'
_cell_volume   738.99751782
_cell_formula_units_Z   1
loop_
 _symmetry_equiv_pos_site_id
 _symmetry_equiv_pos_as_xyz
  1  'x, y, z'
loop_
 _atom_site_type_symbol
 _atom_site_label
 _atom_site_symmetry_multiplicity
 _atom_site_fract_x
 _atom_site_fract_y
 _atom_site_fract_z
 _atom_site_occupancy
  Al  Al0  1  0.09696012  0.09855172  0.33580793  1
  Al  Al1  1  0.22351933  0.20757626  0.07928123  1
  Al  Al2  1  0.79081105  0.09510462  0.80560579  1
  Al  Al3  1  0.44922842  0.10481173  0.40480803  1
  Al  Al4  1  0.11934721  0.09738014  0.81486664  1
  Al  Al5  1  0.88659113  0.20467376  0.07489533  1
  Al  Al6  1  0.45806339  0.09722308  0.89422625  1
  Al  Al7  1  0.10410049  0.42998840  0.32404284  1
  Al  Al8  1  0.22679458  0.53149487  0.07091075  1
  Al  Al9  1  0.78223023  0.41728391  0.81405259  1
  Al  Al10  1  0.88663381  0.52903339  0.56753281  1
  Al  Al11  1  0.44172382  0.42864717  0.31759946  1
  Al  Al12  1  0.55806290  0.53102921  0.06981725  1
  Al  Al13  1  0.11615856  0.41690533  0.81746400  1
  Al  Al14  1  0.22018793  0.52948956  0.56713175  1
  Al  Al15  1  0.76813687  0.42871987  0.32172066  1
  Al  Al16  1  0.88959916  0.53591293  0.06888758  1
  Al  Al17  1  0.44058304  0.43523858  0.82161470  1
  Al  Al18  1  0.55265218  0.52789126  0.56793893  1
  Al  Al19  1  0.10283930  0.76848963  0.31855442  1
  Al  Al20  1  0.21970170  0.87539251  0.07085422  1
  Al  Al21  1  0.78474546  0.75852675  0.82119045  1
  Al  Al22  1  0.89060098  0.88227909  0.56176104  1
  Al  Al23  1  0.43602894  0.76607813  0.32339397  1
  Al  Al24  1  0.55719882  0.87621023  0.10409674  1
  Al  Al25  1  0.10938200  0.76268420  0.81910987  1
  Al  Al26  1  0.22568225  0.87679456  0.57254575  1
  Al  Al27  1  0.77201277  0.76943884  0.32287164  1
  Al  Al28  1  0.88405452  0.87902840  0.07323391  1
  Al  Al29  1  0.44541249  0.76057579  0.82285329  1
  Al  Al30  1  0.55987288  0.87744053  0.60643626  1
  B  B31  1  0.83229281  0.22211827  0.54666452  1
  B  B32  1  0.55942158  0.19941976  0.15831171  1
  B  B33  1  0.16933983  0.22827271  0.56031386  1
  B  B34  1  0.77231364  0.09419185  0.31395017  1
  B  B35  1  0.50765609  0.22504536  0.66034521  1
  N  N36  1  0.20522447  0.21475823  0.40579567  1
  N  N37  1  0.10876436  0.09779681  0.14262487  1
  N  N38  1  0.89677584  0.20146088  0.88471793  1
  N  N39  1  0.82407203  0.09622281  0.62234981  1
  N  N40  1  0.57043983  0.19265522  0.31877493  1
  N  N41  1  0.46525825  0.11089707  0.09139232  1
  N  N42  1  0.22682898  0.20368526  0.89038525  1
  N  N43  1  0.15311251  0.09925768  0.62808919  1
  N  N44  1  0.85938092  0.20246930  0.38947129  1
  N  N45  1  0.76762153  0.10191442  0.14853512  1
  N  N46  1  0.55742715  0.20270847  0.80981514  1
  N  N47  1  0.48642943  0.10407854  0.58810395  1
  N  N48  1  0.21809289  0.54041043  0.37751534  1
  N  N49  1  0.10881877  0.42859960  0.13524850  1
  N  N50  1  0.89274389  0.53226121  0.87509162  1
  N  N51  1  0.78146763  0.39864428  0.61506343  1
  N  N52  1  0.54748334  0.54144696  0.37949145  1
  N  N53  1  0.45450088  0.40656831  0.12532231  1
  N  N54  1  0.22086988  0.53713048  0.87852216  1
  N  N55  1  0.11393060  0.40306153  0.62302397  1
  N  N56  1  0.88221937  0.54157698  0.37935349  1
  N  N57  1  0.77601020  0.42830746  0.13217927  1
  N  N58  1  0.56093309  0.53470937  0.87843111  1
  N  N59  1  0.44133188  0.41137556  0.62675081  1
  N  N60  1  0.21641398  0.87396920  0.38335660  1
  N  N61  1  0.11040843  0.76052892  0.12806487  1
  N  N62  1  0.88791456  0.87818133  0.88107856  1
  N  N63  1  0.79051384  0.75434878  0.62814838  1
  N  N64  1  0.54850912  0.87804239  0.36546417  1
  N  N65  1  0.44073605  0.75973170  0.12940471  1
  N  N66  1  0.22273635  0.87337664  0.87877329  1
  N  N67  1  0.11469424  0.75598630  0.62734668  1
  N  N68  1  0.87240768  0.90055572  0.36961886  1
  N  N69  1  0.78213300  0.75813036  0.13042247  1
  N  N70  1  0.56100914  0.86996819  0.86416256  1
  N  N71  1  0.45011827  0.75188384  0.63091064  1
