# generated using pymatgen
data_Al31B5N36
_symmetry_space_group_name_H-M   'P 1'
_cell_length_a   9.34993147
_cell_length_b   9.16920249
_cell_length_c   9.85774491
_cell_angle_alpha   89.99148648
_cell_angle_beta   90.36689338
_cell_angle_gamma   60.41767436
_symmetry_Int_Tables_number   1
_chemical_formula_structural   Al31B5N36
_chemical_formula_sum   'Al31 B5 N36'
_cell_volume   734.93452414
_cell_formula_units_Z   1
loop_
 _symmetry_equiv_pos_site_id
 _symmetry_equiv_pos_as_xyz
  1  'x, y, z'
loop_
 _atom_site_type_symbol
 _atom_site_label
 _atom_site_symmetry_multiplicity
 _atom_site_fract_x
 _atom_site_fract_y
 _atom_site_fract_z
 _atom_site_occupancy
  Al  Al0  1  0.11424122  0.09529712  0.34483259  1
  Al  Al1  1  0.22222443  0.20784658  0.12445600  1
  Al  Al2  1  0.76172764  0.10125185  0.88936529  1
  Al  Al3  1  0.44813012  0.10441812  0.38881897  1
  Al  Al4  1  0.10870460  0.10796457  0.81171976  1
  Al  Al5  1  0.87312423  0.20453748  0.15176820  1
  Al  Al6  1  0.43946142  0.09753429  0.90316397  1
  Al  Al7  1  0.11369499  0.42297266  0.39620413  1
  Al  Al8  1  0.22234727  0.53732817  0.15325183  1
  Al  Al9  1  0.77473755  0.42581085  0.89729063  1
  Al  Al10  1  0.89429431  0.52307036  0.64946045  1
  Al  Al11  1  0.45024543  0.41397933  0.39442156  1
  Al  Al12  1  0.55481851  0.53222641  0.14946232  1
  Al  Al13  1  0.10409819  0.43239800  0.90727851  1
  Al  Al14  1  0.22172253  0.53023189  0.65217208  1
  Al  Al15  1  0.77720407  0.41654348  0.40415537  1
  Al  Al16  1  0.88490731  0.54047683  0.15534993  1
  Al  Al17  1  0.43820052  0.42625623  0.90216775  1
  Al  Al18  1  0.55665618  0.52514568  0.65391144  1
  Al  Al19  1  0.11421091  0.76180314  0.40232841  1
  Al  Al20  1  0.22273846  0.86926043  0.15010978  1
  Al  Al21  1  0.77524905  0.76258338  0.90132469  1
  Al  Al22  1  0.89583922  0.87548968  0.64796457  1
  Al  Al23  1  0.45251836  0.75610648  0.40042330  1
  Al  Al24  1  0.55549540  0.88010300  0.15223023  1
  Al  Al25  1  0.10548281  0.76860406  0.90017455  1
  Al  Al26  1  0.23676550  0.86599930  0.63950749  1
  Al  Al27  1  0.77804193  0.77010218  0.40404182  1
  Al  Al28  1  0.87739211  0.88933102  0.15349556  1
  Al  Al29  1  0.43771813  0.76587268  0.89928417  1
  Al  Al30  1  0.55450558  0.87892625  0.65100387  1
  B  B31  1  0.83627212  0.22549834  0.65148439  1
  B  B32  1  0.54778033  0.20836984  0.15531298  1
  B  B33  1  0.23219837  0.20464694  0.60704706  1
  B  B34  1  0.83569370  0.07668719  0.42106890  1
  B  B35  1  0.48804738  0.23786846  0.66459236  1
  N  N36  1  0.22943825  0.20770948  0.33329889  1
  N  N37  1  0.09930495  0.09725837  0.13547451  1
  N  N38  1  0.86969956  0.20983555  0.80650663  1
  N  N39  1  0.82460037  0.09300196  0.57312249  1
  N  N40  1  0.55202342  0.20889036  0.31206233  1
  N  N41  1  0.45959581  0.10741141  0.09505925  1
  N  N42  1  0.21554902  0.20531677  0.89107973  1
  N  N43  1  0.16109210  0.09701234  0.61795694  1
  N  N44  1  0.88071283  0.19166853  0.34771066  1
  N  N45  1  0.74492267  0.11308583  0.08388591  1
  N  N46  1  0.53935125  0.21052082  0.81201414  1
  N  N47  1  0.42898077  0.12513993  0.59686210  1
  N  N48  1  0.22202472  0.54013772  0.34556600  1
  N  N49  1  0.09986171  0.44103682  0.09783214  1
  N  N50  1  0.88610899  0.53767193  0.84029675  1
  N  N51  1  0.78149472  0.40051497  0.59663066  1
  N  N52  1  0.55870174  0.53278840  0.34314544  1
  N  N53  1  0.44897054  0.40781979  0.09414934  1
  N  N54  1  0.21726842  0.54113174  0.84322529  1
  N  N55  1  0.12537618  0.39776944  0.59425164  1
  N  N56  1  0.88647447  0.53807213  0.35048528  1
  N  N57  1  0.77532057  0.42687335  0.09032585  1
  N  N58  1  0.55096422  0.53739422  0.84444391  1
  N  N59  1  0.44948482  0.39978289  0.59597450  1
  N  N60  1  0.23285766  0.86293140  0.34749504  1
  N  N61  1  0.10382522  0.76566285  0.09379005  1
  N  N62  1  0.88413646  0.87651899  0.83947185  1
  N  N63  1  0.78130498  0.75984943  0.59488849  1
  N  N64  1  0.55825148  0.87475514  0.34597579  1
  N  N65  1  0.44318723  0.76289490  0.09249924  1
  N  N66  1  0.21945550  0.87302308  0.83443575  1
  N  N67  1  0.11885456  0.75305310  0.59249760  1
  N  N68  1  0.88462375  0.90100091  0.35416667  1
  N  N69  1  0.77588017  0.76488631  0.09649391  1
  N  N70  1  0.55349670  0.87457145  0.84226201  1
  N  N71  1  0.45970939  0.74744138  0.59165280  1
