# generated using pymatgen
data_Al31B5N36
_symmetry_space_group_name_H-M   'P 1'
_cell_length_a   9.31197377
_cell_length_b   9.20474804
_cell_length_c   9.98675629
_cell_angle_alpha   89.97480541
_cell_angle_beta   90.30876344
_cell_angle_gamma   60.05746261
_symmetry_Int_Tables_number   1
_chemical_formula_structural   Al31B5N36
_chemical_formula_sum   'Al31 B5 N36'
_cell_volume   741.73841695
_cell_formula_units_Z   1
loop_
 _symmetry_equiv_pos_site_id
 _symmetry_equiv_pos_as_xyz
  1  'x, y, z'
loop_
 _atom_site_type_symbol
 _atom_site_label
 _atom_site_symmetry_multiplicity
 _atom_site_fract_x
 _atom_site_fract_y
 _atom_site_fract_z
 _atom_site_occupancy
  Al  Al0  1  0.09826017  0.09812817  0.33066637  1
  Al  Al1  1  0.22334019  0.20704798  0.07422886  1
  Al  Al2  1  0.78614137  0.09725351  0.80351164  1
  Al  Al3  1  0.45038321  0.10077171  0.40151033  1
  Al  Al4  1  0.11055028  0.10038555  0.81121911  1
  Al  Al5  1  0.88539832  0.20591386  0.07526054  1
  Al  Al6  1  0.45761496  0.09342332  0.88941403  1
  Al  Al7  1  0.10692934  0.42944257  0.32351689  1
  Al  Al8  1  0.22172447  0.53414212  0.07350544  1
  Al  Al9  1  0.78824419  0.41675016  0.81676455  1
  Al  Al10  1  0.88557511  0.53285271  0.56776505  1
  Al  Al11  1  0.45415898  0.41278679  0.38849244  1
  Al  Al12  1  0.55256659  0.53052279  0.13923740  1
  Al  Al13  1  0.11863446  0.41666873  0.81701627  1
  Al  Al14  1  0.21536611  0.53187373  0.56885975  1
  Al  Al15  1  0.77853272  0.42309382  0.32736498  1
  Al  Al16  1  0.88792143  0.53783163  0.06992459  1
  Al  Al17  1  0.45611147  0.41655978  0.89002284  1
  Al  Al18  1  0.55353181  0.52419655  0.63092266  1
  Al  Al19  1  0.10382464  0.76770280  0.31727133  1
  Al  Al20  1  0.21898341  0.87610593  0.06701303  1
  Al  Al21  1  0.78851551  0.75686848  0.82080762  1
  Al  Al22  1  0.88918301  0.88463169  0.56161614  1
  Al  Al23  1  0.43232928  0.76859525  0.32729377  1
  Al  Al24  1  0.55180377  0.88496660  0.13735182  1
  Al  Al25  1  0.10964169  0.76094970  0.81781126  1
  Al  Al26  1  0.21936750  0.88078322  0.56934170  1
  Al  Al27  1  0.77744967  0.76776042  0.32241323  1
  Al  Al28  1  0.88211597  0.88028820  0.07199827  1
  Al  Al29  1  0.43894159  0.76392942  0.82031588  1
  Al  Al30  1  0.55751734  0.88382687  0.63555883  1
  B  B31  1  0.85185394  0.21592748  0.55187438  1
  B  B32  1  0.55754073  0.20450862  0.15134116  1
  B  B33  1  0.16310157  0.23147700  0.55758222  1
  B  B34  1  0.77314654  0.09388539  0.31183167  1
  B  B35  1  0.50463750  0.22841250  0.65075791  1
  N  N36  1  0.20442894  0.21415527  0.40541252  1
  N  N37  1  0.11064976  0.09698927  0.13903858  1
  N  N38  1  0.89139825  0.20221665  0.88654236  1
  N  N39  1  0.82882622  0.09502973  0.62409684  1
  N  N40  1  0.56494347  0.19839375  0.31190467  1
  N  N41  1  0.46667220  0.10938945  0.08393892  1
  N  N42  1  0.22434195  0.20092143  0.88574882  1
  N  N43  1  0.12994389  0.10992852  0.62154369  1
  N  N44  1  0.86655351  0.19875616  0.39069710  1
  N  N45  1  0.76838270  0.10201859  0.14846201  1
  N  N46  1  0.54746630  0.21072690  0.80138333  1
  N  N47  1  0.48747189  0.10090077  0.58326692  1
  N  N48  1  0.21607412  0.54225725  0.37815723  1
  N  N49  1  0.11069737  0.42606120  0.13551083  1
  N  N50  1  0.89456512  0.53266547  0.87721711  1
  N  N51  1  0.79012071  0.39710420  0.61500175  1
  N  N52  1  0.54854103  0.53742819  0.33891683  1
  N  N53  1  0.46461839  0.39461456  0.08446712  1
  N  N54  1  0.22068244  0.53698998  0.87918667  1
  N  N55  1  0.11506309  0.40230020  0.62299823  1
  N  N56  1  0.88453822  0.54283284  0.38056390  1
  N  N57  1  0.78272392  0.42553911  0.13449944  1
  N  N58  1  0.55771491  0.53159282  0.82909903  1
  N  N59  1  0.45219992  0.39704808  0.58333749  1
  N  N60  1  0.21413819  0.87517806  0.38162384  1
  N  N61  1  0.11028244  0.76160797  0.12750868  1
  N  N62  1  0.88595599  0.87986671  0.88073667  1
  N  N63  1  0.79237748  0.75549792  0.62676206  1
  N  N64  1  0.54621598  0.88458275  0.33616717  1
  N  N65  1  0.43814192  0.76467486  0.12370975  1
  N  N66  1  0.21836632  0.87603914  0.87525921  1
  N  N67  1  0.11521644  0.75530419  0.62722445  1
  N  N68  1  0.87184071  0.90223260  0.36962959  1
  N  N69  1  0.78247450  0.75902321  0.12904097  1
  N  N70  1  0.55821502  0.87442204  0.83423217  1
  N  N71  1  0.44432794  0.76117373  0.61968801  1
