# generated using pymatgen
data_Al31B5N36
_symmetry_space_group_name_H-M   'P 1'
_cell_length_a   9.32242339
_cell_length_b   9.17942507
_cell_length_c   9.96151900
_cell_angle_alpha   90.11044482
_cell_angle_beta   89.88522759
_cell_angle_gamma   60.26331636
_symmetry_Int_Tables_number   1
_chemical_formula_structural   Al31B5N36
_chemical_formula_sum   'Al31 B5 N36'
_cell_volume   740.19032711
_cell_formula_units_Z   1
loop_
 _symmetry_equiv_pos_site_id
 _symmetry_equiv_pos_as_xyz
  1  'x, y, z'
loop_
 _atom_site_type_symbol
 _atom_site_label
 _atom_site_symmetry_multiplicity
 _atom_site_fract_x
 _atom_site_fract_y
 _atom_site_fract_z
 _atom_site_occupancy
  Al  Al0  1  0.09663412  0.09946757  0.33539310  1
  Al  Al1  1  0.22331141  0.20809558  0.07792207  1
  Al  Al2  1  0.79081091  0.09465883  0.80463658  1
  Al  Al3  1  0.45123481  0.10195562  0.40537194  1
  Al  Al4  1  0.11888001  0.09693294  0.81431256  1
  Al  Al5  1  0.88661076  0.20543631  0.07463222  1
  Al  Al6  1  0.45996609  0.09197022  0.89470663  1
  Al  Al7  1  0.10456790  0.42923954  0.32430607  1
  Al  Al8  1  0.22441552  0.53358198  0.07321292  1
  Al  Al9  1  0.78266852  0.41674682  0.81370204  1
  Al  Al10  1  0.88647251  0.52931274  0.56780207  1
  Al  Al11  1  0.44174840  0.42810600  0.31863401  1
  Al  Al12  1  0.55884917  0.53439978  0.07186281  1
  Al  Al13  1  0.11738055  0.41549949  0.81730458  1
  Al  Al14  1  0.22134407  0.52856394  0.56703399  1
  Al  Al15  1  0.76849293  0.42879484  0.32199142  1
  Al  Al16  1  0.88872180  0.53751938  0.06895354  1
  Al  Al17  1  0.44295005  0.42997176  0.83323189  1
  Al  Al18  1  0.55225099  0.52714698  0.56856813  1
  Al  Al19  1  0.10175334  0.77015436  0.31821839  1
  Al  Al20  1  0.21941390  0.87615093  0.07011569  1
  Al  Al21  1  0.78895633  0.75572289  0.82043665  1
  Al  Al22  1  0.89044566  0.88185417  0.56156609  1
  Al  Al23  1  0.43349586  0.76507771  0.32390371  1
  Al  Al24  1  0.55203556  0.88547264  0.14014200  1
  Al  Al25  1  0.11013829  0.76131780  0.81840432  1
  Al  Al26  1  0.22569691  0.87637882  0.57246285  1
  Al  Al27  1  0.77661578  0.76710654  0.32357835  1
  Al  Al28  1  0.88245626  0.87999217  0.07212433  1
  Al  Al29  1  0.44387013  0.75751894  0.82160297  1
  Al  Al30  1  0.55742114  0.88307014  0.63780990  1
  B  B31  1  0.83262533  0.22184649  0.54644252  1
  B  B32  1  0.55911801  0.20122237  0.15594816  1
  B  B33  1  0.16974639  0.22773849  0.56037959  1
  B  B34  1  0.77135203  0.09490570  0.31266184  1
  B  B35  1  0.50668971  0.22567510  0.65893574  1
  N  N36  1  0.20613734  0.21392441  0.40612596  1
  N  N37  1  0.10894918  0.09838495  0.14223254  1
  N  N38  1  0.89635976  0.20089680  0.88450775  1
  N  N39  1  0.82572013  0.09524459  0.62202592  1
  N  N40  1  0.56944559  0.19290687  0.31684639  1
  N  N41  1  0.46605353  0.11076276  0.08824111  1
  N  N42  1  0.22749207  0.20178701  0.88973080  1
  N  N43  1  0.15350023  0.09869374  0.62808147  1
  N  N44  1  0.85905065  0.20285295  0.38909413  1
  N  N45  1  0.76718480  0.10295525  0.14744516  1
  N  N46  1  0.55717734  0.20040072  0.80920750  1
  N  N47  1  0.48923772  0.10172975  0.58643553  1
  N  N48  1  0.21711498  0.54138663  0.37654345  1
  N  N49  1  0.10848433  0.42834118  0.13570480  1
  N  N50  1  0.89349254  0.53098562  0.87509618  1
  N  N51  1  0.78179958  0.39827472  0.61494223  1
  N  N52  1  0.54770624  0.54136342  0.37909947  1
  N  N53  1  0.45499465  0.40709155  0.12267377  1
  N  N54  1  0.22006041  0.53656091  0.88064972  1
  N  N55  1  0.11458139  0.40232496  0.62288709  1
  N  N56  1  0.88249340  0.54102694  0.37975552  1
  N  N57  1  0.77702726  0.42857283  0.13289833  1
  N  N58  1  0.56239823  0.53407141  0.88024248  1
  N  N59  1  0.44249804  0.40940335  0.62543581  1
  N  N60  1  0.21519588  0.87498730  0.38350815  1
  N  N61  1  0.10885276  0.76272957  0.12813020  1
  N  N62  1  0.88830727  0.87760776  0.88027411  1
  N  N63  1  0.79189675  0.75372546  0.62598990  1
  N  N64  1  0.54586269  0.88379526  0.33903915  1
  N  N65  1  0.43925147  0.76159551  0.12817257  1
  N  N66  1  0.22240641  0.87263194  0.87813822  1
  N  N67  1  0.11519695  0.75496154  0.62696879  1
  N  N68  1  0.87168225  0.90169488  0.36945569  1
  N  N69  1  0.78157236  0.75912880  0.12889680  1
  N  N70  1  0.55920348  0.87295197  0.83689624  1
  N  N71  1  0.44974197  0.75128471  0.62788249  1
