# generated using pymatgen
data_Al31B5N36
_symmetry_space_group_name_H-M   'P 1'
_cell_length_a   9.28152444
_cell_length_b   9.16326550
_cell_length_c   10.14356517
_cell_angle_alpha   89.51380360
_cell_angle_beta   90.23654072
_cell_angle_gamma   59.95132371
_symmetry_Int_Tables_number   1
_chemical_formula_structural   Al31B5N36
_chemical_formula_sum   'Al31 B5 N36'
_cell_volume   746.69222913
_cell_formula_units_Z   1
loop_
 _symmetry_equiv_pos_site_id
 _symmetry_equiv_pos_as_xyz
  1  'x, y, z'
loop_
 _atom_site_type_symbol
 _atom_site_label
 _atom_site_symmetry_multiplicity
 _atom_site_fract_x
 _atom_site_fract_y
 _atom_site_fract_z
 _atom_site_occupancy
  Al  Al0  1  0.11048557  0.09042830  0.32644718  1
  Al  Al1  1  0.22022837  0.21042955  0.07297409  1
  Al  Al2  1  0.77368088  0.09516474  0.82545175  1
  Al  Al3  1  0.45947735  0.09530198  0.39852732  1
  Al  Al4  1  0.12036399  0.09854563  0.80266845  1
  Al  Al5  1  0.87215440  0.20668239  0.13549207  1
  Al  Al6  1  0.45265856  0.09530961  0.88829818  1
  Al  Al7  1  0.11424390  0.42464361  0.32661256  1
  Al  Al8  1  0.21759420  0.53818187  0.07251288  1
  Al  Al9  1  0.77968603  0.42945433  0.88969709  1
  Al  Al10  1  0.88555626  0.53045931  0.63626989  1
  Al  Al11  1  0.45851551  0.41094590  0.38503219  1
  Al  Al12  1  0.55386894  0.53451609  0.13925804  1
  Al  Al13  1  0.12370130  0.41676814  0.81526324  1
  Al  Al14  1  0.21980111  0.53094329  0.56740364  1
  Al  Al15  1  0.77622354  0.41046481  0.39542157  1
  Al  Al16  1  0.88028936  0.54094091  0.14388362  1
  Al  Al17  1  0.45308684  0.41804402  0.89087396  1
  Al  Al18  1  0.55330458  0.52994411  0.64176506  1
  Al  Al19  1  0.10317701  0.76946527  0.31766252  1
  Al  Al20  1  0.21174115  0.88137296  0.06717116  1
  Al  Al21  1  0.77710560  0.75466955  0.88697990  1
  Al  Al22  1  0.88405610  0.89540366  0.56947665  1
  Al  Al23  1  0.45180220  0.75514334  0.38788135  1
  Al  Al24  1  0.55451806  0.88103118  0.14064560  1
  Al  Al25  1  0.11051425  0.76137487  0.81410204  1
  Al  Al26  1  0.22466525  0.87774522  0.56907677  1
  Al  Al27  1  0.77068169  0.76294625  0.38974636  1
  Al  Al28  1  0.88135681  0.88440139  0.06260330  1
  Al  Al29  1  0.44666761  0.76128803  0.88746857  1
  Al  Al30  1  0.56165366  0.87903479  0.63927217  1
  B  B31  1  0.83548188  0.23650921  0.66021613  1
  B  B32  1  0.56141836  0.20326226  0.13037508  1
  B  B33  1  0.17804263  0.22444157  0.55680272  1
  B  B34  1  0.77187900  0.09409741  0.33857493  1
  B  B35  1  0.53069923  0.21851945  0.64365802  1
  N  N36  1  0.21142876  0.20925497  0.40473946  1
  N  N37  1  0.11139452  0.09814026  0.13762617  1
  N  N38  1  0.88377772  0.22114368  0.80819292  1
  N  N39  1  0.78715083  0.11302538  0.62853180  1
  N  N40  1  0.58022070  0.19064782  0.30743863  1
  N  N41  1  0.46178539  0.10897962  0.08201179  1
  N  N42  1  0.21892630  0.20465455  0.88825702  1
  N  N43  1  0.15682876  0.09609644  0.62196922  1
  N  N44  1  0.86721489  0.18861488  0.32784400  1
  N  N45  1  0.74462077  0.11570740  0.07697263  1
  N  N46  1  0.53935722  0.21431107  0.80089049  1
  N  N47  1  0.49697185  0.09591462  0.57805916  1
  N  N48  1  0.21756575  0.54254529  0.37971046  1
  N  N49  1  0.11438690  0.42562675  0.13944806  1
  N  N50  1  0.88889789  0.53812958  0.82388018  1
  N  N51  1  0.78373399  0.40064406  0.58563604  1
  N  N52  1  0.55654490  0.53397600  0.32761934  1
  N  N53  1  0.45838540  0.40217502  0.08376988  1
  N  N54  1  0.21825308  0.53992320  0.88090731  1
  N  N55  1  0.12439791  0.39704858  0.62086968  1
  N  N56  1  0.87867890  0.53529471  0.33544584  1
  N  N57  1  0.77658011  0.42821025  0.07597807  1
  N  N58  1  0.55431765  0.53789575  0.82897614  1
  N  N59  1  0.45856722  0.39935104  0.57993725  1
  N  N60  1  0.21882288  0.87038584  0.38128686  1
  N  N61  1  0.10446803  0.76653259  0.13037630  1
  N  N62  1  0.89263584  0.87049876  0.87298057  1
  N  N63  1  0.78644980  0.75382995  0.57698329  1
  N  N64  1  0.54982872  0.87765339  0.32755629  1
  N  N65  1  0.44646465  0.76200191  0.07888229  1
  N  N66  1  0.21196439  0.88083427  0.87583007  1
  N  N67  1  0.11392670  0.75989598  0.62649889  1
  N  N68  1  0.86905773  0.90640591  0.37129532  1
  N  N69  1  0.77367192  0.75864611  0.07837234  1
  N  N70  1  0.55538200  0.87383726  0.82670194  1
  N  N71  1  0.46154008  0.75139863  0.57774120  1
