# generated using pymatgen
data_Al31B5N36
_symmetry_space_group_name_H-M   'P 1'
_cell_length_a   9.28472800
_cell_length_b   9.16109586
_cell_length_c   10.16024567
_cell_angle_alpha   89.39979019
_cell_angle_beta   90.26460254
_cell_angle_gamma   60.02997125
_symmetry_Int_Tables_number   1
_chemical_formula_structural   Al31B5N36
_chemical_formula_sum   'Al31 B5 N36'
_cell_volume   748.56690077
_cell_formula_units_Z   1
loop_
 _symmetry_equiv_pos_site_id
 _symmetry_equiv_pos_as_xyz
  1  'x, y, z'
loop_
 _atom_site_type_symbol
 _atom_site_label
 _atom_site_symmetry_multiplicity
 _atom_site_fract_x
 _atom_site_fract_y
 _atom_site_fract_z
 _atom_site_occupancy
  Al  Al0  1  0.10985135  0.09050955  0.32667974  1
  Al  Al1  1  0.21991846  0.21053777  0.07318789  1
  Al  Al2  1  0.77732522  0.09242177  0.81191224  1
  Al  Al3  1  0.45795426  0.09582487  0.39849340  1
  Al  Al4  1  0.12044139  0.09875748  0.80340017  1
  Al  Al5  1  0.87178898  0.20714809  0.13640718  1
  Al  Al6  1  0.45363055  0.09445847  0.89000085  1
  Al  Al7  1  0.11342205  0.42504573  0.32605013  1
  Al  Al8  1  0.21752511  0.53819944  0.07241070  1
  Al  Al9  1  0.77944949  0.42978757  0.89034157  1
  Al  Al10  1  0.88457004  0.53238676  0.63648827  1
  Al  Al11  1  0.45773014  0.41068184  0.38543170  1
  Al  Al12  1  0.55364352  0.53443563  0.14006182  1
  Al  Al13  1  0.12295572  0.41731037  0.81572810  1
  Al  Al14  1  0.21772598  0.53199421  0.56630830  1
  Al  Al15  1  0.77638280  0.41061014  0.39564682  1
  Al  Al16  1  0.87988290  0.54152302  0.14365082  1
  Al  Al17  1  0.45403338  0.41718878  0.89208612  1
  Al  Al18  1  0.55430341  0.52804092  0.64265286  1
  Al  Al19  1  0.10338212  0.76944941  0.31611410  1
  Al  Al20  1  0.21152391  0.88159192  0.06674882  1
  Al  Al21  1  0.77694104  0.75539732  0.88751907  1
  Al  Al22  1  0.88982058  0.89169218  0.56545617  1
  Al  Al23  1  0.45123294  0.75497524  0.38894971  1
  Al  Al24  1  0.55435469  0.88078396  0.14115754  1
  Al  Al25  1  0.11026730  0.76112768  0.81417266  1
  Al  Al26  1  0.22445138  0.87774788  0.57002724  1
  Al  Al27  1  0.77032690  0.76314658  0.38879829  1
  Al  Al28  1  0.87999050  0.88654771  0.06236636  1
  Al  Al29  1  0.44665168  0.76085365  0.88774363  1
  Al  Al30  1  0.56164705  0.87837745  0.63994453  1
  B  B31  1  0.84330743  0.23485878  0.65841029  1
  B  B32  1  0.56152115  0.20262521  0.13313944  1
  B  B33  1  0.17599076  0.22561020  0.55697696  1
  B  B34  1  0.77233251  0.09372955  0.33719185  1
  B  B35  1  0.50802412  0.22729434  0.64673532  1
  N  N36  1  0.21031345  0.21003418  0.40520945  1
  N  N37  1  0.11119150  0.09792868  0.13785114  1
  N  N38  1  0.88410249  0.22302413  0.80903442  1
  N  N39  1  0.81235761  0.10238372  0.62453996  1
  N  N40  1  0.57881808  0.19101375  0.30913349  1
  N  N41  1  0.46140962  0.10886496  0.08295448  1
  N  N42  1  0.21978009  0.20472158  0.88859398  1
  N  N43  1  0.15949830  0.09566382  0.62320206  1
  N  N44  1  0.86724252  0.18930594  0.32840799  1
  N  N45  1  0.74428407  0.11475302  0.08450237  1
  N  N46  1  0.53909091  0.21408432  0.79891526  1
  N  N47  1  0.49427310  0.09718664  0.57902121  1
  N  N48  1  0.21713034  0.54261413  0.37911680  1
  N  N49  1  0.11394612  0.42568021  0.13929381  1
  N  N50  1  0.88839378  0.53936547  0.82399109  1
  N  N51  1  0.78416025  0.40209686  0.58524952  1
  N  N52  1  0.55596416  0.53391112  0.32868183  1
  N  N53  1  0.45836265  0.40187732  0.08454519  1
  N  N54  1  0.21884472  0.53929145  0.88131180  1
  N  N55  1  0.12315183  0.39798024  0.62094957  1
  N  N56  1  0.87818128  0.53596770  0.33482187  1
  N  N57  1  0.77593656  0.42877393  0.07648522  1
  N  N58  1  0.55432322  0.53753345  0.82943479  1
  N  N59  1  0.45566723  0.39930334  0.58108686  1
  N  N60  1  0.21824677  0.87048732  0.38215086  1
  N  N61  1  0.10428151  0.76660721  0.12940312  1
  N  N62  1  0.89153627  0.87246345  0.87293295  1
  N  N63  1  0.78569407  0.75577743  0.57611703  1
  N  N64  1  0.54890748  0.87809338  0.32822544  1
  N  N65  1  0.44624093  0.76192930  0.07909326  1
  N  N66  1  0.21218085  0.88050246  0.87567557  1
  N  N67  1  0.11674301  0.75638474  0.62680658  1
  N  N68  1  0.86975763  0.90521125  0.36909265  1
  N  N69  1  0.77313821  0.75931610  0.07825633  1
  N  N70  1  0.55534340  0.87390388  0.82701650  1
  N  N71  1  0.46171696  0.75042682  0.57848335  1
