# generated using pymatgen
data_Al31B5N36
_symmetry_space_group_name_H-M   'P 1'
_cell_length_a   9.43599799
_cell_length_b   9.16103921
_cell_length_c   9.99279400
_cell_angle_alpha   90.13287816
_cell_angle_beta   90.48560640
_cell_angle_gamma   60.90493396
_symmetry_Int_Tables_number   1
_chemical_formula_structural   Al31B5N36
_chemical_formula_sum   'Al31 B5 N36'
_cell_volume   754.78288255
_cell_formula_units_Z   1
loop_
 _symmetry_equiv_pos_site_id
 _symmetry_equiv_pos_as_xyz
  1  'x, y, z'
loop_
 _atom_site_type_symbol
 _atom_site_label
 _atom_site_symmetry_multiplicity
 _atom_site_fract_x
 _atom_site_fract_y
 _atom_site_fract_z
 _atom_site_occupancy
  Al  Al0  1  0.12187416  0.08975165  0.33672350  1
  Al  Al1  1  0.21454626  0.21130373  0.08408383  1
  Al  Al2  1  0.77572860  0.09417302  0.88639744  1
  Al  Al3  1  0.45008131  0.09968876  0.41279051  1
  Al  Al4  1  0.11351066  0.09801427  0.81304955  1
  Al  Al5  1  0.88226817  0.20216307  0.15139888  1
  Al  Al6  1  0.44653841  0.09716490  0.89762227  1
  Al  Al7  1  0.10452466  0.43101427  0.36442401  1
  Al  Al8  1  0.22367721  0.53566494  0.15885400  1
  Al  Al9  1  0.77457770  0.42301717  0.89887075  1
  Al  Al10  1  0.88328575  0.53050043  0.64979587  1
  Al  Al11  1  0.44493445  0.41876213  0.40288069  1
  Al  Al12  1  0.55502823  0.52958383  0.15206925  1
  Al  Al13  1  0.10593577  0.42533609  0.85454818  1
  Al  Al14  1  0.22724731  0.52146480  0.63970177  1
  Al  Al15  1  0.77618164  0.41599711  0.40504056  1
  Al  Al16  1  0.87933693  0.54401770  0.15524239  1
  Al  Al17  1  0.44082573  0.42193544  0.90264351  1
  Al  Al18  1  0.55468439  0.52676408  0.65603229  1
  Al  Al19  1  0.11177204  0.77203527  0.34260416  1
  Al  Al20  1  0.21208303  0.87846132  0.08215463  1
  Al  Al21  1  0.77749690  0.76421472  0.90402072  1
  Al  Al22  1  0.89023360  0.87733042  0.63924756  1
  Al  Al23  1  0.45848204  0.75287747  0.40095729  1
  Al  Al24  1  0.55198700  0.88323983  0.15416895  1
  Al  Al25  1  0.11226878  0.76404919  0.82783663  1
  Al  Al26  1  0.23025618  0.87497523  0.58196823  1
  Al  Al27  1  0.77393185  0.77357535  0.40508093  1
  Al  Al28  1  0.87628262  0.89284302  0.15153972  1
  Al  Al29  1  0.44690835  0.75981625  0.90205438  1
  Al  Al30  1  0.56463900  0.87449824  0.65488629  1
  B  B31  1  0.84092935  0.22735251  0.65167717  1
  B  B32  1  0.48582150  0.23708114  0.16557012  1
  B  B33  1  0.16745613  0.22674628  0.56625172  1
  B  B34  1  0.85426172  0.07136540  0.42519237  1
  B  B35  1  0.50830657  0.22369497  0.66573381  1
  N  N36  1  0.21314455  0.20811436  0.41776001  1
  N  N37  1  0.11685505  0.09552569  0.14915861  1
  N  N38  1  0.87485885  0.21048106  0.80347365  1
  N  N39  1  0.83864282  0.09192579  0.57141364  1
  N  N40  1  0.50642222  0.22678754  0.30760995  1
  N  N41  1  0.44926574  0.11211080  0.09173374  1
  N  N42  1  0.21530457  0.20458101  0.89610943  1
  N  N43  1  0.15864635  0.09435246  0.63393626  1
  N  N44  1  0.88633633  0.19071331  0.34565870  1
  N  N45  1  0.79256006  0.09301668  0.06790247  1
  N  N46  1  0.54796541  0.20955459  0.81737048  1
  N  N47  1  0.49982017  0.09247853  0.59560112  1
  N  N48  1  0.22168817  0.54338026  0.36063275  1
  N  N49  1  0.10366582  0.42925179  0.13891393  1
  N  N50  1  0.88092768  0.54021273  0.84298647  1
  N  N51  1  0.77834803  0.40276736  0.59629967  1
  N  N52  1  0.55844102  0.52938396  0.34362031  1
  N  N53  1  0.44161006  0.40853000  0.09493909  1
  N  N54  1  0.22583716  0.53178820  0.84086766  1
  N  N55  1  0.10874907  0.40367633  0.61766078  1
  N  N56  1  0.87646414  0.54412503  0.34916030  1
  N  N57  1  0.77515090  0.42560364  0.09064752  1
  N  N58  1  0.55231448  0.53511541  0.84593263  1
  N  N59  1  0.45354438  0.39666632  0.59788990  1
  N  N60  1  0.23049308  0.87186455  0.39271240  1
  N  N61  1  0.10750566  0.76644015  0.14646107  1
  N  N62  1  0.88371238  0.87229487  0.83044596  1
  N  N63  1  0.78368352  0.75423033  0.59189177  1
  N  N64  1  0.55509026  0.87839196  0.34429219  1
  N  N65  1  0.44624191  0.75905942  0.09528288  1
  N  N66  1  0.21456986  0.88024218  0.88880997  1
  N  N67  1  0.12224928  0.75683513  0.63208632  1
  N  N68  1  0.87907417  0.90718581  0.35889651  1
  N  N69  1  0.77353962  0.76853854  0.09696520  1
  N  N70  1  0.55630303  0.87280216  0.84531797  1
  N  N71  1  0.46290329  0.74830734  0.59430727  1
