# generated using pymatgen
data_Al31B5N36
_symmetry_space_group_name_H-M   'P 1'
_cell_length_a   9.42825370
_cell_length_b   9.14070485
_cell_length_c   9.96594278
_cell_angle_alpha   90.11386497
_cell_angle_beta   90.57327661
_cell_angle_gamma   61.02941277
_symmetry_Int_Tables_number   1
_chemical_formula_structural   Al31B5N36
_chemical_formula_sum   'Al31 B5 N36'
_cell_volume   751.35994894
_cell_formula_units_Z   1
loop_
 _symmetry_equiv_pos_site_id
 _symmetry_equiv_pos_as_xyz
  1  'x, y, z'
loop_
 _atom_site_type_symbol
 _atom_site_label
 _atom_site_symmetry_multiplicity
 _atom_site_fract_x
 _atom_site_fract_y
 _atom_site_fract_z
 _atom_site_occupancy
  Al  Al0  1  0.12046448  0.08784418  0.33826141  1
  Al  Al1  1  0.21725778  0.20682610  0.08260261  1
  Al  Al2  1  0.77359452  0.09578780  0.88658912  1
  Al  Al3  1  0.45221985  0.09883322  0.41035848  1
  Al  Al4  1  0.11268304  0.10201120  0.81016174  1
  Al  Al5  1  0.88004862  0.20248658  0.15133741  1
  Al  Al6  1  0.44420876  0.09893338  0.89493611  1
  Al  Al7  1  0.10171637  0.43751582  0.39992362  1
  Al  Al8  1  0.21662520  0.54085192  0.15422893  1
  Al  Al9  1  0.77374459  0.42328271  0.89807041  1
  Al  Al10  1  0.88724739  0.52809642  0.65352794  1
  Al  Al11  1  0.44083347  0.42116902  0.39985820  1
  Al  Al12  1  0.55511411  0.52888717  0.15131301  1
  Al  Al13  1  0.09940661  0.43777346  0.90220846  1
  Al  Al14  1  0.22253308  0.52381003  0.65348900  1
  Al  Al15  1  0.77642564  0.41585047  0.40408310  1
  Al  Al16  1  0.88194488  0.54267511  0.15337725  1
  Al  Al17  1  0.43871754  0.42407968  0.90175103  1
  Al  Al18  1  0.55505728  0.52545889  0.65493430  1
  Al  Al19  1  0.11100259  0.76153387  0.40420867  1
  Al  Al20  1  0.22101919  0.87727229  0.09515556  1
  Al  Al21  1  0.77525424  0.76480297  0.90397787  1
  Al  Al22  1  0.89926411  0.87100898  0.64577761  1
  Al  Al23  1  0.45784256  0.75367972  0.40050245  1
  Al  Al24  1  0.55548986  0.88344279  0.15353180  1
  Al  Al25  1  0.10316991  0.76517437  0.89679883  1
  Al  Al26  1  0.23513230  0.87293405  0.59323326  1
  Al  Al27  1  0.77611355  0.77200018  0.40364491  1
  Al  Al28  1  0.88346000  0.88901717  0.15131031  1
  Al  Al29  1  0.44444271  0.76203120  0.89793288  1
  Al  Al30  1  0.56818950  0.87412953  0.65357124  1
  B  B31  1  0.84134143  0.22562339  0.65087694  1
  B  B32  1  0.48647336  0.23835457  0.16473275  1
  B  B33  1  0.16990884  0.22481858  0.55943309  1
  B  B34  1  0.85533058  0.06919640  0.42420843  1
  B  B35  1  0.50557799  0.22564199  0.66415123  1
  N  N36  1  0.21768280  0.20420361  0.41083972  1
  N  N37  1  0.11464177  0.09749746  0.14972864  1
  N  N38  1  0.87389229  0.21061631  0.80309977  1
  N  N39  1  0.84105775  0.08737643  0.57135151  1
  N  N40  1  0.50983600  0.22641788  0.30709218  1
  N  N41  1  0.44916594  0.11251386  0.09147396  1
  N  N42  1  0.21569265  0.20646492  0.89235822  1
  N  N43  1  0.15417118  0.09847682  0.62916084  1
  N  N44  1  0.88546821  0.19044818  0.34580287  1
  N  N45  1  0.79013587  0.09269419  0.06894124  1
  N  N46  1  0.54654375  0.21160352  0.81606117  1
  N  N47  1  0.49841540  0.09328006  0.59429414  1
  N  N48  1  0.21619497  0.54366823  0.34440095  1
  N  N49  1  0.09781370  0.43859440  0.09733513  1
  N  N50  1  0.88234335  0.53951638  0.84348273  1
  N  N51  1  0.77886939  0.40197583  0.59580449  1
  N  N52  1  0.55821845  0.52987624  0.34349363  1
  N  N53  1  0.43947315  0.41006681  0.09426255  1
  N  N54  1  0.21916722  0.53815385  0.84274558  1
  N  N55  1  0.10567645  0.41028778  0.59506067  1
  N  N56  1  0.88241509  0.54041414  0.34534061  1
  N  N57  1  0.77461461  0.42557595  0.09056357  1
  N  N58  1  0.55200058  0.53550075  0.84515767  1
  N  N59  1  0.44702764  0.40040729  0.59724098  1
  N  N60  1  0.23263629  0.86737332  0.38581386  1
  N  N61  1  0.10544431  0.76129780  0.09347178  1
  N  N62  1  0.88698815  0.87086358  0.83353478  1
  N  N63  1  0.78713117  0.75271658  0.59196700  1
  N  N64  1  0.55781786  0.87671486  0.34397056  1
  N  N65  1  0.44890785  0.75923548  0.09384902  1
  N  N66  1  0.21836143  0.87992303  0.87267462  1
  N  N67  1  0.12064857  0.74769115  0.59596168  1
  N  N68  1  0.88611463  0.90216868  0.35437962  1
  N  N69  1  0.77478341  0.76834844  0.09723832  1
  N  N70  1  0.55685386  0.87385958  0.84415008  1
  N  N71  1  0.46471249  0.74817329  0.59436581  1
