# generated using pymatgen
data_Al31B5N36
_symmetry_space_group_name_H-M   'P 1'
_cell_length_a   9.34565458
_cell_length_b   9.17180601
_cell_length_c   10.05564273
_cell_angle_alpha   90.03663491
_cell_angle_beta   90.43336559
_cell_angle_gamma   60.32235449
_symmetry_Int_Tables_number   1
_chemical_formula_structural   Al31B5N36
_chemical_formula_sum   'Al31 B5 N36'
_cell_volume   748.84409692
_cell_formula_units_Z   1
loop_
 _symmetry_equiv_pos_site_id
 _symmetry_equiv_pos_as_xyz
  1  'x, y, z'
loop_
 _atom_site_type_symbol
 _atom_site_label
 _atom_site_symmetry_multiplicity
 _atom_site_fract_x
 _atom_site_fract_y
 _atom_site_fract_z
 _atom_site_occupancy
  Al  Al0  1  0.11853447  0.09158915  0.32577921  1
  Al  Al1  1  0.21886235  0.20950430  0.07163243  1
  Al  Al2  1  0.76254220  0.10464150  0.87242221  1
  Al  Al3  1  0.45671259  0.10201640  0.39419520  1
  Al  Al4  1  0.11412154  0.09797281  0.80012347  1
  Al  Al5  1  0.87227532  0.20171024  0.14263529  1
  Al  Al6  1  0.44757399  0.09487474  0.88584097  1
  Al  Al7  1  0.11579303  0.42650179  0.32580388  1
  Al  Al8  1  0.21785289  0.53712242  0.07265729  1
  Al  Al9  1  0.77779587  0.42316666  0.88463748  1
  Al  Al10  1  0.88364327  0.53033255  0.63526204  1
  Al  Al11  1  0.45311940  0.41302749  0.38054394  1
  Al  Al12  1  0.55461418  0.53229593  0.13707383  1
  Al  Al13  1  0.11909434  0.41742233  0.81547059  1
  Al  Al14  1  0.21883606  0.53131714  0.56784064  1
  Al  Al15  1  0.77694401  0.41726718  0.39221030  1
  Al  Al16  1  0.88090726  0.53871876  0.14172338  1
  Al  Al17  1  0.44712856  0.42208540  0.88810954  1
  Al  Al18  1  0.55166048  0.52996113  0.64016839  1
  Al  Al19  1  0.10717756  0.76844960  0.31853361  1
  Al  Al20  1  0.21347854  0.88039124  0.06866021  1
  Al  Al21  1  0.77474032  0.75408156  0.88564232  1
  Al  Al22  1  0.89729674  0.87578696  0.57965969  1
  Al  Al23  1  0.45427725  0.75559415  0.38651979  1
  Al  Al24  1  0.55410077  0.88192318  0.14028541  1
  Al  Al25  1  0.10959932  0.76194270  0.81761466  1
  Al  Al26  1  0.22602751  0.87742205  0.56835275  1
  Al  Al27  1  0.77370384  0.76906646  0.38910106  1
  Al  Al28  1  0.88375186  0.87904516  0.06846412  1
  Al  Al29  1  0.44524104  0.76140031  0.88668749  1
  Al  Al30  1  0.56085561  0.87856070  0.63837179  1
  B  B31  1  0.83615503  0.23300680  0.64112374  1
  B  B32  1  0.53988039  0.21300532  0.14146570  1
  B  B33  1  0.17323313  0.22737334  0.55498791  1
  B  B34  1  0.84147072  0.08002166  0.41580418  1
  B  B35  1  0.50511110  0.22759798  0.64815767  1
  N  N36  1  0.21120550  0.21291056  0.40525757  1
  N  N37  1  0.11159044  0.09760729  0.13640821  1
  N  N38  1  0.87195458  0.21088624  0.79270341  1
  N  N39  1  0.82671955  0.10469970  0.56283229  1
  N  N40  1  0.53482187  0.21422627  0.29262191  1
  N  N41  1  0.45784326  0.10755890  0.07723536  1
  N  N42  1  0.21438310  0.20503524  0.88494743  1
  N  N43  1  0.15814388  0.09665439  0.62076616  1
  N  N44  1  0.88088182  0.19113718  0.33346577  1
  N  N45  1  0.74719477  0.11423968  0.06786887  1
  N  N46  1  0.54176333  0.21221296  0.80028086  1
  N  N47  1  0.49715451  0.09594525  0.57850935  1
  N  N48  1  0.21541010  0.54735726  0.38086827  1
  N  N49  1  0.11322079  0.42560582  0.13698909  1
  N  N50  1  0.88646503  0.53455762  0.82485737  1
  N  N51  1  0.77925373  0.40544276  0.58263055  1
  N  N52  1  0.55791067  0.53329600  0.32734778  1
  N  N53  1  0.45485542  0.40503577  0.07909376  1
  N  N54  1  0.21506442  0.54002205  0.87945093  1
  N  N55  1  0.12032745  0.39992723  0.62024195  1
  N  N56  1  0.88017401  0.54046844  0.33457205  1
  N  N57  1  0.77821759  0.42169295  0.07502003  1
  N  N58  1  0.55275853  0.53754739  0.82835726  1
  N  N59  1  0.45474857  0.39814505  0.58221812  1
  N  N60  1  0.22306404  0.87136572  0.37897842  1
  N  N61  1  0.10562632  0.76519851  0.12924490  1
  N  N62  1  0.88874346  0.87199248  0.86789013  1
  N  N63  1  0.78414448  0.75333372  0.58004196  1
  N  N64  1  0.55314187  0.87859766  0.32912085  1
  N  N65  1  0.44689677  0.76055926  0.07936238  1
  N  N66  1  0.21136888  0.88181001  0.87617630  1
  N  N67  1  0.12119744  0.75532751  0.63070278  1
  N  N68  1  0.88648906  0.89890174  0.38101058  1
  N  N69  1  0.77309182  0.75754701  0.07865135  1
  N  N70  1  0.55428599  0.87296961  0.82659362  1
  N  N71  1  0.46037667  0.75108130  0.57813373  1
