# generated using pymatgen
data_Al31B5N36
_symmetry_space_group_name_H-M   'P 1'
_cell_length_a   9.43514652
_cell_length_b   9.16024003
_cell_length_c   9.99261188
_cell_angle_alpha   90.11944815
_cell_angle_beta   90.48694882
_cell_angle_gamma   60.91512181
_symmetry_Int_Tables_number   1
_chemical_formula_structural   Al31B5N36
_chemical_formula_sum   'Al31 B5 N36'
_cell_volume   754.70922544
_cell_formula_units_Z   1
loop_
 _symmetry_equiv_pos_site_id
 _symmetry_equiv_pos_as_xyz
  1  'x, y, z'
loop_
 _atom_site_type_symbol
 _atom_site_label
 _atom_site_symmetry_multiplicity
 _atom_site_fract_x
 _atom_site_fract_y
 _atom_site_fract_z
 _atom_site_occupancy
  Al  Al0  1  0.12190324  0.08945609  0.33636918  1
  Al  Al1  1  0.21505284  0.21046569  0.08414495  1
  Al  Al2  1  0.77576243  0.09415095  0.88637872  1
  Al  Al3  1  0.45042347  0.09940344  0.41255365  1
  Al  Al4  1  0.11350578  0.09838533  0.81285412  1
  Al  Al5  1  0.88215343  0.20225334  0.15134207  1
  Al  Al6  1  0.44651889  0.09717025  0.89745233  1
  Al  Al7  1  0.10361226  0.43252640  0.37395433  1
  Al  Al8  1  0.22311454  0.53529974  0.15910963  1
  Al  Al9  1  0.77447350  0.42294400  0.89892502  1
  Al  Al10  1  0.88414288  0.53006157  0.65030303  1
  Al  Al11  1  0.44492808  0.41869738  0.40281455  1
  Al  Al12  1  0.55496253  0.52959721  0.15205159  1
  Al  Al13  1  0.10480526  0.42794802  0.86516948  1
  Al  Al14  1  0.22699518  0.52088637  0.64089656  1
  Al  Al15  1  0.77620594  0.41595261  0.40500016  1
  Al  Al16  1  0.88000195  0.54375139  0.15517892  1
  Al  Al17  1  0.44098574  0.42182425  0.90272522  1
  Al  Al18  1  0.55467353  0.52678056  0.65596361  1
  Al  Al19  1  0.11177518  0.77195964  0.34235817  1
  Al  Al20  1  0.21203543  0.87837063  0.08206142  1
  Al  Al21  1  0.77725774  0.76442422  0.90407140  1
  Al  Al22  1  0.89025809  0.87724005  0.63918652  1
  Al  Al23  1  0.45844401  0.75288966  0.40097176  1
  Al  Al24  1  0.55208863  0.88313354  0.15413410  1
  Al  Al25  1  0.11224809  0.76420230  0.82773563  1
  Al  Al26  1  0.23021959  0.87491669  0.58195912  1
  Al  Al27  1  0.77394352  0.77356683  0.40499726  1
  Al  Al28  1  0.87630353  0.89279171  0.15145229  1
  Al  Al29  1  0.44686470  0.75985760  0.90203765  1
  Al  Al30  1  0.56472394  0.87440897  0.65481718  1
  B  B31  1  0.84091722  0.22739614  0.65166148  1
  B  B32  1  0.48586623  0.23714196  0.16556960  1
  B  B33  1  0.16784453  0.22603761  0.56519618  1
  B  B34  1  0.85428443  0.07134169  0.42519347  1
  B  B35  1  0.50828671  0.22369106  0.66569251  1
  N  N36  1  0.21432132  0.20640579  0.41662141  1
  N  N37  1  0.11671296  0.09546374  0.14900826  1
  N  N38  1  0.87485448  0.21049956  0.80346307  1
  N  N39  1  0.83867392  0.09190415  0.57141699  1
  N  N40  1  0.50675370  0.22667993  0.30759524  1
  N  N41  1  0.44936721  0.11203041  0.09175675  1
  N  N42  1  0.21570296  0.20424795  0.89554135  1
  N  N43  1  0.15851497  0.09458025  0.63373732  1
  N  N44  1  0.88637903  0.19069648  0.34564826  1
  N  N45  1  0.79252522  0.09302480  0.06786195  1
  N  N46  1  0.54803839  0.20954986  0.81732287  1
  N  N47  1  0.49983585  0.09246008  0.59552904  1
  N  N48  1  0.22159549  0.54295890  0.35954300  1
  N  N49  1  0.10270084  0.43092814  0.13100424  1
  N  N50  1  0.88116428  0.54005598  0.84287727  1
  N  N51  1  0.77840441  0.40284047  0.59633856  1
  N  N52  1  0.55844801  0.52941300  0.34366313  1
  N  N53  1  0.44150710  0.40860303  0.09497585  1
  N  N54  1  0.22578114  0.53158581  0.84057956  1
  N  N55  1  0.10770420  0.40526013  0.61092349  1
  N  N56  1  0.87709028  0.54380597  0.34857090  1
  N  N57  1  0.77504820  0.42570222  0.09068398  1
  N  N58  1  0.55228043  0.53515568  0.84588916  1
  N  N59  1  0.45325456  0.39680165  0.59790814  1
  N  N60  1  0.23047551  0.87165489  0.39272212  1
  N  N61  1  0.10748741  0.76645347  0.14644401  1
  N  N62  1  0.88373156  0.87223549  0.83043406  1
  N  N63  1  0.78381831  0.75395922  0.59186044  1
  N  N64  1  0.55530936  0.87813425  0.34425120  1
  N  N65  1  0.44617725  0.75910869  0.09524649  1
  N  N66  1  0.21454895  0.88033234  0.88866280  1
  N  N67  1  0.12232263  0.75650920  0.63206133  1
  N  N68  1  0.87912137  0.90712349  0.35892666  1
  N  N69  1  0.77342285  0.76859237  0.09695340  1
  N  N70  1  0.55633440  0.87276205  0.84524824  1
  N  N71  1  0.46284148  0.74836494  0.59430908  1
