# generated using pymatgen
data_Al31B5N36
_symmetry_space_group_name_H-M   'P 1'
_cell_length_a   9.42627907
_cell_length_b   9.14191624
_cell_length_c   9.95546048
_cell_angle_alpha   90.12155893
_cell_angle_beta   90.58275050
_cell_angle_gamma   61.05092671
_symmetry_Int_Tables_number   1
_chemical_formula_structural   Al31B5N36
_chemical_formula_sum   'Al31 B5 N36'
_cell_volume   750.66678819
_cell_formula_units_Z   1
loop_
 _symmetry_equiv_pos_site_id
 _symmetry_equiv_pos_as_xyz
  1  'x, y, z'
loop_
 _atom_site_type_symbol
 _atom_site_label
 _atom_site_symmetry_multiplicity
 _atom_site_fract_x
 _atom_site_fract_y
 _atom_site_fract_z
 _atom_site_occupancy
  Al  Al0  1  0.11918594  0.08985367  0.33994743  1
  Al  Al1  1  0.21713394  0.20648953  0.08218830  1
  Al  Al2  1  0.77365806  0.09568424  0.88652997  1
  Al  Al3  1  0.45244463  0.09873279  0.41021174  1
  Al  Al4  1  0.11175570  0.10363860  0.80937050  1
  Al  Al5  1  0.87995525  0.20256665  0.15114043  1
  Al  Al6  1  0.44431353  0.09876238  0.89473374  1
  Al  Al7  1  0.10169587  0.43798324  0.39966577  1
  Al  Al8  1  0.21671081  0.54034937  0.15387785  1
  Al  Al9  1  0.77339322  0.42367756  0.89797703  1
  Al  Al10  1  0.88722672  0.52811396  0.65346235  1
  Al  Al11  1  0.44075586  0.42130219  0.39967233  1
  Al  Al12  1  0.55548286  0.52833942  0.15119600  1
  Al  Al13  1  0.09943156  0.43803307  0.90202231  1
  Al  Al14  1  0.22250759  0.52375474  0.65339842  1
  Al  Al15  1  0.77611662  0.41614340  0.40401316  1
  Al  Al16  1  0.88201197  0.54256997  0.15332297  1
  Al  Al17  1  0.43866231  0.42423043  0.90150147  1
  Al  Al18  1  0.55516652  0.52531193  0.65494664  1
  Al  Al19  1  0.11201036  0.76201931  0.40436185  1
  Al  Al20  1  0.22447401  0.87190080  0.12126620  1
  Al  Al21  1  0.77540045  0.76478588  0.90371112  1
  Al  Al22  1  0.89931269  0.87095761  0.64575969  1
  Al  Al23  1  0.45647151  0.75440012  0.40103470  1
  Al  Al24  1  0.55576319  0.88365882  0.15338711  1
  Al  Al25  1  0.10494520  0.76687875  0.89677670  1
  Al  Al26  1  0.23604052  0.87006480  0.61172840  1
  Al  Al27  1  0.77614417  0.77198661  0.40350104  1
  Al  Al28  1  0.88323427  0.88926597  0.15116904  1
  Al  Al29  1  0.44169526  0.76348193  0.89781024  1
  Al  Al30  1  0.56819566  0.87416932  0.65353373  1
  B  B31  1  0.84128661  0.22566806  0.65084984  1
  B  B32  1  0.48664890  0.23824576  0.16466302  1
  B  B33  1  0.16978917  0.22543817  0.55866323  1
  B  B34  1  0.85515035  0.06912975  0.42424603  1
  B  B35  1  0.50559078  0.22562967  0.66413761  1
  N  N36  1  0.21817910  0.20483326  0.41035406  1
  N  N37  1  0.11345025  0.09899086  0.14937309  1
  N  N38  1  0.87359343  0.21101390  0.80324463  1
  N  N39  1  0.84082017  0.08737888  0.57149496  1
  N  N40  1  0.51014147  0.22636466  0.30709914  1
  N  N41  1  0.44903463  0.11251030  0.09141750  1
  N  N42  1  0.21571901  0.20646796  0.89194673  1
  N  N43  1  0.15268660  0.09954253  0.62696121  1
  N  N44  1  0.88505321  0.19070064  0.34598328  1
  N  N45  1  0.78963236  0.09288370  0.06908314  1
  N  N46  1  0.54659967  0.21161171  0.81605690  1
  N  N47  1  0.49833767  0.09324068  0.59431734  1
  N  N48  1  0.21611903  0.54384593  0.34408187  1
  N  N49  1  0.09778705  0.43852585  0.09714875  1
  N  N50  1  0.88237318  0.53949624  0.84346290  1
  N  N51  1  0.77872498  0.40210872  0.59579484  1
  N  N52  1  0.55813718  0.53015009  0.34345291  1
  N  N53  1  0.43949510  0.41001493  0.09416332  1
  N  N54  1  0.21900805  0.53851501  0.84280916  1
  N  N55  1  0.10556844  0.41057855  0.59492191  1
  N  N56  1  0.88240942  0.54040252  0.34533691  1
  N  N57  1  0.77449789  0.42570509  0.09057651  1
  N  N58  1  0.55184673  0.53590206  0.84531886  1
  N  N59  1  0.44698906  0.40039179  0.59718601  1
  N  N60  1  0.23366793  0.86489649  0.37127536  1
  N  N61  1  0.10653174  0.76179858  0.09253198  1
  N  N62  1  0.88758783  0.87068654  0.83375570  1
  N  N63  1  0.78704599  0.75270773  0.59201350  1
  N  N64  1  0.55776816  0.87657318  0.34394599  1
  N  N65  1  0.44799298  0.75970518  0.09308880  1
  N  N66  1  0.22050851  0.87619876  0.85284620  1
  N  N67  1  0.12080240  0.74746223  0.59436005  1
  N  N68  1  0.88627257  0.90210635  0.35431063  1
  N  N69  1  0.77498617  0.76821310  0.09722957  1
  N  N70  1  0.55676693  0.87363485  0.84431994  1
  N  N71  1  0.46387721  0.74845459  0.59348834  1
