# generated using pymatgen
data_Al31B5N36
_symmetry_space_group_name_H-M   'P 1'
_cell_length_a   9.29347398
_cell_length_b   9.17469385
_cell_length_c   9.76720111
_cell_angle_alpha   90.01448794
_cell_angle_beta   89.30610047
_cell_angle_gamma   60.09917480
_symmetry_Int_Tables_number   1
_chemical_formula_structural   Al31B5N36
_chemical_formula_sum   'Al31 B5 N36'
_cell_volume   721.87215763
_cell_formula_units_Z   1
loop_
 _symmetry_equiv_pos_site_id
 _symmetry_equiv_pos_as_xyz
  1  'x, y, z'
loop_
 _atom_site_type_symbol
 _atom_site_label
 _atom_site_symmetry_multiplicity
 _atom_site_fract_x
 _atom_site_fract_y
 _atom_site_fract_z
 _atom_site_occupancy
  Al  Al0  1  0.09793832  0.09817463  0.32022637  1
  Al  Al1  1  0.22788061  0.20480858  0.05849652  1
  Al  Al2  1  0.77511802  0.10075339  0.80532457  1
  Al  Al3  1  0.44581493  0.10105286  0.31957640  1
  Al  Al4  1  0.11809608  0.09728681  0.79822046  1
  Al  Al5  1  0.88326523  0.20426592  0.06136565  1
  Al  Al6  1  0.45595053  0.09715105  0.80358398  1
  Al  Al7  1  0.10809781  0.42942016  0.30599905  1
  Al  Al8  1  0.22564032  0.53332195  0.05359897  1
  Al  Al9  1  0.78238034  0.41658502  0.79951877  1
  Al  Al10  1  0.89129599  0.52766845  0.55166667  1
  Al  Al11  1  0.45087906  0.41737007  0.30594329  1
  Al  Al12  1  0.55631516  0.53316764  0.05385371  1
  Al  Al13  1  0.11683271  0.41701678  0.80051998  1
  Al  Al14  1  0.22915438  0.52437101  0.55421721  1
  Al  Al15  1  0.77093714  0.42867287  0.30596998  1
  Al  Al16  1  0.88855618  0.53747208  0.05245528  1
  Al  Al17  1  0.45082708  0.41581148  0.80694289  1
  Al  Al18  1  0.55326512  0.53241625  0.55360062  1
  Al  Al19  1  0.10514791  0.76699469  0.30526878  1
  Al  Al20  1  0.21928248  0.87661780  0.05550241  1
  Al  Al21  1  0.78078263  0.76017290  0.80331273  1
  Al  Al22  1  0.88444966  0.88550190  0.55065625  1
  Al  Al23  1  0.44038451  0.76473690  0.30445854  1
  Al  Al24  1  0.55507231  0.88063239  0.05650854  1
  Al  Al25  1  0.11080151  0.76211956  0.80394455  1
  Al  Al26  1  0.22845816  0.87606619  0.55586713  1
  Al  Al27  1  0.77257856  0.76891492  0.30463152  1
  Al  Al28  1  0.87992539  0.88265105  0.06077196  1
  Al  Al29  1  0.44752129  0.76020808  0.80625118  1
  Al  Al30  1  0.56133825  0.87875626  0.55782480  1
  B  B31  1  0.82606630  0.23007187  0.53341333  1
  B  B32  1  0.55209179  0.20936524  0.06279421  1
  B  B33  1  0.17624069  0.22480724  0.54029329  1
  B  B34  1  0.76253366  0.09898358  0.31001955  1
  B  B35  1  0.56329147  0.20229441  0.55194358  1
  N  N36  1  0.21324899  0.21025869  0.38418692  1
  N  N37  1  0.10605069  0.09997971  0.12462841  1
  N  N38  1  0.89688425  0.19873778  0.86719712  1
  N  N39  1  0.77029790  0.12176424  0.60605528  1
  N  N40  1  0.57740339  0.19507985  0.38137532  1
  N  N41  1  0.45315611  0.11173897  0.12002939  1
  N  N42  1  0.23322814  0.19968614  0.86712523  1
  N  N43  1  0.14359077  0.10211072  0.60673469  1
  N  N44  1  0.86156990  0.20164971  0.37792742  1
  N  N45  1  0.75083100  0.11057676  0.13681553  1
  N  N46  1  0.56339805  0.20229330  0.89525108  1
  N  N47  1  0.49633254  0.09699843  0.61510817  1
  N  N48  1  0.22269198  0.53785226  0.36139086  1
  N  N49  1  0.10843303  0.42868176  0.11416951  1
  N  N50  1  0.89174413  0.53254574  0.85625981  1
  N  N51  1  0.78461570  0.39870437  0.59928592  1
  N  N52  1  0.54955639  0.54124792  0.36144508  1
  N  N53  1  0.45404917  0.40468239  0.11068084  1
  N  N54  1  0.22412277  0.53491643  0.85763463  1
  N  N55  1  0.11886102  0.39973733  0.60396012  1
  N  N56  1  0.88504219  0.54056205  0.36079298  1
  N  N57  1  0.77530854  0.42877428  0.11451989  1
  N  N58  1  0.55935681  0.53329182  0.85930361  1
  N  N59  1  0.45791714  0.39937054  0.60849752  1
  N  N60  1  0.21952564  0.87295288  0.36458067  1
  N  N61  1  0.10840996  0.76216415  0.11144276  1
  N  N62  1  0.88765698  0.87642799  0.86369417  1
  N  N63  1  0.78886360  0.75291566  0.60946204  1
  N  N64  1  0.55177411  0.87473261  0.36441333  1
  N  N65  1  0.44236954  0.76323722  0.11064317  1
  N  N66  1  0.22310748  0.87346213  0.86091553  1
  N  N67  1  0.11191432  0.76076824  0.60940186  1
  N  N68  1  0.87193282  0.90116995  0.35547169  1
  N  N69  1  0.77612338  0.76172938  0.11198788  1
  N  N70  1  0.55848949  0.87211631  0.86302205  1
  N  N71  1  0.45263880  0.75689352  0.61334630  1
