# generated using pymatgen
data_Al31B5N36
_symmetry_space_group_name_H-M   'P 1'
_cell_length_a   9.29347064
_cell_length_b   9.17469232
_cell_length_c   9.76720938
_cell_angle_alpha   90.01449454
_cell_angle_beta   89.30613473
_cell_angle_gamma   60.09919748
_symmetry_Int_Tables_number   1
_chemical_formula_structural   Al31B5N36
_chemical_formula_sum   'Al31 B5 N36'
_cell_volume   721.87256002
_cell_formula_units_Z   1
loop_
 _symmetry_equiv_pos_site_id
 _symmetry_equiv_pos_as_xyz
  1  'x, y, z'
loop_
 _atom_site_type_symbol
 _atom_site_label
 _atom_site_symmetry_multiplicity
 _atom_site_fract_x
 _atom_site_fract_y
 _atom_site_fract_z
 _atom_site_occupancy
  Al  Al0  1  0.09807298  0.09812643  0.31403429  1
  Al  Al1  1  0.22801468  0.20476084  0.05229950  1
  Al  Al2  1  0.77525261  0.10070536  0.79913289  1
  Al  Al3  1  0.44594919  0.10100475  0.31337965  1
  Al  Al4  1  0.11823070  0.09723808  0.79202753  1
  Al  Al5  1  0.88340007  0.20421750  0.05517346  1
  Al  Al6  1  0.45608614  0.09710203  0.79739181  1
  Al  Al7  1  0.10823286  0.42937124  0.29980649  1
  Al  Al8  1  0.22577475  0.53327352  0.04740737  1
  Al  Al9  1  0.78251462  0.41653674  0.79332695  1
  Al  Al10  1  0.89143016  0.52762017  0.54547281  1
  Al  Al11  1  0.45101307  0.41732208  0.29975388  1
  Al  Al12  1  0.55644941  0.53311949  0.04766438  1
  Al  Al13  1  0.11696729  0.41696873  0.79432339  1
  Al  Al14  1  0.22928891  0.52432336  0.54802754  1
  Al  Al15  1  0.77107150  0.42862457  0.29977781  1
  Al  Al16  1  0.88869120  0.53742363  0.04626027  1
  Al  Al17  1  0.45096156  0.41576360  0.80075265  1
  Al  Al18  1  0.55339977  0.53236781  0.54741170  1
  Al  Al19  1  0.10528245  0.76694589  0.29907886  1
  Al  Al20  1  0.21941744  0.87656908  0.04931413  1
  Al  Al21  1  0.78091658  0.76012500  0.79711936  1
  Al  Al22  1  0.88458408  0.88545401  0.54446203  1
  Al  Al23  1  0.44051906  0.76468803  0.29827014  1
  Al  Al24  1  0.55520754  0.88058264  0.05031741  1
  Al  Al25  1  0.11093619  0.76207181  0.79775470  1
  Al  Al26  1  0.22859217  0.87601806  0.54967649  1
  Al  Al27  1  0.77271384  0.76886591  0.29844009  1
  Al  Al28  1  0.88006009  0.88260205  0.05457784  1
  Al  Al29  1  0.44765573  0.76016022  0.80006069  1
  Al  Al30  1  0.56147239  0.87870876  0.55163023  1
  B  B31  1  0.82620052  0.23002358  0.52722092  1
  B  B32  1  0.55222649  0.20931693  0.05660158  1
  B  B33  1  0.17637576  0.22475850  0.53409981  1
  B  B34  1  0.76266801  0.09893531  0.30382631  1
  B  B35  1  0.56342605  0.20224525  0.54575140  1
  N  N36  1  0.21338433  0.21020969  0.37799400  1
  N  N37  1  0.10618568  0.09993191  0.11843606  1
  N  N38  1  0.89701922  0.19868946  0.86100499  1
  N  N39  1  0.77043242  0.12171578  0.59986305  1
  N  N40  1  0.57753748  0.19503097  0.37518280  1
  N  N41  1  0.45329034  0.11169058  0.11383434  1
  N  N42  1  0.23336262  0.19963856  0.86092937  1
  N  N43  1  0.14372464  0.10206287  0.60054173  1
  N  N44  1  0.86170417  0.20160155  0.37173487  1
  N  N45  1  0.75096565  0.11052804  0.13062270  1
  N  N46  1  0.56353275  0.20224542  0.88905911  1
  N  N47  1  0.49646732  0.09694954  0.60891617  1
  N  N48  1  0.22282608  0.53780399  0.35520077  1
  N  N49  1  0.10856780  0.42863280  0.10797667  1
  N  N50  1  0.89187913  0.53249747  0.85006518  1
  N  N51  1  0.78475048  0.39865579  0.59309423  1
  N  N52  1  0.54969138  0.54119911  0.35525565  1
  N  N53  1  0.45418356  0.40463392  0.10449054  1
  N  N54  1  0.22425685  0.53486807  0.85144245  1
  N  N55  1  0.11899529  0.39968920  0.59776563  1
  N  N56  1  0.88517702  0.54051327  0.35459990  1
  N  N57  1  0.77544364  0.42872591  0.10832772  1
  N  N58  1  0.55949131  0.53324392  0.85311358  1
  N  N59  1  0.45805166  0.39932203  0.60230720  1
  N  N60  1  0.21965971  0.87290477  0.35839004  1
  N  N61  1  0.10854425  0.76211547  0.10525228  1
  N  N62  1  0.88779113  0.87637977  0.85750128  1
  N  N63  1  0.78899782  0.75286764  0.60326852  1
  N  N64  1  0.55190870  0.87468510  0.35821980  1
  N  N65  1  0.44250439  0.76318844  0.10445443  1
  N  N66  1  0.22324216  0.87341429  0.85472616  1
  N  N67  1  0.11204828  0.76072065  0.60321162  1
  N  N68  1  0.87206728  0.90112183  0.34927878  1
  N  N69  1  0.77625881  0.76168024  0.10579603  1
  N  N70  1  0.55862446  0.87206776  0.85683124  1
  N  N71  1  0.45277320  0.75684603  0.60715549  1
