# generated using pymatgen
data_Al31B5N36
_symmetry_space_group_name_H-M   'P 1'
_cell_length_a   9.35390507
_cell_length_b   9.14561347
_cell_length_c   9.80732403
_cell_angle_alpha   90.28722484
_cell_angle_beta   90.78674168
_cell_angle_gamma   60.55452709
_symmetry_Int_Tables_number   1
_chemical_formula_structural   Al31B5N36
_chemical_formula_sum   'Al31 B5 N36'
_cell_volume   730.54146655
_cell_formula_units_Z   1
loop_
 _symmetry_equiv_pos_site_id
 _symmetry_equiv_pos_as_xyz
  1  'x, y, z'
loop_
 _atom_site_type_symbol
 _atom_site_label
 _atom_site_symmetry_multiplicity
 _atom_site_fract_x
 _atom_site_fract_y
 _atom_site_fract_z
 _atom_site_occupancy
  Al  Al0  1  0.12222013  0.09494641  0.40880519  1
  Al  Al1  1  0.22281354  0.20708030  0.14623971  1
  Al  Al2  1  0.75937717  0.10168163  0.88894012  1
  Al  Al3  1  0.45445524  0.10106295  0.39624374  1
  Al  Al4  1  0.09830863  0.09821635  0.88381569  1
  Al  Al5  1  0.87924167  0.20269874  0.14959315  1
  Al  Al6  1  0.43469742  0.10123464  0.88841808  1
  Al  Al7  1  0.11357224  0.41970172  0.40328653  1
  Al  Al8  1  0.22141588  0.53614571  0.15137993  1
  Al  Al9  1  0.77187543  0.42742201  0.89717521  1
  Al  Al10  1  0.88803962  0.52937510  0.65072104  1
  Al  Al11  1  0.44974509  0.41245176  0.39387684  1
  Al  Al12  1  0.55428589  0.53284198  0.15040765  1
  Al  Al13  1  0.10384911  0.43150531  0.89819955  1
  Al  Al14  1  0.22412072  0.52754245  0.65100057  1
  Al  Al15  1  0.77921863  0.41512780  0.40234983  1
  Al  Al16  1  0.88666584  0.53941868  0.15220632  1
  Al  Al17  1  0.43940105  0.42610810  0.89988115  1
  Al  Al18  1  0.55499162  0.52672567  0.64982172  1
  Al  Al19  1  0.11622650  0.76191903  0.40135575  1
  Al  Al20  1  0.21874043  0.87747058  0.14871066  1
  Al  Al21  1  0.77382142  0.76513384  0.90100751  1
  Al  Al22  1  0.89745120  0.87459884  0.64555648  1
  Al  Al23  1  0.44996601  0.75898906  0.39893490  1
  Al  Al24  1  0.55298083  0.88259678  0.14855757  1
  Al  Al25  1  0.10506818  0.76506773  0.90101329  1
  Al  Al26  1  0.23198882  0.87312439  0.64979808  1
  Al  Al27  1  0.77850582  0.76911184  0.40153912  1
  Al  Al28  1  0.87533251  0.89143652  0.15421396  1
  Al  Al29  1  0.44134603  0.76278018  0.89977774  1
  Al  Al30  1  0.56192800  0.87801146  0.64731653  1
  B  B31  1  0.84635398  0.22279397  0.65421798  1
  B  B32  1  0.54022505  0.21566816  0.15103628  1
  B  B33  1  0.17394348  0.22636918  0.66501217  1
  B  B34  1  0.84745616  0.07247193  0.42110640  1
  B  B35  1  0.50274038  0.22737508  0.65858046  1
  N  N36  1  0.22765306  0.20216758  0.33679564  1
  N  N37  1  0.09987549  0.10158435  0.08043463  1
  N  N38  1  0.87359398  0.20803327  0.81184358  1
  N  N39  1  0.83635361  0.09065839  0.57210392  1
  N  N40  1  0.54295670  0.21152962  0.30437083  1
  N  N41  1  0.44545391  0.11190159  0.08349150  1
  N  N42  1  0.20961053  0.21220952  0.82043969  1
  N  N43  1  0.14991289  0.09918851  0.59812775  1
  N  N44  1  0.89508164  0.18620799  0.34500434  1
  N  N45  1  0.74476053  0.11389635  0.08353078  1
  N  N46  1  0.54130978  0.21248603  0.81281936  1
  N  N47  1  0.48582154  0.09973967  0.58751803  1
  N  N48  1  0.21951439  0.53857611  0.34552838  1
  N  N49  1  0.10436229  0.43075531  0.08940840  1
  N  N50  1  0.88279684  0.53996334  0.84239517  1
  N  N51  1  0.78276966  0.40013236  0.59748572  1
  N  N52  1  0.55843075  0.53240365  0.34450634  1
  N  N53  1  0.44721732  0.41012312  0.09210857  1
  N  N54  1  0.21827965  0.54002016  0.84310400  1
  N  N55  1  0.11507944  0.40176211  0.60076633  1
  N  N56  1  0.88922309  0.53608321  0.34738042  1
  N  N57  1  0.77433515  0.42701091  0.09120932  1
  N  N58  1  0.55089849  0.53764287  0.84213153  1
  N  N59  1  0.44937000  0.40006748  0.59367768  1
  N  N60  1  0.22745037  0.87286851  0.34320633  1
  N  N61  1  0.10199561  0.76681512  0.09561442  1
  N  N62  1  0.88473450  0.87641193  0.83830102  1
  N  N63  1  0.78626809  0.75507675  0.59263050  1
  N  N64  1  0.55896643  0.87342668  0.34181062  1
  N  N65  1  0.44130247  0.76312626  0.09317789  1
  N  N66  1  0.22091661  0.87133604  0.84123038  1
  N  N67  1  0.12196846  0.75270737  0.59321884  1
  N  N68  1  0.88574781  0.90123062  0.35440296  1
  N  N69  1  0.77529256  0.76586429  0.09618083  1
  N  N70  1  0.55292879  0.87442269  0.84080365  1
  N  N71  1  0.45472278  0.75336962  0.59203585  1
