# generated using pymatgen
data_Al31B5N36
_symmetry_space_group_name_H-M   'P 1'
_cell_length_a   9.29393073
_cell_length_b   9.15654299
_cell_length_c   9.98402963
_cell_angle_alpha   90.37441359
_cell_angle_beta   89.93024247
_cell_angle_gamma   60.42242676
_symmetry_Int_Tables_number   1
_chemical_formula_structural   Al31B5N36
_chemical_formula_sum   'Al31 B5 N36'
_cell_volume   738.89966410
_cell_formula_units_Z   1
loop_
 _symmetry_equiv_pos_site_id
 _symmetry_equiv_pos_as_xyz
  1  'x, y, z'
loop_
 _atom_site_type_symbol
 _atom_site_label
 _atom_site_symmetry_multiplicity
 _atom_site_fract_x
 _atom_site_fract_y
 _atom_site_fract_z
 _atom_site_occupancy
  Al  Al0  1  0.09653077  0.09856594  0.33389392  1
  Al  Al1  1  0.22526833  0.20637873  0.07810499  1
  Al  Al2  1  0.79128027  0.09474026  0.80358110  1
  Al  Al3  1  0.44639822  0.10915370  0.40384575  1
  Al  Al4  1  0.11910854  0.09742664  0.81304008  1
  Al  Al5  1  0.88681070  0.20423091  0.07318208  1
  Al  Al6  1  0.45626956  0.10040050  0.89109019  1
  Al  Al7  1  0.10298452  0.43110692  0.32207153  1
  Al  Al8  1  0.22722429  0.53122712  0.06896825  1
  Al  Al9  1  0.78205897  0.41752675  0.81246379  1
  Al  Al10  1  0.88662233  0.52913885  0.56573464  1
  Al  Al11  1  0.44166148  0.42920435  0.31506001  1
  Al  Al12  1  0.55804870  0.53104677  0.06847627  1
  Al  Al13  1  0.11515407  0.41804875  0.81570177  1
  Al  Al14  1  0.22025552  0.52961972  0.56527772  1
  Al  Al15  1  0.76802341  0.42875876  0.31995126  1
  Al  Al16  1  0.89018018  0.53553588  0.06740371  1
  Al  Al17  1  0.44057788  0.43601624  0.81927093  1
  Al  Al18  1  0.55247624  0.52807921  0.56625673  1
  Al  Al19  1  0.10307081  0.76850935  0.31688399  1
  Al  Al20  1  0.22121969  0.87498564  0.06969503  1
  Al  Al21  1  0.78171157  0.76026600  0.81806560  1
  Al  Al22  1  0.89049107  0.88195766  0.56012085  1
  Al  Al23  1  0.43776663  0.76756451  0.32062574  1
  Al  Al24  1  0.56211259  0.86912130  0.07450441  1
  Al  Al25  1  0.10943998  0.76289597  0.81766199  1
  Al  Al26  1  0.22647690  0.87677299  0.57091481  1
  Al  Al27  1  0.76860138  0.77156079  0.31919963  1
  Al  Al28  1  0.88429151  0.87854482  0.07189423  1
  Al  Al29  1  0.44673067  0.76182970  0.81981720  1
  Al  Al30  1  0.56323470  0.87125255  0.57765989  1
  B  B31  1  0.83235965  0.22204048  0.54523804  1
  B  B32  1  0.55949498  0.19721344  0.15629972  1
  B  B33  1  0.16910638  0.22850405  0.55914984  1
  B  B34  1  0.77243755  0.09394095  0.31240629  1
  B  B35  1  0.50740479  0.22432371  0.65837948  1
  N  N36  1  0.20397048  0.21582295  0.40423857  1
  N  N37  1  0.10894063  0.09762646  0.14119763  1
  N  N38  1  0.89662551  0.20166410  0.88326468  1
  N  N39  1  0.82433142  0.09595806  0.62074803  1
  N  N40  1  0.56988974  0.19221878  0.31655726  1
  N  N41  1  0.46642512  0.10890078  0.08932379  1
  N  N42  1  0.22596204  0.20463100  0.88872163  1
  N  N43  1  0.15227565  0.09972414  0.62652713  1
  N  N44  1  0.85897808  0.20251990  0.38808573  1
  N  N45  1  0.76803926  0.10129705  0.14740406  1
  N  N46  1  0.55782906  0.20281657  0.80736086  1
  N  N47  1  0.48558361  0.10321475  0.58725171  1
  N  N48  1  0.21813244  0.54051916  0.37615136  1
  N  N49  1  0.10925674  0.42821332  0.13376852  1
  N  N50  1  0.89174564  0.53371039  0.87362653  1
  N  N51  1  0.78146777  0.39859647  0.61357118  1
  N  N52  1  0.54718740  0.54236312  0.37801282  1
  N  N53  1  0.45449884  0.40650535  0.12377565  1
  N  N54  1  0.22097271  0.53735130  0.87709324  1
  N  N55  1  0.11360140  0.40358314  0.62161207  1
  N  N56  1  0.88104704  0.54320449  0.37776434  1
  N  N57  1  0.77630934  0.42790712  0.13079242  1
  N  N58  1  0.56068929  0.53574830  0.87716216  1
  N  N59  1  0.44121885  0.41141545  0.62525596  1
  N  N60  1  0.21751217  0.87398325  0.38174633  1
  N  N61  1  0.11101347  0.76033039  0.12667103  1
  N  N62  1  0.88723600  0.87811089  0.87960627  1
  N  N63  1  0.78833644  0.75508224  0.62738721  1
  N  N64  1  0.55028988  0.87465070  0.38306176  1
  N  N65  1  0.44319168  0.76090842  0.12902857  1
  N  N66  1  0.22379201  0.87342211  0.87748884  1
  N  N67  1  0.11484545  0.75616093  0.62604892  1
  N  N68  1  0.87183565  0.90040366  0.36799396  1
  N  N69  1  0.78035098  0.75864263  0.12955559  1
  N  N70  1  0.56228151  0.86692839  0.88057810  1
  N  N71  1  0.45188418  0.75262360  0.63043326  1
