# generated using pymatgen
data_Al31B5N36
_symmetry_space_group_name_H-M   'P 1'
_cell_length_a   9.38247664
_cell_length_b   9.15576322
_cell_length_c   10.10181876
_cell_angle_alpha   89.87944505
_cell_angle_beta   90.31460829
_cell_angle_gamma   60.56355085
_symmetry_Int_Tables_number   1
_chemical_formula_structural   Al31B5N36
_chemical_formula_sum   'Al31 B5 N36'
_cell_volume   755.73132893
_cell_formula_units_Z   1
loop_
 _symmetry_equiv_pos_site_id
 _symmetry_equiv_pos_as_xyz
  1  'x, y, z'
loop_
 _atom_site_type_symbol
 _atom_site_label
 _atom_site_symmetry_multiplicity
 _atom_site_fract_x
 _atom_site_fract_y
 _atom_site_fract_z
 _atom_site_occupancy
  Al  Al0  1  0.12077720  0.09083093  0.32554951  1
  Al  Al1  1  0.21362704  0.21156058  0.06906641  1
  Al  Al2  1  0.77003981  0.10095809  0.86934486  1
  Al  Al3  1  0.45011430  0.10168207  0.39726437  1
  Al  Al4  1  0.11489191  0.09633425  0.80015634  1
  Al  Al5  1  0.87719481  0.19904458  0.14194693  1
  Al  Al6  1  0.44658634  0.09628581  0.88428297  1
  Al  Al7  1  0.11488002  0.42764130  0.32540908  1
  Al  Al8  1  0.21310863  0.54005270  0.06965857  1
  Al  Al9  1  0.77785030  0.42153051  0.88694853  1
  Al  Al10  1  0.88270936  0.53044698  0.63635377  1
  Al  Al11  1  0.44746744  0.41883023  0.38344101  1
  Al  Al12  1  0.55505027  0.53013090  0.13769687  1
  Al  Al13  1  0.11654356  0.41803157  0.81504121  1
  Al  Al14  1  0.21839584  0.53052117  0.56883192  1
  Al  Al15  1  0.77804832  0.41678416  0.39206874  1
  Al  Al16  1  0.87875046  0.54209632  0.14226085  1
  Al  Al17  1  0.44728280  0.41952091  0.88724356  1
  Al  Al18  1  0.55294357  0.52891819  0.64101014  1
  Al  Al19  1  0.10783140  0.76848055  0.31874274  1
  Al  Al20  1  0.21381758  0.88046787  0.06927757  1
  Al  Al21  1  0.77362828  0.75401134  0.88359983  1
  Al  Al22  1  0.90027992  0.87307973  0.58736682  1
  Al  Al23  1  0.45673674  0.75438595  0.38590383  1
  Al  Al24  1  0.55499182  0.88349899  0.13997788  1
  Al  Al25  1  0.11229022  0.75985025  0.81619653  1
  Al  Al26  1  0.22881998  0.87544771  0.56748435  1
  Al  Al27  1  0.77511934  0.77137272  0.39131898  1
  Al  Al28  1  0.88997022  0.87719732  0.06184120  1
  Al  Al29  1  0.44528619  0.76048792  0.88813709  1
  Al  Al30  1  0.56196282  0.87743446  0.63902034  1
  B  B31  1  0.84013834  0.23343629  0.64228884  1
  B  B32  1  0.49165254  0.23653645  0.14856677  1
  B  B33  1  0.17037490  0.22799387  0.55624820  1
  B  B34  1  0.85556942  0.07393803  0.42140310  1
  B  B35  1  0.50592638  0.22684661  0.64789926  1
  N  N36  1  0.20796846  0.21471330  0.40753438  1
  N  N37  1  0.11533367  0.09655447  0.13864742  1
  N  N38  1  0.87473352  0.21235102  0.79115492  1
  N  N39  1  0.83688686  0.10071166  0.56590115  1
  N  N40  1  0.50503091  0.22817771  0.29057464  1
  N  N41  1  0.45112317  0.11210793  0.07605747  1
  N  N42  1  0.21377119  0.20520624  0.88381553  1
  N  N43  1  0.16121274  0.09397482  0.62195169  1
  N  N44  1  0.88389646  0.18951452  0.33476657  1
  N  N45  1  0.77813807  0.10392459  0.05334575  1
  N  N46  1  0.54420611  0.21065624  0.79911879  1
  N  N47  1  0.49944762  0.09461657  0.57808516  1
  N  N48  1  0.21281042  0.54918092  0.38302490  1
  N  N49  1  0.11097219  0.42687993  0.13652734  1
  N  N50  1  0.88520465  0.53375830  0.82524787  1
  N  N51  1  0.77923439  0.40578242  0.58213911  1
  N  N52  1  0.55894256  0.53107978  0.32740200  1
  N  N53  1  0.44875473  0.40618672  0.07871535  1
  N  N54  1  0.21554364  0.53816642  0.87838983  1
  N  N55  1  0.11846002  0.40020992  0.62130599  1
  N  N56  1  0.87960551  0.54293122  0.33431762  1
  N  N57  1  0.77756363  0.42292238  0.07717538  1
  N  N58  1  0.55306998  0.53620822  0.82952820  1
  N  N59  1  0.45455137  0.39818547  0.58213510  1
  N  N60  1  0.22610854  0.87003359  0.37852310  1
  N  N61  1  0.10733296  0.76326123  0.12945014  1
  N  N62  1  0.88995240  0.86672677  0.85577721  1
  N  N63  1  0.78398164  0.75313452  0.58099481  1
  N  N64  1  0.55503390  0.87934676  0.32878913  1
  N  N65  1  0.44760017  0.75999733  0.08006480  1
  N  N66  1  0.21223263  0.88045858  0.87760958  1
  N  N67  1  0.12591383  0.75263861  0.63097408  1
  N  N68  1  0.89113510  0.89778925  0.38586172  1
  N  N69  1  0.77293649  0.76077879  0.07610735  1
  N  N70  1  0.55293319  0.87348242  0.82700574  1
  N  N71  1  0.46232146  0.74977768  0.57714478  1
