# generated using pymatgen
data_Al31B5N36
_symmetry_space_group_name_H-M   'P 1'
_cell_length_a   9.40600949
_cell_length_b   9.13879751
_cell_length_c   10.05573924
_cell_angle_alpha   90.16721895
_cell_angle_beta   90.46224619
_cell_angle_gamma   60.77846314
_symmetry_Int_Tables_number   1
_chemical_formula_structural   Al31B5N36
_chemical_formula_sum   'Al31 B5 N36'
_cell_volume   754.35928650
_cell_formula_units_Z   1
loop_
 _symmetry_equiv_pos_site_id
 _symmetry_equiv_pos_as_xyz
  1  'x, y, z'
loop_
 _atom_site_type_symbol
 _atom_site_label
 _atom_site_symmetry_multiplicity
 _atom_site_fract_x
 _atom_site_fract_y
 _atom_site_fract_z
 _atom_site_occupancy
  Al  Al0  1  0.12098861  0.09062681  0.33986468  1
  Al  Al1  1  0.21321967  0.21279493  0.08320676  1
  Al  Al2  1  0.77651690  0.09351663  0.88723537  1
  Al  Al3  1  0.44700888  0.10130937  0.41468885  1
  Al  Al4  1  0.11354672  0.09637139  0.81506062  1
  Al  Al5  1  0.88310270  0.20203113  0.15234031  1
  Al  Al6  1  0.44607497  0.09683413  0.89871139  1
  Al  Al7  1  0.11165418  0.42844429  0.34285698  1
  Al  Al8  1  0.21192783  0.54194045  0.08826525  1
  Al  Al9  1  0.77709455  0.42301009  0.89815725  1
  Al  Al10  1  0.88019489  0.53247124  0.64960829  1
  Al  Al11  1  0.44645791  0.41844335  0.40141051  1
  Al  Al12  1  0.55496609  0.52903621  0.15237229  1
  Al  Al13  1  0.11362633  0.41938479  0.82951279  1
  Al  Al14  1  0.21766199  0.53034659  0.58737413  1
  Al  Al15  1  0.77704735  0.41642098  0.40531164  1
  Al  Al16  1  0.87824303  0.54450357  0.15649891  1
  Al  Al17  1  0.44601674  0.41949372  0.90212268  1
  Al  Al18  1  0.55368468  0.52686311  0.65658689  1
  Al  Al19  1  0.11663571  0.76341244  0.33951345  1
  Al  Al20  1  0.21265931  0.87890636  0.08430483  1
  Al  Al21  1  0.77929107  0.76207444  0.90380080  1
  Al  Al22  1  0.89032168  0.87788091  0.64213855  1
  Al  Al23  1  0.45811439  0.75346710  0.40170411  1
  Al  Al24  1  0.55200441  0.88397842  0.15479254  1
  Al  Al25  1  0.11395185  0.75981375  0.83010631  1
  Al  Al26  1  0.22985831  0.87481976  0.58335963  1
  Al  Al27  1  0.77461713  0.77356314  0.40521833  1
  Al  Al28  1  0.87697589  0.89256357  0.15382491  1
  Al  Al29  1  0.44678594  0.76005840  0.90336490  1
  Al  Al30  1  0.56401123  0.87539934  0.65578641  1
  B  B31  1  0.84150357  0.22661462  0.65119065  1
  B  B32  1  0.48222444  0.24007085  0.16587560  1
  B  B33  1  0.16724670  0.22857260  0.57110511  1
  B  B34  1  0.85540691  0.06978368  0.42497083  1
  B  B35  1  0.50606569  0.22568480  0.66598074  1
  N  N36  1  0.20684289  0.21481357  0.42277452  1
  N  N37  1  0.11854283  0.09589351  0.15261900  1
  N  N38  1  0.87419198  0.21011266  0.80251513  1
  N  N39  1  0.84044003  0.09035333  0.57075427  1
  N  N40  1  0.50005404  0.22905092  0.30740832  1
  N  N41  1  0.44892596  0.11278403  0.09141698  1
  N  N42  1  0.21323604  0.20626350  0.89748398  1
  N  N43  1  0.15946226  0.09401051  0.63661863  1
  N  N44  1  0.88493878  0.19092608  0.34566967  1
  N  N45  1  0.79717830  0.09046170  0.06745621  1
  N  N46  1  0.54647968  0.20950103  0.81697559  1
  N  N47  1  0.49824075  0.09351711  0.59604210  1
  N  N48  1  0.21356821  0.54629405  0.40095373  1
  N  N49  1  0.10952212  0.42765051  0.15245613  1
  N  N50  1  0.88297677  0.53919079  0.84094944  1
  N  N51  1  0.77885495  0.40238975  0.59549522  1
  N  N52  1  0.55807371  0.52985784  0.34283543  1
  N  N53  1  0.44704744  0.40543489  0.09456059  1
  N  N54  1  0.21522361  0.53874823  0.89086898  1
  N  N55  1  0.11434801  0.40138512  0.63549245  1
  N  N56  1  0.87760138  0.54370959  0.34908432  1
  N  N57  1  0.77688353  0.42513056  0.08965923  1
  N  N58  1  0.55287600  0.53555568  0.84523052  1
  N  N59  1  0.45392593  0.39690640  0.59957464  1
  N  N60  1  0.22854352  0.87098978  0.39472827  1
  N  N61  1  0.11206121  0.76060537  0.15019683  1
  N  N62  1  0.88306047  0.87240755  0.83081925  1
  N  N63  1  0.78408519  0.75536266  0.59105590  1
  N  N64  1  0.55384752  0.87979618  0.34423988  1
  N  N65  1  0.44741899  0.75875953  0.09548687  1
  N  N66  1  0.21344082  0.87992458  0.89218662  1
  N  N67  1  0.12545241  0.75405903  0.64170108  1
  N  N68  1  0.88056339  0.90594579  0.35793469  1
  N  N69  1  0.77522822  0.76787132  0.09653192  1
  N  N70  1  0.55647278  0.87232313  0.84536531  1
  N  N71  1  0.46352886  0.74831143  0.59385936  1
