# generated using pymatgen
data_Al31B5N36
_symmetry_space_group_name_H-M   'P 1'
_cell_length_a   9.38230378
_cell_length_b   9.12349848
_cell_length_c   10.11008948
_cell_angle_alpha   90.18075512
_cell_angle_beta   90.50553829
_cell_angle_gamma   60.76745844
_symmetry_Int_Tables_number   1
_chemical_formula_structural   Al31B5N36
_chemical_formula_sum   'Al31 B5 N36'
_cell_volume   755.17245428
_cell_formula_units_Z   1
loop_
 _symmetry_equiv_pos_site_id
 _symmetry_equiv_pos_as_xyz
  1  'x, y, z'
loop_
 _atom_site_type_symbol
 _atom_site_label
 _atom_site_symmetry_multiplicity
 _atom_site_fract_x
 _atom_site_fract_y
 _atom_site_fract_z
 _atom_site_occupancy
  Al  Al0  1  0.12126761  0.09069125  0.32879727  1
  Al  Al1  1  0.21313655  0.21263301  0.07086602  1
  Al  Al2  1  0.77652868  0.09372434  0.87402900  1
  Al  Al3  1  0.44736318  0.10133194  0.40241831  1
  Al  Al4  1  0.11387844  0.09632595  0.80235619  1
  Al  Al5  1  0.88357601  0.20216112  0.14029301  1
  Al  Al6  1  0.44564460  0.09696191  0.88668360  1
  Al  Al7  1  0.11339530  0.42769073  0.32793405  1
  Al  Al8  1  0.21023792  0.54284888  0.07187943  1
  Al  Al9  1  0.77697064  0.42255531  0.88543021  1
  Al  Al10  1  0.88120316  0.53158218  0.63773614  1
  Al  Al11  1  0.44621317  0.41899515  0.38868243  1
  Al  Al12  1  0.55459158  0.52921812  0.14019183  1
  Al  Al13  1  0.11349415  0.41986933  0.81801979  1
  Al  Al14  1  0.21723492  0.53050706  0.57365206  1
  Al  Al15  1  0.77780558  0.41641852  0.39268699  1
  Al  Al16  1  0.87787805  0.54472567  0.14356193  1
  Al  Al17  1  0.44631751  0.41944199  0.89032939  1
  Al  Al18  1  0.55411572  0.52637377  0.64395408  1
  Al  Al19  1  0.11778540  0.76254203  0.32413760  1
  Al  Al20  1  0.21269538  0.87974619  0.07202280  1
  Al  Al21  1  0.77841824  0.76232907  0.89137801  1
  Al  Al22  1  0.89228650  0.87626917  0.63052569  1
  Al  Al23  1  0.45849768  0.75350644  0.38994236  1
  Al  Al24  1  0.55205682  0.88427742  0.14291923  1
  Al  Al25  1  0.11372259  0.76028561  0.81952322  1
  Al  Al26  1  0.23014689  0.87384218  0.57135375  1
  Al  Al27  1  0.77623561  0.77260877  0.39253270  1
  Al  Al28  1  0.87710007  0.89274000  0.14034298  1
  Al  Al29  1  0.44667585  0.76028304  0.89144388  1
  Al  Al30  1  0.56487756  0.87506477  0.64312640  1
  B  B31  1  0.84311043  0.22517364  0.63737439  1
  B  B32  1  0.48033962  0.24155152  0.15304008  1
  B  B33  1  0.16859870  0.22853014  0.56008581  1
  B  B34  1  0.85721679  0.06797375  0.41174422  1
  B  B35  1  0.50549106  0.22609547  0.65294470  1
  N  N36  1  0.20633319  0.21584969  0.41193634  1
  N  N37  1  0.11977600  0.09571064  0.14252346  1
  N  N38  1  0.87406841  0.20981622  0.78841825  1
  N  N39  1  0.84416077  0.08751568  0.55710381  1
  N  N40  1  0.49698649  0.23072517  0.29395700  1
  N  N41  1  0.44923038  0.11282615  0.07852578  1
  N  N42  1  0.21221037  0.20670698  0.88620368  1
  N  N43  1  0.16173342  0.09301351  0.62517128  1
  N  N44  1  0.88455393  0.19083507  0.33284740  1
  N  N45  1  0.79987089  0.08984123  0.05315701  1
  N  N46  1  0.54478782  0.21037518  0.80381030  1
  N  N47  1  0.49964589  0.09301047  0.58280390  1
  N  N48  1  0.21266315  0.54716017  0.38887942  1
  N  N49  1  0.10968206  0.42807417  0.13888263  1
  N  N50  1  0.88228677  0.53943300  0.82805730  1
  N  N51  1  0.78008744  0.40141752  0.58207789  1
  N  N52  1  0.55819078  0.53008634  0.32984387  1
  N  N53  1  0.44691325  0.40569740  0.08156068  1
  N  N54  1  0.21360804  0.53986569  0.88171672  1
  N  N55  1  0.11630596  0.40076894  0.62533797  1
  N  N56  1  0.87851302  0.54317626  0.33495667  1
  N  N57  1  0.77674114  0.42507287  0.07635195  1
  N  N58  1  0.55225250  0.53590511  0.83192858  1
  N  N59  1  0.45412316  0.39680978  0.58618360  1
  N  N60  1  0.22806016  0.87053574  0.38354286  1
  N  N61  1  0.11271226  0.76018422  0.13656587  1
  N  N62  1  0.88227520  0.87245429  0.81800692  1
  N  N63  1  0.78588901  0.75416911  0.57771588  1
  N  N64  1  0.55436130  0.87973883  0.33156671  1
  N  N65  1  0.44792807  0.75884008  0.08263171  1
  N  N66  1  0.21279176  0.88101789  0.88128881  1
  N  N67  1  0.12806203  0.75185996  0.63270655  1
  N  N68  1  0.88137339  0.90522811  0.34365986  1
  N  N69  1  0.77505379  0.76814656  0.08309753  1
  N  N70  1  0.55577902  0.87274246  0.83198379  1
  N  N71  1  0.46475929  0.74766484  0.58074328  1
