# generated using pymatgen
data_Al31B5N36
_symmetry_space_group_name_H-M   'P 1'
_cell_length_a   9.33947593
_cell_length_b   9.17485293
_cell_length_c   10.04374309
_cell_angle_alpha   90.05316151
_cell_angle_beta   90.50493234
_cell_angle_gamma   60.28079387
_symmetry_Int_Tables_number   1
_chemical_formula_structural   Al31B5N36
_chemical_formula_sum   'Al31 B5 N36'
_cell_volume   747.39373240
_cell_formula_units_Z   1
loop_
 _symmetry_equiv_pos_site_id
 _symmetry_equiv_pos_as_xyz
  1  'x, y, z'
loop_
 _atom_site_type_symbol
 _atom_site_label
 _atom_site_symmetry_multiplicity
 _atom_site_fract_x
 _atom_site_fract_y
 _atom_site_fract_z
 _atom_site_occupancy
  Al  Al0  1  0.11739270  0.09178262  0.32635708  1
  Al  Al1  1  0.21953796  0.20927823  0.07229796  1
  Al  Al2  1  0.76261180  0.10441412  0.87211694  1
  Al  Al3  1  0.45796307  0.10163515  0.39436278  1
  Al  Al4  1  0.11410231  0.09820627  0.79989310  1
  Al  Al5  1  0.87250821  0.20234376  0.14218228  1
  Al  Al6  1  0.44810225  0.09476040  0.88668963  1
  Al  Al7  1  0.11557282  0.42639194  0.32599371  1
  Al  Al8  1  0.21855884  0.53672899  0.07329314  1
  Al  Al9  1  0.77806823  0.42299867  0.88398291  1
  Al  Al10  1  0.88378713  0.53032105  0.63496315  1
  Al  Al11  1  0.45431022  0.41227742  0.38090747  1
  Al  Al12  1  0.55474617  0.53261022  0.13723846  1
  Al  Al13  1  0.11972886  0.41718840  0.81560731  1
  Al  Al14  1  0.21868111  0.53163852  0.56772486  1
  Al  Al15  1  0.77670892  0.41722990  0.39199994  1
  Al  Al16  1  0.88114392  0.53844437  0.14145262  1
  Al  Al17  1  0.44762406  0.42191313  0.88883460  1
  Al  Al18  1  0.55144081  0.53022850  0.64025493  1
  Al  Al19  1  0.10648688  0.76869180  0.31862748  1
  Al  Al20  1  0.21348680  0.88043480  0.06866954  1
  Al  Al21  1  0.77514053  0.75386612  0.88581602  1
  Al  Al22  1  0.89625445  0.87720460  0.57762710  1
  Al  Al23  1  0.45360830  0.75591137  0.38671407  1
  Al  Al24  1  0.55415673  0.88162416  0.14054440  1
  Al  Al25  1  0.10938651  0.76206935  0.81752479  1
  Al  Al26  1  0.22566689  0.87771524  0.56853658  1
  Al  Al27  1  0.77333861  0.76833154  0.38868314  1
  Al  Al28  1  0.88380280  0.87878212  0.06916761  1
  Al  Al29  1  0.44529063  0.76149233  0.88661339  1
  Al  Al30  1  0.56080019  0.87871965  0.63857955  1
  B  B31  1  0.83431836  0.23310757  0.63990341  1
  B  B32  1  0.54611479  0.21012535  0.14174424  1
  B  B33  1  0.17414084  0.22713593  0.55480960  1
  B  B34  1  0.83327736  0.08340396  0.41247347  1
  B  B35  1  0.50519595  0.22768232  0.64852042  1
  N  N36  1  0.21198680  0.21248074  0.40472997  1
  N  N37  1  0.11161963  0.09762303  0.13641712  1
  N  N38  1  0.87174566  0.21040018  0.79198860  1
  N  N39  1  0.82180447  0.10686062  0.56111911  1
  N  N40  1  0.54352044  0.21031714  0.29529307  1
  N  N41  1  0.45889725  0.10750890  0.07871593  1
  N  N42  1  0.21483002  0.20478195  0.88533504  1
  N  N43  1  0.15803324  0.09692724  0.62039628  1
  N  N44  1  0.87958347  0.19175091  0.33255566  1
  N  N45  1  0.74619888  0.11459980  0.06867078  1
  N  N46  1  0.54176014  0.21226182  0.80081623  1
  N  N47  1  0.49635240  0.09630722  0.57910870  1
  N  N48  1  0.21604107  0.54671952  0.38037229  1
  N  N49  1  0.11346910  0.42552857  0.13706027  1
  N  N50  1  0.88686968  0.53441086  0.82478215  1
  N  N51  1  0.77891615  0.40572458  0.58240074  1
  N  N52  1  0.55751731  0.53386069  0.32751415  1
  N  N53  1  0.45591672  0.40428852  0.08033244  1
  N  N54  1  0.21547532  0.54005407  0.87972793  1
  N  N55  1  0.12069275  0.39985474  0.62005365  1
  N  N56  1  0.88015708  0.53991586  0.33450655  1
  N  N57  1  0.77826022  0.42186147  0.07442586  1
  N  N58  1  0.55272725  0.53759414  0.82853362  1
  N  N59  1  0.45456898  0.39837688  0.58261540  1
  N  N60  1  0.22232446  0.87148528  0.37916908  1
  N  N61  1  0.10601305  0.76506564  0.12928221  1
  N  N62  1  0.88890404  0.87206505  0.86895246  1
  N  N63  1  0.78416730  0.75350525  0.57986975  1
  N  N64  1  0.55257900  0.87855423  0.32934188  1
  N  N65  1  0.44694176  0.76062865  0.07940656  1
  N  N66  1  0.21128186  0.88195780  0.87588790  1
  N  N67  1  0.12006119  0.75619797  0.63022843  1
  N  N68  1  0.88454901  0.89916983  0.37919917  1
  N  N69  1  0.77321850  0.75736714  0.07898364  1
  N  N70  1  0.55446356  0.87304382  0.82698413  1
  N  N71  1  0.46009847  0.75135364  0.57852918  1
