# generated using pymatgen
data_Al31B5N36
_symmetry_space_group_name_H-M   'P 1'
_cell_length_a   9.30540601
_cell_length_b   9.16456167
_cell_length_c   9.94021341
_cell_angle_alpha   90.14425184
_cell_angle_beta   89.69686955
_cell_angle_gamma   60.42585798
_symmetry_Int_Tables_number   1
_chemical_formula_structural   Al31B5N36
_chemical_formula_sum   'Al31 B5 N36'
_cell_volume   737.23754135
_cell_formula_units_Z   1
loop_
 _symmetry_equiv_pos_site_id
 _symmetry_equiv_pos_as_xyz
  1  'x, y, z'
loop_
 _atom_site_type_symbol
 _atom_site_label
 _atom_site_symmetry_multiplicity
 _atom_site_fract_x
 _atom_site_fract_y
 _atom_site_fract_z
 _atom_site_occupancy
  Al  Al0  1  0.09861173  0.09888182  0.32225586  1
  Al  Al1  1  0.23320134  0.20429003  0.06526957  1
  Al  Al2  1  0.79120420  0.09405519  0.79500326  1
  Al  Al3  1  0.44637971  0.10885917  0.39617804  1
  Al  Al4  1  0.11562490  0.09715872  0.80268893  1
  Al  Al5  1  0.88702322  0.20432312  0.06437775  1
  Al  Al6  1  0.44835825  0.09262794  0.83800285  1
  Al  Al7  1  0.10486330  0.43046958  0.31024850  1
  Al  Al8  1  0.22776181  0.53142756  0.05966842  1
  Al  Al9  1  0.78154468  0.41714273  0.80278792  1
  Al  Al10  1  0.88776935  0.52851502  0.55473127  1
  Al  Al11  1  0.44304242  0.42977002  0.30640913  1
  Al  Al12  1  0.55798872  0.53198877  0.05994021  1
  Al  Al13  1  0.11342473  0.41934983  0.80570846  1
  Al  Al14  1  0.22063651  0.52932376  0.55509004  1
  Al  Al15  1  0.76933796  0.42891330  0.30980821  1
  Al  Al16  1  0.88996946  0.53610647  0.05781574  1
  Al  Al17  1  0.44054211  0.43485042  0.81134924  1
  Al  Al18  1  0.55336147  0.52817933  0.55567084  1
  Al  Al19  1  0.10424600  0.76875446  0.30670275  1
  Al  Al20  1  0.22168160  0.87601927  0.05993881  1
  Al  Al21  1  0.78362934  0.75847867  0.80795222  1
  Al  Al22  1  0.89157624  0.88148038  0.55008009  1
  Al  Al23  1  0.43950277  0.76922851  0.30903403  1
  Al  Al24  1  0.55927644  0.87806763  0.06090785  1
  Al  Al25  1  0.10965513  0.76242884  0.80791227  1
  Al  Al26  1  0.22716260  0.87640731  0.56004400  1
  Al  Al27  1  0.76903574  0.77249435  0.30784655  1
  Al  Al28  1  0.88395043  0.87961164  0.06251406  1
  Al  Al29  1  0.44613190  0.75859596  0.81000296  1
  Al  Al30  1  0.56608874  0.86656322  0.56806322  1
  B  B31  1  0.83267499  0.22200610  0.53488533  1
  B  B32  1  0.55723714  0.19596677  0.14964332  1
  B  B33  1  0.16754374  0.22890903  0.54901751  1
  B  B34  1  0.77328168  0.09453969  0.30368822  1
  B  B35  1  0.51352154  0.22487901  0.64780729  1
  N  N36  1  0.20520737  0.21590551  0.39492212  1
  N  N37  1  0.11014387  0.09907196  0.12908880  1
  N  N38  1  0.89553599  0.20131737  0.87351351  1
  N  N39  1  0.81949322  0.09739729  0.61014321  1
  N  N40  1  0.57206794  0.19365871  0.31343381  1
  N  N41  1  0.46375088  0.10913376  0.09153496  1
  N  N42  1  0.22536312  0.20347149  0.87402979  1
  N  N43  1  0.14975503  0.09971732  0.61579971  1
  N  N44  1  0.86136007  0.20238226  0.37821492  1
  N  N45  1  0.76759453  0.10159597  0.13916269  1
  N  N46  1  0.55993055  0.20391057  0.79837362  1
  N  N47  1  0.48098047  0.10140566  0.58855197  1
  N  N48  1  0.21869173  0.54063460  0.36565537  1
  N  N49  1  0.10982211  0.42739045  0.12117629  1
  N  N50  1  0.89103432  0.53303712  0.86344212  1
  N  N51  1  0.78193145  0.39829424  0.60333202  1
  N  N52  1  0.54834123  0.54398336  0.36717978  1
  N  N53  1  0.45398512  0.40758149  0.11529934  1
  N  N54  1  0.22060470  0.53697606  0.86653945  1
  N  N55  1  0.11353629  0.40339033  0.61146548  1
  N  N56  1  0.88252126  0.54331503  0.36618686  1
  N  N57  1  0.77646779  0.42803791  0.12050487  1
  N  N58  1  0.56059170  0.53441522  0.86754742  1
  N  N59  1  0.44262491  0.41071712  0.61386359  1
  N  N60  1  0.21912045  0.87417613  0.37036524  1
  N  N61  1  0.11113233  0.76100753  0.11604736  1
  N  N62  1  0.88761784  0.87717014  0.86920843  1
  N  N63  1  0.79027679  0.75367876  0.61690748  1
  N  N64  1  0.55202484  0.87485396  0.37569041  1
  N  N65  1  0.44440862  0.76330740  0.11676997  1
  N  N66  1  0.22339056  0.87313964  0.86682693  1
  N  N67  1  0.11534270  0.75615892  0.61555739  1
  N  N68  1  0.87320383  0.89999856  0.35799657  1
  N  N69  1  0.77848484  0.76027008  0.11726869  1
  N  N70  1  0.56196451  0.86550550  0.86551349  1
  N  N71  1  0.45167951  0.75167500  0.62025807  1
