# generated using pymatgen
data_Al31B5N36
_symmetry_space_group_name_H-M   'P 1'
_cell_length_a   9.33453993
_cell_length_b   9.16033513
_cell_length_c   9.81754857
_cell_angle_alpha   90.08255406
_cell_angle_beta   90.42384540
_cell_angle_gamma   60.44067629
_symmetry_Int_Tables_number   1
_chemical_formula_structural   Al31B5N36
_chemical_formula_sum   'Al31 B5 N36'
_cell_volume   730.19039430
_cell_formula_units_Z   1
loop_
 _symmetry_equiv_pos_site_id
 _symmetry_equiv_pos_as_xyz
  1  'x, y, z'
loop_
 _atom_site_type_symbol
 _atom_site_label
 _atom_site_symmetry_multiplicity
 _atom_site_fract_x
 _atom_site_fract_y
 _atom_site_fract_z
 _atom_site_occupancy
  Al  Al0  1  0.11876232  0.09475961  0.40334030  1
  Al  Al1  1  0.22026938  0.20587254  0.14264865  1
  Al  Al2  1  0.76137430  0.10158592  0.89049114  1
  Al  Al3  1  0.44713356  0.10457906  0.39284887  1
  Al  Al4  1  0.10320405  0.10410131  0.82745000  1
  Al  Al5  1  0.88205359  0.20128339  0.15106813  1
  Al  Al6  1  0.43832481  0.09857245  0.89973115  1
  Al  Al7  1  0.11354650  0.42272161  0.39899438  1
  Al  Al8  1  0.22253206  0.53669638  0.15125363  1
  Al  Al9  1  0.77458708  0.42600602  0.89824274  1
  Al  Al10  1  0.89405100  0.52366545  0.64944996  1
  Al  Al11  1  0.44994375  0.41355980  0.39444348  1
  Al  Al12  1  0.55470476  0.53223196  0.14951409  1
  Al  Al13  1  0.10647070  0.42972187  0.90233234  1
  Al  Al14  1  0.22104459  0.53043423  0.65218609  1
  Al  Al15  1  0.77787001  0.41588256  0.40223192  1
  Al  Al16  1  0.88626212  0.53924393  0.15372890  1
  Al  Al17  1  0.43889767  0.42632298  0.90203613  1
  Al  Al18  1  0.55667393  0.52515738  0.65339263  1
  Al  Al19  1  0.11405870  0.76175578  0.40025449  1
  Al  Al20  1  0.21812110  0.87865984  0.15125184  1
  Al  Al21  1  0.77581759  0.76254280  0.90135109  1
  Al  Al22  1  0.89571724  0.87560686  0.64740117  1
  Al  Al23  1  0.45160739  0.75656398  0.39922585  1
  Al  Al24  1  0.55434006  0.88047126  0.15141899  1
  Al  Al25  1  0.10587892  0.76889072  0.90130292  1
  Al  Al26  1  0.23696620  0.86460876  0.64052363  1
  Al  Al27  1  0.77772078  0.76997811  0.40332465  1
  Al  Al28  1  0.87693031  0.89001523  0.15362291  1
  Al  Al29  1  0.43871567  0.76516998  0.90047099  1
  Al  Al30  1  0.55532224  0.87867151  0.65093986  1
  B  B31  1  0.83573421  0.22585730  0.65082864  1
  B  B32  1  0.54756004  0.20982083  0.15450725  1
  B  B33  1  0.22988536  0.20676182  0.63355608  1
  B  B34  1  0.83586942  0.07627166  0.41935435  1
  B  B35  1  0.48959506  0.23659232  0.66511306  1
  N  N36  1  0.22534164  0.20465115  0.33590073  1
  N  N37  1  0.10022757  0.09944846  0.09680434  1
  N  N38  1  0.86865438  0.21022290  0.80603761  1
  N  N39  1  0.82366915  0.09340795  0.57208966  1
  N  N40  1  0.55101953  0.20793680  0.31195141  1
  N  N41  1  0.45241229  0.10952195  0.09260394  1
  N  N42  1  0.22222346  0.21181923  0.83814880  1
  N  N43  1  0.15603097  0.09540744  0.60104926  1
  N  N44  1  0.88905227  0.18780311  0.34758735  1
  N  N45  1  0.74423477  0.11423162  0.08545347  1
  N  N46  1  0.54111933  0.21078830  0.81295835  1
  N  N47  1  0.43078818  0.12386424  0.59850898  1
  N  N48  1  0.22168751  0.53922144  0.34425063  1
  N  N49  1  0.10392548  0.43356911  0.09349348  1
  N  N50  1  0.88597369  0.53764406  0.84103322  1
  N  N51  1  0.78147954  0.40046501  0.59578897  1
  N  N52  1  0.55829061  0.53236572  0.34345506  1
  N  N53  1  0.44945447  0.40719668  0.09422057  1
  N  N54  1  0.21774360  0.54259862  0.84401273  1
  N  N55  1  0.12310542  0.39999661  0.59467237  1
  N  N56  1  0.88711794  0.53809069  0.34926605  1
  N  N57  1  0.77533218  0.42645733  0.09153400  1
  N  N58  1  0.55137664  0.53758461  0.84463907  1
  N  N59  1  0.44937239  0.39946709  0.59612706  1
  N  N60  1  0.22911085  0.86926336  0.34726945  1
  N  N61  1  0.10391353  0.76641322  0.09536875  1
  N  N62  1  0.88469825  0.87695042  0.83969379  1
  N  N63  1  0.78131359  0.75972829  0.59482575  1
  N  N64  1  0.55749023  0.87551180  0.34578952  1
  N  N65  1  0.44173696  0.76307346  0.09396109  1
  N  N66  1  0.22154895  0.87127626  0.83297490  1
  N  N67  1  0.11874624  0.75294256  0.59140991  1
  N  N68  1  0.88389854  0.90096123  0.35378047  1
  N  N69  1  0.77614112  0.76480162  0.09672606  1
  N  N70  1  0.55397580  0.87413487  0.84301939  1
  N  N71  1  0.45964153  0.74752153  0.59139597  1
