# generated using pymatgen
data_Al31B5N36
_symmetry_space_group_name_H-M   'P 1'
_cell_length_a   9.42798305
_cell_length_b   9.14204279
_cell_length_c   9.95841366
_cell_angle_alpha   90.12045470
_cell_angle_beta   90.57844950
_cell_angle_gamma   61.04027570
_symmetry_Int_Tables_number   1
_chemical_formula_structural   Al31B5N36
_chemical_formula_sum   'Al31 B5 N36'
_cell_volume   750.95897317
_cell_formula_units_Z   1
loop_
 _symmetry_equiv_pos_site_id
 _symmetry_equiv_pos_as_xyz
  1  'x, y, z'
loop_
 _atom_site_type_symbol
 _atom_site_label
 _atom_site_symmetry_multiplicity
 _atom_site_fract_x
 _atom_site_fract_y
 _atom_site_fract_z
 _atom_site_occupancy
  Al  Al0  1  0.11974957  0.08893655  0.33938516  1
  Al  Al1  1  0.21720875  0.20664130  0.08233545  1
  Al  Al2  1  0.77365187  0.09572354  0.88654301  1
  Al  Al3  1  0.45234200  0.09878894  0.41027297  1
  Al  Al4  1  0.11227405  0.10271873  0.80962259  1
  Al  Al5  1  0.87993001  0.20254981  0.15127513  1
  Al  Al6  1  0.44424399  0.09883394  0.89477906  1
  Al  Al7  1  0.10169563  0.43782476  0.39975611  1
  Al  Al8  1  0.21671666  0.54044659  0.15403801  1
  Al  Al9  1  0.77355339  0.42350024  0.89798790  1
  Al  Al10  1  0.88722354  0.52811919  0.65347954  1
  Al  Al11  1  0.44078861  0.42125243  0.39976621  1
  Al  Al12  1  0.55538917  0.52846647  0.15126309  1
  Al  Al13  1  0.09942100  0.43789738  0.90205947  1
  Al  Al14  1  0.22250831  0.52378186  0.65347751  1
  Al  Al15  1  0.77623873  0.41603036  0.40405708  1
  Al  Al16  1  0.88198158  0.54261620  0.15334204  1
  Al  Al17  1  0.43868091  0.42417333  0.90158166  1
  Al  Al18  1  0.55512178  0.52538004  0.65498965  1
  Al  Al19  1  0.11146041  0.76174284  0.40430396  1
  Al  Al20  1  0.22293300  0.87434969  0.10858486  1
  Al  Al21  1  0.77534386  0.76479051  0.90380515  1
  Al  Al22  1  0.89929412  0.87095953  0.64581130  1
  Al  Al23  1  0.45721581  0.75403257  0.40083363  1
  Al  Al24  1  0.55571212  0.88359246  0.15346324  1
  Al  Al25  1  0.10420617  0.76616178  0.89668034  1
  Al  Al26  1  0.23552621  0.87152931  0.60157595  1
  Al  Al27  1  0.77612288  0.77199901  0.40357538  1
  Al  Al28  1  0.88325450  0.88918350  0.15127378  1
  Al  Al29  1  0.44279729  0.76289852  0.89771003  1
  Al  Al30  1  0.56820974  0.87413699  0.65359056  1
  B  B31  1  0.84131463  0.22565439  0.65088273  1
  B  B32  1  0.48658025  0.23828319  0.16469655  1
  B  B33  1  0.16980899  0.22526872  0.55895696  1
  B  B34  1  0.85521624  0.06915981  0.42423917  1
  B  B35  1  0.50558422  0.22563300  0.66414843  1
  N  N36  1  0.21797931  0.20464794  0.41049537  1
  N  N37  1  0.11404116  0.09828700  0.14972975  1
  N  N38  1  0.87370942  0.21085057  0.80319003  1
  N  N39  1  0.84092717  0.08735847  0.57144525  1
  N  N40  1  0.51004531  0.22638332  0.30710930  1
  N  N41  1  0.44908067  0.11250779  0.09144860  1
  N  N42  1  0.21568809  0.20646875  0.89210008  1
  N  N43  1  0.15320080  0.09925818  0.62787814  1
  N  N44  1  0.88521322  0.19060929  0.34591503  1
  N  N45  1  0.78985816  0.09279248  0.06905365  1
  N  N46  1  0.54658497  0.21160050  0.81607141  1
  N  N47  1  0.49835740  0.09325182  0.59432317  1
  N  N48  1  0.21617643  0.54376929  0.34419887  1
  N  N49  1  0.09779056  0.43851530  0.09724561  1
  N  N50  1  0.88235763  0.53950740  0.84348327  1
  N  N51  1  0.77878055  0.40204981  0.59580806  1
  N  N52  1  0.55816402  0.53003363  0.34347023  1
  N  N53  1  0.43949338  0.41002512  0.09420532  1
  N  N54  1  0.21907500  0.53833074  0.84283597  1
  N  N55  1  0.10559673  0.41050319  0.59496869  1
  N  N56  1  0.88240012  0.54041960  0.34534613  1
  N  N57  1  0.77458815  0.42561392  0.09058544  1
  N  N58  1  0.55193669  0.53570729  0.84531201  1
  N  N59  1  0.44699905  0.40040354  0.59722139  1
  N  N60  1  0.23311200  0.86627189  0.37959834  1
  N  N61  1  0.10597657  0.76145309  0.09308608  1
  N  N62  1  0.88732157  0.87075568  0.83371476  1
  N  N63  1  0.78707309  0.75272773  0.59200940  1
  N  N64  1  0.55780230  0.87664734  0.34395480  1
  N  N65  1  0.44858561  0.75937606  0.09356468  1
  N  N66  1  0.21955588  0.87784984  0.86202758  1
  N  N67  1  0.12061391  0.74745118  0.59514599  1
  N  N68  1  0.88618302  0.90214064  0.35431830  1
  N  N69  1  0.77491798  0.76825629  0.09724417  1
  N  N70  1  0.55682953  0.87372260  0.84430543  1
  N  N71  1  0.46445869  0.74822716  0.59397599  1
