# generated using pymatgen
data_Al31B5N36
_symmetry_space_group_name_H-M   'P 1'
_cell_length_a   9.29351167
_cell_length_b   9.17466325
_cell_length_c   9.76718231
_cell_angle_alpha   90.01433080
_cell_angle_beta   89.30563107
_cell_angle_gamma   60.09918001
_symmetry_Int_Tables_number   1
_chemical_formula_structural   Al31B5N36
_chemical_formula_sum   'Al31 B5 N36'
_cell_volume   721.87124662
_cell_formula_units_Z   1
loop_
 _symmetry_equiv_pos_site_id
 _symmetry_equiv_pos_as_xyz
  1  'x, y, z'
loop_
 _atom_site_type_symbol
 _atom_site_label
 _atom_site_symmetry_multiplicity
 _atom_site_fract_x
 _atom_site_fract_y
 _atom_site_fract_z
 _atom_site_occupancy
  Al  Al0  1  0.09814986  0.09811204  0.31047910  1
  Al  Al1  1  0.22809286  0.20473993  0.04873458  1
  Al  Al2  1  0.77534350  0.10066915  0.79556501  1
  Al  Al3  1  0.44603175  0.10096562  0.30979884  1
  Al  Al4  1  0.11832519  0.09720923  0.78845193  1
  Al  Al5  1  0.88348006  0.20419163  0.05160685  1
  Al  Al6  1  0.45616182  0.09706823  0.79381118  1
  Al  Al7  1  0.10831362  0.42934986  0.29622975  1
  Al  Al8  1  0.22585146  0.53325746  0.04383101  1
  Al  Al9  1  0.78260267  0.41649708  0.78975616  1
  Al  Al10  1  0.89151371  0.52758209  0.54190494  1
  Al  Al11  1  0.45108621  0.41729284  0.29616711  1
  Al  Al12  1  0.55652400  0.53309194  0.04408406  1
  Al  Al13  1  0.11705609  0.41694312  0.79075180  1
  Al  Al14  1  0.22935699  0.52431728  0.54444362  1
  Al  Al15  1  0.77114918  0.42859329  0.29619970  1
  Al  Al16  1  0.88877104  0.53739741  0.04268511  1
  Al  Al17  1  0.45104447  0.41572688  0.79716874  1
  Al  Al18  1  0.55348115  0.53232829  0.54382892  1
  Al  Al19  1  0.10535012  0.76693575  0.29549863  1
  Al  Al20  1  0.21948384  0.87655916  0.04573818  1
  Al  Al21  1  0.78099922  0.76009004  0.79354010  1
  Al  Al22  1  0.88465568  0.88543010  0.54089082  1
  Al  Al23  1  0.44059220  0.76465617  0.29468562  1
  Al  Al24  1  0.55528425  0.88055067  0.04673296  1
  Al  Al25  1  0.11101725  0.76204716  0.79418117  1
  Al  Al26  1  0.22867719  0.87599248  0.54610089  1
  Al  Al27  1  0.77279192  0.76882826  0.29486674  1
  Al  Al28  1  0.88013118  0.88257673  0.05100685  1
  Al  Al29  1  0.44773906  0.76011800  0.79648258  1
  Al  Al30  1  0.56154103  0.87867504  0.54805147  1
  B  B31  1  0.82625923  0.22999373  0.52365313  1
  B  B32  1  0.55230130  0.20928608  0.05301741  1
  B  B33  1  0.17649586  0.22473036  0.53052938  1
  B  B34  1  0.76273865  0.09890606  0.30025438  1
  B  B35  1  0.56346426  0.20222934  0.54216773  1
  N  N36  1  0.21347757  0.21018790  0.37441718  1
  N  N37  1  0.10625900  0.09991845  0.11487628  1
  N  N38  1  0.89711397  0.19864934  0.85743612  1
  N  N39  1  0.77050277  0.12168315  0.59629824  1
  N  N40  1  0.57760501  0.19500327  0.37160467  1
  N  N41  1  0.45337257  0.11165751  0.11025349  1
  N  N42  1  0.23344622  0.19961370  0.85736436  1
  N  N43  1  0.14384776  0.10202429  0.59697272  1
  N  N44  1  0.86177343  0.20157229  0.36816881  1
  N  N45  1  0.75104107  0.11050247  0.12704765  1
  N  N46  1  0.56361588  0.20220673  0.88547515  1
  N  N47  1  0.49650072  0.09693483  0.60532466  1
  N  N48  1  0.22289912  0.53779366  0.35161660  1
  N  N49  1  0.10864528  0.42861637  0.10440026  1
  N  N50  1  0.89196467  0.53246363  0.84648832  1
  N  N51  1  0.78482890  0.39861807  0.58952582  1
  N  N52  1  0.54976799  0.54116549  0.35167237  1
  N  N53  1  0.45425949  0.40460443  0.10090572  1
  N  N54  1  0.22434364  0.53484383  0.84786822  1
  N  N55  1  0.11908189  0.39967136  0.59419273  1
  N  N56  1  0.88525885  0.54047459  0.35102895  1
  N  N57  1  0.77551683  0.42870472  0.10474930  1
  N  N58  1  0.55957752  0.53320194  0.84953503  1
  N  N59  1  0.45811904  0.39929459  0.59872243  1
  N  N60  1  0.21973547  0.87288339  0.35481551  1
  N  N61  1  0.10861357  0.76210183  0.10167407  1
  N  N62  1  0.88787292  0.87634288  0.85392902  1
  N  N63  1  0.78906789  0.75284194  0.59968937  1
  N  N64  1  0.55198586  0.87464548  0.35464063  1
  N  N65  1  0.44257299  0.76316388  0.10087046  1
  N  N66  1  0.22332568  0.87338734  0.85115016  1
  N  N67  1  0.11212032  0.76070801  0.59963750  1
  N  N68  1  0.87213633  0.90109563  0.34570564  1
  N  N69  1  0.77633150  0.76165228  0.10222173  1
  N  N70  1  0.55870575  0.87203086  0.85324621  1
  N  N71  1  0.45285462  0.75680136  0.60357819  1
