# generated using pymatgen
data_Al31B5N36
_symmetry_space_group_name_H-M   'P 1'
_cell_length_a   9.32951700
_cell_length_b   9.18987660
_cell_length_c   9.94934454
_cell_angle_alpha   89.96459407
_cell_angle_beta   89.86416830
_cell_angle_gamma   60.22738784
_symmetry_Int_Tables_number   1
_chemical_formula_structural   Al31B5N36
_chemical_formula_sum   'Al31 B5 N36'
_cell_volume   740.42859407
_cell_formula_units_Z   1
loop_
 _symmetry_equiv_pos_site_id
 _symmetry_equiv_pos_as_xyz
  1  'x, y, z'
loop_
 _atom_site_type_symbol
 _atom_site_label
 _atom_site_symmetry_multiplicity
 _atom_site_fract_x
 _atom_site_fract_y
 _atom_site_fract_z
 _atom_site_occupancy
  Al  Al0  1  0.09645101  0.09979216  0.33528314  1
  Al  Al1  1  0.22410763  0.20754477  0.07739083  1
  Al  Al2  1  0.78884477  0.09640461  0.80328316  1
  Al  Al3  1  0.45114976  0.10007583  0.40413505  1
  Al  Al4  1  0.11808649  0.09732334  0.81417708  1
  Al  Al5  1  0.88682665  0.20540961  0.07465029  1
  Al  Al6  1  0.45927841  0.09231128  0.89122353  1
  Al  Al7  1  0.10403869  0.42937383  0.32431983  1
  Al  Al8  1  0.22135469  0.53540369  0.07640830  1
  Al  Al9  1  0.78225755  0.41729290  0.81401818  1
  Al  Al10  1  0.88682115  0.52911997  0.56799790  1
  Al  Al11  1  0.44516761  0.41875845  0.36575951  1
  Al  Al12  1  0.56120099  0.53684086  0.07455992  1
  Al  Al13  1  0.11792561  0.41598725  0.81763379  1
  Al  Al14  1  0.21812142  0.53012983  0.56851758  1
  Al  Al15  1  0.76880278  0.42904138  0.32199172  1
  Al  Al16  1  0.88923338  0.53747527  0.06868337  1
  Al  Al17  1  0.45035304  0.41698268  0.88494771  1
  Al  Al18  1  0.55433634  0.52920521  0.57107670  1
  Al  Al19  1  0.10104269  0.77133012  0.31783505  1
  Al  Al20  1  0.21915623  0.87667934  0.06972278  1
  Al  Al21  1  0.78911336  0.75566884  0.82051137  1
  Al  Al22  1  0.88999208  0.88219281  0.56142859  1
  Al  Al23  1  0.43285848  0.76546990  0.32306250  1
  Al  Al24  1  0.55240240  0.88564293  0.13910381  1
  Al  Al25  1  0.11076242  0.76095806  0.81857573  1
  Al  Al26  1  0.22539809  0.87672723  0.57250469  1
  Al  Al27  1  0.77668456  0.76697382  0.32343086  1
  Al  Al28  1  0.88188195  0.88070598  0.07162431  1
  Al  Al29  1  0.44349221  0.75695308  0.82150260  1
  Al  Al30  1  0.55787427  0.88255752  0.63779577  1
  B  B31  1  0.83267848  0.22187167  0.54629593  1
  B  B32  1  0.55689145  0.20517321  0.15205272  1
  B  B33  1  0.16999086  0.22753128  0.56045322  1
  B  B34  1  0.77101138  0.09509210  0.31088792  1
  B  B35  1  0.50435107  0.22995416  0.65183167  1
  N  N36  1  0.20613095  0.21405152  0.40607051  1
  N  N37  1  0.10921457  0.09844126  0.14203796  1
  N  N38  1  0.89529720  0.20112063  0.88443544  1
  N  N39  1  0.82638044  0.09483001  0.62152849  1
  N  N40  1  0.56591142  0.19628480  0.31235597  1
  N  N41  1  0.46659764  0.10986023  0.08604623  1
  N  N42  1  0.22694868  0.20187522  0.88915722  1
  N  N43  1  0.15308507  0.09882881  0.62787812  1
  N  N44  1  0.85838895  0.20339290  0.38876251  1
  N  N45  1  0.76769808  0.10290795  0.14700339  1
  N  N46  1  0.55124954  0.20920260  0.80323344  1
  N  N47  1  0.49027144  0.09947838  0.58551748  1
  N  N48  1  0.21238141  0.54470320  0.37555897  1
  N  N49  1  0.10863353  0.42740054  0.13598362  1
  N  N50  1  0.89381902  0.53091839  0.87503308  1
  N  N51  1  0.78280315  0.39793361  0.61542456  1
  N  N52  1  0.54919264  0.54363573  0.37827705  1
  N  N53  1  0.46054630  0.39886485  0.09429444  1
  N  N54  1  0.21922143  0.53740253  0.88030737  1
  N  N55  1  0.11476078  0.40195768  0.62331219  1
  N  N56  1  0.88244457  0.54103421  0.37987548  1
  N  N57  1  0.77859086  0.42815601  0.13335933  1
  N  N58  1  0.56344213  0.53535626  0.87994779  1
  N  N59  1  0.44891732  0.39889662  0.58774207  1
  N  N60  1  0.21490573  0.87530262  0.38338317  1
  N  N61  1  0.10819254  0.76388498  0.12794127  1
  N  N62  1  0.88703236  0.87903016  0.87962480  1
  N  N63  1  0.79233838  0.75323205  0.62579630  1
  N  N64  1  0.54603539  0.88341528  0.33796179  1
  N  N65  1  0.43882010  0.76271331  0.12793423  1
  N  N66  1  0.22206038  0.87309245  0.87794066  1
  N  N67  1  0.11496122  0.75541805  0.62709754  1
  N  N68  1  0.87042459  0.90286069  0.36900799  1
  N  N69  1  0.78204388  0.75882948  0.12856740  1
  N  N70  1  0.55931841  0.87289714  0.83655045  1
  N  N71  1  0.44927071  0.75247853  0.62794165  1
