# generated using pymatgen
data_Al31B5N36
_symmetry_space_group_name_H-M   'P 1'
_cell_length_a   9.33255575
_cell_length_b   9.20952688
_cell_length_c   9.94785088
_cell_angle_alpha   89.94698291
_cell_angle_beta   89.95007226
_cell_angle_gamma   60.21493793
_symmetry_Int_Tables_number   1
_chemical_formula_structural   Al31B5N36
_chemical_formula_sum   'Al31 B5 N36'
_cell_volume   742.05163694
_cell_formula_units_Z   1
loop_
 _symmetry_equiv_pos_site_id
 _symmetry_equiv_pos_as_xyz
  1  'x, y, z'
loop_
 _atom_site_type_symbol
 _atom_site_label
 _atom_site_symmetry_multiplicity
 _atom_site_fract_x
 _atom_site_fract_y
 _atom_site_fract_z
 _atom_site_occupancy
  Al  Al0  1  0.09617361  0.10001737  0.33364863  1
  Al  Al1  1  0.22368126  0.20753986  0.07724012  1
  Al  Al2  1  0.78731556  0.09708886  0.80244636  1
  Al  Al3  1  0.45075217  0.10019959  0.40135797  1
  Al  Al4  1  0.11750366  0.09792469  0.81375367  1
  Al  Al5  1  0.88575008  0.20578421  0.07431077  1
  Al  Al6  1  0.45840920  0.09349996  0.89048644  1
  Al  Al7  1  0.10674651  0.42973375  0.32430525  1
  Al  Al8  1  0.22101735  0.53508895  0.07398755  1
  Al  Al9  1  0.78903902  0.41430802  0.81426635  1
  Al  Al10  1  0.88688304  0.53001127  0.56715032  1
  Al  Al11  1  0.45146334  0.41409403  0.38738774  1
  Al  Al12  1  0.55203596  0.53169899  0.13588478  1
  Al  Al13  1  0.11907640  0.41643200  0.81810955  1
  Al  Al14  1  0.21413983  0.53329282  0.57029113  1
  Al  Al15  1  0.77531021  0.42605293  0.32609611  1
  Al  Al16  1  0.88796732  0.53742586  0.06897678  1
  Al  Al17  1  0.45550947  0.41690928  0.88925305  1
  Al  Al18  1  0.55278409  0.52479080  0.62700380  1
  Al  Al19  1  0.10266078  0.76915497  0.31784968  1
  Al  Al20  1  0.21877839  0.87687160  0.06908749  1
  Al  Al21  1  0.78879000  0.75617163  0.82021434  1
  Al  Al22  1  0.88923581  0.88345531  0.56079633  1
  Al  Al23  1  0.43119910  0.76939692  0.32836125  1
  Al  Al24  1  0.55232646  0.88461685  0.13760366  1
  Al  Al25  1  0.11044973  0.76148046  0.81896893  1
  Al  Al26  1  0.22315537  0.87948543  0.57128813  1
  Al  Al27  1  0.77730591  0.76713175  0.32235071  1
  Al  Al28  1  0.88190291  0.88041314  0.07148827  1
  Al  Al29  1  0.44128450  0.76197080  0.82124040  1
  Al  Al30  1  0.55823610  0.88336233  0.63517754  1
  B  B31  1  0.83391483  0.22164512  0.54478311  1
  B  B32  1  0.55635985  0.20499884  0.15116041  1
  B  B33  1  0.16925987  0.22834425  0.56014347  1
  B  B34  1  0.77065640  0.09489194  0.30985061  1
  B  B35  1  0.50449866  0.22858404  0.65102262  1
  N  N36  1  0.20563065  0.21422704  0.40560800  1
  N  N37  1  0.10883833  0.09837096  0.14094919  1
  N  N38  1  0.89517477  0.20009137  0.88430368  1
  N  N39  1  0.82498540  0.09614884  0.62069818  1
  N  N40  1  0.56413972  0.19902218  0.31169234  1
  N  N41  1  0.46651956  0.10929013  0.08575941  1
  N  N42  1  0.22616491  0.20231560  0.88893723  1
  N  N43  1  0.15126816  0.10072508  0.62758016  1
  N  N44  1  0.85974218  0.20152645  0.38809900  1
  N  N45  1  0.76719180  0.10249123  0.14664532  1
  N  N46  1  0.54894757  0.21038806  0.80178748  1
  N  N47  1  0.49073623  0.09983134  0.58296255  1
  N  N48  1  0.21460538  0.54384672  0.37846113  1
  N  N49  1  0.10935420  0.42739733  0.13572138  1
  N  N50  1  0.89437236  0.53158521  0.87539238  1
  N  N51  1  0.78754053  0.39568470  0.61082389  1
  N  N52  1  0.54702185  0.53921376  0.34193441  1
  N  N53  1  0.46297750  0.39556990  0.08501567  1
  N  N54  1  0.22086685  0.53748169  0.87893350  1
  N  N55  1  0.11495781  0.40223273  0.62381827  1
  N  N56  1  0.88450250  0.54206014  0.37952728  1
  N  N57  1  0.78123921  0.42605977  0.13311495  1
  N  N58  1  0.55977833  0.53033068  0.83046973  1
  N  N59  1  0.44989203  0.39797607  0.58382161  1
  N  N60  1  0.21262248  0.87690085  0.38275809  1
  N  N61  1  0.10909766  0.76259180  0.12752443  1
  N  N62  1  0.88627270  0.87983545  0.87934772  1
  N  N63  1  0.79277856  0.75350586  0.62553461  1
  N  N64  1  0.54688128  0.88356470  0.33711131  1
  N  N65  1  0.43734793  0.76548574  0.12488400  1
  N  N66  1  0.22105337  0.87428258  0.87720679  1
  N  N67  1  0.11428718  0.75743080  0.62768252  1
  N  N68  1  0.87065716  0.90267126  0.36829026  1
  N  N69  1  0.78208861  0.75869909  0.12785606  1
  N  N70  1  0.55888327  0.87433645  0.83500557  1
  N  N71  1  0.44716081  0.75866696  0.61974261  1
