# generated using pymatgen
data_Al31B5N36
_symmetry_space_group_name_H-M   'P 1'
_cell_length_a   9.29347639
_cell_length_b   9.17469896
_cell_length_c   9.76719591
_cell_angle_alpha   90.01446344
_cell_angle_beta   89.30603318
_cell_angle_gamma   60.09915613
_symmetry_Int_Tables_number   1
_chemical_formula_structural   Al31B5N36
_chemical_formula_sum   'Al31 B5 N36'
_cell_volume   721.87221652
_cell_formula_units_Z   1
loop_
 _symmetry_equiv_pos_site_id
 _symmetry_equiv_pos_as_xyz
  1  'x, y, z'
loop_
 _atom_site_type_symbol
 _atom_site_label
 _atom_site_symmetry_multiplicity
 _atom_site_fract_x
 _atom_site_fract_y
 _atom_site_fract_z
 _atom_site_occupancy
  Al  Al0  1  0.09790065  0.09818875  0.32199489  1
  Al  Al1  1  0.22784239  0.20482320  0.06026143  1
  Al  Al2  1  0.77508026  0.10076772  0.80709347  1
  Al  Al3  1  0.44577709  0.10106713  0.32134127  1
  Al  Al4  1  0.11805844  0.09730060  0.79998893  1
  Al  Al5  1  0.88322743  0.20428005  0.06313417  1
  Al  Al6  1  0.45591369  0.09716460  0.80535280  1
  Al  Al7  1  0.10806046  0.42943389  0.30776790  1
  Al  Al8  1  0.22560241  0.53333588  0.05536835  1
  Al  Al9  1  0.78234230  0.41659916  0.80128812  1
  Al  Al10  1  0.89125784  0.52768241  0.55343396  1
  Al  Al11  1  0.45084086  0.41738451  0.30771465  1
  Al  Al12  1  0.55627712  0.53318183  0.05562523  1
  Al  Al13  1  0.11679489  0.41703098  0.80228517  1
  Al  Al14  1  0.22911669  0.52438553  0.55598839  1
  Al  Al15  1  0.77089912  0.42868716  0.30773917  1
  Al  Al16  1  0.88851876  0.53748605  0.05422199  1
  Al  Al17  1  0.45078931  0.41582590  0.80871366  1
  Al  Al18  1  0.55322727  0.53243038  0.55537248  1
  Al  Al19  1  0.10511003  0.76700841  0.30704003  1
  Al  Al20  1  0.21924488  0.87663152  0.05727505  1
  Al  Al21  1  0.78074431  0.76018733  0.80508058  1
  Al  Al22  1  0.88441143  0.88551645  0.55242341  1
  Al  Al23  1  0.44034655  0.76475070  0.30623093  1
  Al  Al24  1  0.55503506  0.88064540  0.05827892  1
  Al  Al25  1  0.11076382  0.76213412  0.80571542  1
  Al  Al26  1  0.22841988  0.87608056  0.55763785  1
  Al  Al27  1  0.77254124  0.76892855  0.30640142  1
  Al  Al28  1  0.87988771  0.88266444  0.06253911  1
  Al  Al29  1  0.44748335  0.76022268  0.80802242  1
  Al  Al30  1  0.56129979  0.87877111  0.55959224  1
  B  B31  1  0.82602821  0.23008598  0.53518108  1
  B  B32  1  0.55205439  0.20937917  0.06456234  1
  B  B33  1  0.17620352  0.22482077  0.54206040  1
  B  B34  1  0.76249546  0.09899780  0.31178675  1
  B  B35  1  0.56325437  0.20230761  0.55371215  1
  N  N36  1  0.21321204  0.21027202  0.38595426  1
  N  N37  1  0.10601298  0.09999437  0.12639656  1
  N  N38  1  0.89684665  0.19875182  0.86896545  1
  N  N39  1  0.77025978  0.12177849  0.60782333  1
  N  N40  1  0.57736552  0.19509339  0.38314305  1
  N  N41  1  0.45311799  0.11175315  0.12179551  1
  N  N42  1  0.23319025  0.19970084  0.86889080  1
  N  N43  1  0.14355278  0.10212531  0.60850265  1
  N  N44  1  0.86153191  0.20166385  0.37969498  1
  N  N45  1  0.75079294  0.11059058  0.13858282  1
  N  N46  1  0.56336038  0.20230770  0.89701947  1
  N  N47  1  0.49629548  0.09701196  0.61687690  1
  N  N48  1  0.22265382  0.53786641  0.36316141  1
  N  N49  1  0.10839538  0.42869534  0.11593781  1
  N  N50  1  0.89170662  0.53255986  0.85802649  1
  N  N51  1  0.78457816  0.39871803  0.60105461  1
  N  N52  1  0.54951872  0.54126182  0.36321621  1
  N  N53  1  0.45401126  0.40469628  0.11245104  1
  N  N54  1  0.22408444  0.53493043  0.85940314  1
  N  N55  1  0.11882306  0.39975141  0.60572649  1
  N  N56  1  0.88500450  0.54057585  0.36256080  1
  N  N57  1  0.77527114  0.42878833  0.11628877  1
  N  N58  1  0.55931892  0.53330623  0.86107428  1
  N  N59  1  0.45787952  0.39938429  0.61026773  1
  N  N60  1  0.21948721  0.87296728  0.36635096  1
  N  N61  1  0.10837184  0.76217788  0.11321308  1
  N  N62  1  0.88761874  0.87644216  0.86546208  1
  N  N63  1  0.78882545  0.75292986  0.61122946  1
  N  N64  1  0.55173605  0.87474752  0.36618126  1
  N  N65  1  0.44233191  0.76325101  0.11241491  1
  N  N66  1  0.22306954  0.87347667  0.86268686  1
  N  N67  1  0.11187584  0.76078303  0.61117211  1
  N  N68  1  0.87189470  0.90118436  0.35723963  1
  N  N69  1  0.77608627  0.76174280  0.11375706  1
  N  N70  1  0.55845201  0.87213033  0.86479223  1
  N  N71  1  0.45260075  0.75690833  0.61511680  1
