# generated using pymatgen
data_Al31B5N36
_symmetry_space_group_name_H-M   'P 1'
_cell_length_a   9.31923007
_cell_length_b   9.23877439
_cell_length_c   10.06279926
_cell_angle_alpha   89.51605592
_cell_angle_beta   90.26939257
_cell_angle_gamma   59.78699889
_symmetry_Int_Tables_number   1
_chemical_formula_structural   Al31B5N36
_chemical_formula_sum   'Al31 B5 N36'
_cell_volume   748.63286325
_cell_formula_units_Z   1
loop_
 _symmetry_equiv_pos_site_id
 _symmetry_equiv_pos_as_xyz
  1  'x, y, z'
loop_
 _atom_site_type_symbol
 _atom_site_label
 _atom_site_symmetry_multiplicity
 _atom_site_fract_x
 _atom_site_fract_y
 _atom_site_fract_z
 _atom_site_occupancy
  Al  Al0  1  0.10151114  0.09422312  0.32036496  1
  Al  Al1  1  0.22524884  0.20660588  0.07025802  1
  Al  Al2  1  0.78546219  0.09878995  0.80672103  1
  Al  Al3  1  0.44909526  0.10266607  0.40078990  1
  Al  Al4  1  0.10493068  0.10209575  0.82180659  1
  Al  Al5  1  0.88509518  0.20123719  0.10067854  1
  Al  Al6  1  0.45608593  0.09351895  0.88747174  1
  Al  Al7  1  0.10581206  0.42987927  0.32293729  1
  Al  Al8  1  0.22194046  0.53532701  0.07187374  1
  Al  Al9  1  0.77408624  0.42518858  0.89656599  1
  Al  Al10  1  0.88947376  0.53544517  0.56786140  1
  Al  Al11  1  0.45273542  0.41144169  0.38680250  1
  Al  Al12  1  0.55632104  0.52664131  0.14430627  1
  Al  Al13  1  0.11507036  0.41930345  0.81544373  1
  Al  Al14  1  0.21710307  0.53392086  0.56730914  1
  Al  Al15  1  0.77583661  0.40854651  0.38131131  1
  Al  Al16  1  0.89420390  0.53637630  0.07917285  1
  Al  Al17  1  0.45403312  0.41601361  0.88939332  1
  Al  Al18  1  0.56576232  0.51439875  0.63567030  1
  Al  Al19  1  0.10234531  0.76934590  0.31532637  1
  Al  Al20  1  0.22467212  0.87289852  0.06433740  1
  Al  Al21  1  0.77701720  0.76128627  0.87976800  1
  Al  Al22  1  0.89214141  0.89524712  0.55883861  1
  Al  Al23  1  0.43373219  0.76612334  0.32508021  1
  Al  Al24  1  0.55581120  0.88355647  0.14136601  1
  Al  Al25  1  0.10808694  0.76115731  0.81509621  1
  Al  Al26  1  0.22165857  0.87730651  0.56830159  1
  Al  Al27  1  0.76940203  0.77330006  0.37345792  1
  Al  Al28  1  0.88400283  0.88258801  0.06875281  1
  Al  Al29  1  0.44040113  0.76132139  0.81505250  1
  Al  Al30  1  0.56599788  0.88171207  0.63716519  1
  B  B31  1  0.90156093  0.20699534  0.60461433  1
  B  B32  1  0.55268939  0.20327709  0.14622209  1
  B  B33  1  0.15736745  0.23947708  0.55479058  1
  B  B34  1  0.77569231  0.09392863  0.29532852  1
  B  B35  1  0.50291254  0.22954077  0.65014264  1
  N  N36  1  0.20023851  0.21335972  0.40792101  1
  N  N37  1  0.12245807  0.09153825  0.13287388  1
  N  N38  1  0.89265522  0.19479950  0.89444334  1
  N  N39  1  0.83502891  0.09973659  0.62897903  1
  N  N40  1  0.55826487  0.20077951  0.30684107  1
  N  N41  1  0.46316484  0.10857405  0.08054300  1
  N  N42  1  0.22319887  0.20195600  0.88159275  1
  N  N43  1  0.09679651  0.12781051  0.61917205  1
  N  N44  1  0.87035888  0.19161782  0.32353129  1
  N  N45  1  0.75542957  0.09777595  0.13647301  1
  N  N46  1  0.54550247  0.21086859  0.79992961  1
  N  N47  1  0.48242147  0.10348425  0.58335950  1
  N  N48  1  0.21362879  0.54341035  0.37836015  1
  N  N49  1  0.11532673  0.42336118  0.13698136  1
  N  N50  1  0.89769677  0.53152846  0.87571553  1
  N  N51  1  0.79437270  0.39511033  0.58117738  1
  N  N52  1  0.55177043  0.53287046  0.33738442  1
  N  N53  1  0.46232554  0.39673478  0.08255827  1
  N  N54  1  0.21891984  0.53727530  0.87769827  1
  N  N55  1  0.11692640  0.40277527  0.62135043  1
  N  N56  1  0.88348344  0.53748162  0.37301624  1
  N  N57  1  0.77010961  0.43399072  0.08756722  1
  N  N58  1  0.56020401  0.52725110  0.82600756  1
  N  N59  1  0.45420846  0.39706162  0.58256359  1
  N  N60  1  0.21569114  0.87410317  0.38247718  1
  N  N61  1  0.11103720  0.76290221  0.12641454  1
  N  N62  1  0.88779442  0.87973875  0.87662598  1
  N  N63  1  0.78623194  0.76547485  0.58255495  1
  N  N64  1  0.54420615  0.88652466  0.33396054  1
  N  N65  1  0.44092512  0.76216915  0.12716843  1
  N  N66  1  0.22139357  0.87279826  0.87267195  1
  N  N67  1  0.11656530  0.75567605  0.62590535  1
  N  N68  1  0.87214642  0.90615320  0.36427948  1
  N  N69  1  0.77551744  0.76359038  0.09193201  1
  N  N70  1  0.55779762  0.87465450  0.82881738  1
  N  N71  1  0.44789710  0.76017452  0.61939931  1
