# generated using pymatgen
data_Al31B5N36
_symmetry_space_group_name_H-M   'P 1'
_cell_length_a   9.26803437
_cell_length_b   9.16141341
_cell_length_c   10.18087362
_cell_angle_alpha   89.27360905
_cell_angle_beta   90.11156930
_cell_angle_gamma   59.86565734
_symmetry_Int_Tables_number   1
_chemical_formula_structural   Al31B5N36
_chemical_formula_sum   'Al31 B5 N36'
_cell_volume   747.51742816
_cell_formula_units_Z   1
loop_
 _symmetry_equiv_pos_site_id
 _symmetry_equiv_pos_as_xyz
  1  'x, y, z'
loop_
 _atom_site_type_symbol
 _atom_site_label
 _atom_site_symmetry_multiplicity
 _atom_site_fract_x
 _atom_site_fract_y
 _atom_site_fract_z
 _atom_site_occupancy
  Al  Al0  1  0.10552862  0.09128166  0.32428928  1
  Al  Al1  1  0.22390622  0.20806292  0.07066873  1
  Al  Al2  1  0.78446496  0.09844044  0.79948117  1
  Al  Al3  1  0.45300407  0.09798154  0.40093082  1
  Al  Al4  1  0.10967998  0.10187349  0.81715174  1
  Al  Al5  1  0.88025553  0.20853991  0.12667918  1
  Al  Al6  1  0.45852629  0.09280928  0.88831151  1
  Al  Al7  1  0.11309376  0.42546702  0.32569056  1
  Al  Al8  1  0.22122709  0.53493538  0.07176121  1
  Al  Al9  1  0.78076423  0.42769490  0.89342120  1
  Al  Al10  1  0.88265114  0.53713148  0.63648922  1
  Al  Al11  1  0.45578359  0.41179757  0.38685576  1
  Al  Al12  1  0.55403939  0.53408096  0.14210178  1
  Al  Al13  1  0.12282772  0.41729432  0.81602088  1
  Al  Al14  1  0.21745663  0.53290202  0.56621030  1
  Al  Al15  1  0.77764118  0.41128942  0.39054335  1
  Al  Al16  1  0.88080088  0.54150751  0.14413248  1
  Al  Al17  1  0.45631831  0.41665168  0.89033482  1
  Al  Al18  1  0.56052520  0.52278554  0.64189769  1
  Al  Al19  1  0.10231356  0.76886498  0.31527826  1
  Al  Al20  1  0.21496225  0.87880085  0.06455468  1
  Al  Al21  1  0.77815831  0.75659819  0.88900640  1
  Al  Al22  1  0.89019658  0.89340591  0.55567536  1
  Al  Al23  1  0.44753333  0.75774650  0.39200182  1
  Al  Al24  1  0.55420482  0.87939362  0.14104037  1
  Al  Al25  1  0.10691087  0.76291238  0.81533971  1
  Al  Al26  1  0.21424084  0.88091890  0.57264812  1
  Al  Al27  1  0.76965320  0.76500469  0.38518839  1
  Al  Al28  1  0.88330031  0.88324720  0.06641727  1
  Al  Al29  1  0.45058608  0.75794654  0.88582916  1
  Al  Al30  1  0.56381780  0.87761842  0.64074529  1
  B  B31  1  0.89794644  0.20883126  0.61516893  1
  B  B32  1  0.55217008  0.20387329  0.14548102  1
  B  B33  1  0.15685215  0.23965217  0.55516811  1
  B  B34  1  0.77193695  0.09126093  0.29693161  1
  B  B35  1  0.50542264  0.22860611  0.64761799  1
  N  N36  1  0.20262478  0.21109628  0.41025233  1
  N  N37  1  0.12010548  0.09322394  0.13702343  1
  N  N38  1  0.89063647  0.20571178  0.86218868  1
  N  N39  1  0.82898829  0.09980536  0.62144228  1
  N  N40  1  0.55895906  0.19979828  0.30636256  1
  N  N41  1  0.46465900  0.10690221  0.08041068  1
  N  N42  1  0.22425066  0.20232637  0.88476388  1
  N  N43  1  0.09839925  0.12602578  0.61980812  1
  N  N44  1  0.86856319  0.19489026  0.32276060  1
  N  N45  1  0.75566835  0.09674331  0.13770026  1
  N  N46  1  0.54322963  0.21316447  0.79729712  1
  N  N47  1  0.48797772  0.09904515  0.58173818  1
  N  N48  1  0.21550060  0.54301995  0.38028068  1
  N  N49  1  0.11720729  0.42248987  0.13921609  1
  N  N50  1  0.88812387  0.53982088  0.82342798  1
  N  N51  1  0.79317569  0.39932228  0.58204665  1
  N  N52  1  0.55293475  0.53653543  0.33115384  1
  N  N53  1  0.46380645  0.39720151  0.08246432  1
  N  N54  1  0.21896104  0.53888514  0.88108397  1
  N  N55  1  0.12184061  0.39969614  0.62111458  1
  N  N56  1  0.87813142  0.53822874  0.33310080  1
  N  N57  1  0.77301703  0.43455276  0.07930812  1
  N  N58  1  0.55767261  0.53531320  0.82733333  1
  N  N59  1  0.45642809  0.39856987  0.58136255  1
  N  N60  1  0.21389529  0.87258476  0.38561563  1
  N  N61  1  0.10961147  0.76278888  0.12861228  1
  N  N62  1  0.88580311  0.88183651  0.87701646  1
  N  N63  1  0.78434227  0.75843862  0.57332825  1
  N  N64  1  0.54473242  0.88049396  0.32845628  1
  N  N65  1  0.44863827  0.75975754  0.07720936  1
  N  N66  1  0.21708013  0.87610797  0.87221998  1
  N  N67  1  0.11375817  0.75438237  0.62826220  1
  N  N68  1  0.86984789  0.90334307  0.36347924  1
  N  N69  1  0.77458932  0.75853248  0.07835889  1
  N  N70  1  0.55789227  0.87266191  0.82662685  1
  N  N71  1  0.45489264  0.75656382  0.58239329  1
