# generated using pymatgen
data_Al31B5N36
_symmetry_space_group_name_H-M   'P 1'
_cell_length_a   9.33298160
_cell_length_b   9.17682522
_cell_length_c   10.03394634
_cell_angle_alpha   90.05792713
_cell_angle_beta   90.56109907
_cell_angle_gamma   60.25128876
_symmetry_Int_Tables_number   1
_chemical_formula_structural   Al31B5N36
_chemical_formula_sum   'Al31 B5 N36'
_cell_volume   746.07815425
_cell_formula_units_Z   1
loop_
 _symmetry_equiv_pos_site_id
 _symmetry_equiv_pos_as_xyz
  1  'x, y, z'
loop_
 _atom_site_type_symbol
 _atom_site_label
 _atom_site_symmetry_multiplicity
 _atom_site_fract_x
 _atom_site_fract_y
 _atom_site_fract_z
 _atom_site_occupancy
  Al  Al0  1  0.11615909  0.09193585  0.32692480  1
  Al  Al1  1  0.21996842  0.20916734  0.07283525  1
  Al  Al2  1  0.76291064  0.10415068  0.87170479  1
  Al  Al3  1  0.45894773  0.10107160  0.39475820  1
  Al  Al4  1  0.11412860  0.09836707  0.79972051  1
  Al  Al5  1  0.87281576  0.20293224  0.14177328  1
  Al  Al6  1  0.44856754  0.09473811  0.88734043  1
  Al  Al7  1  0.11528542  0.42631624  0.32616388  1
  Al  Al8  1  0.21901315  0.53647100  0.07379013  1
  Al  Al9  1  0.77833711  0.42285443  0.88348578  1
  Al  Al10  1  0.88387283  0.53035039  0.63473702  1
  Al  Al11  1  0.45532410  0.41185532  0.38149756  1
  Al  Al12  1  0.55491378  0.53283778  0.13743298  1
  Al  Al13  1  0.12022620  0.41701590  0.81571033  1
  Al  Al14  1  0.21852883  0.53189232  0.56766260  1
  Al  Al15  1  0.77666430  0.41699710  0.39186880  1
  Al  Al16  1  0.88124597  0.53832095  0.14127006  1
  Al  Al17  1  0.44808475  0.42166982  0.88941287  1
  Al  Al18  1  0.55137095  0.53042566  0.64035811  1
  Al  Al19  1  0.10572285  0.76901498  0.31876241  1
  Al  Al20  1  0.21349099  0.88047109  0.06870407  1
  Al  Al21  1  0.77548120  0.75371526  0.88589266  1
  Al  Al22  1  0.89537602  0.87872639  0.57569579  1
  Al  Al23  1  0.45311778  0.75612325  0.38686732  1
  Al  Al24  1  0.55426097  0.88135057  0.14076438  1
  Al  Al25  1  0.10925630  0.76215623  0.81737514  1
  Al  Al26  1  0.22541723  0.87792523  0.56865514  1
  Al  Al27  1  0.77313755  0.76762767  0.38840725  1
  Al  Al28  1  0.88399031  0.87849536  0.06962598  1
  Al  Al29  1  0.44533344  0.76155328  0.88657874  1
  Al  Al30  1  0.56084749  0.87878131  0.63877856  1
  B  B31  1  0.83264791  0.23310383  0.63878598  1
  B  B32  1  0.55122159  0.20784807  0.14188441  1
  B  B33  1  0.17496712  0.22689662  0.55473755  1
  B  B34  1  0.82326090  0.08754972  0.40850187  1
  B  B35  1  0.50559526  0.22763809  0.64874493  1
  N  N36  1  0.21270053  0.21208124  0.40426881  1
  N  N37  1  0.11174180  0.09759529  0.13645224  1
  N  N38  1  0.87174206  0.21001129  0.79143218  1
  N  N39  1  0.81704210  0.10901400  0.55963914  1
  N  N40  1  0.55255977  0.20629418  0.29850810  1
  N  N41  1  0.45978631  0.10769348  0.08022038  1
  N  N42  1  0.21527388  0.20457357  0.88568036  1
  N  N43  1  0.15817609  0.09703192  0.62014416  1
  N  N44  1  0.87831443  0.19229506  0.33165728  1
  N  N45  1  0.74588325  0.11474420  0.06906551  1
  N  N46  1  0.54187930  0.21227346  0.80123464  1
  N  N47  1  0.49570714  0.09656723  0.57966152  1
  N  N48  1  0.21669691  0.54602165  0.37992421  1
  N  N49  1  0.11361340  0.42548930  0.13712634  1
  N  N50  1  0.88720922  0.53432238  0.82474085  1
  N  N51  1  0.77865310  0.40598537  0.58224877  1
  N  N52  1  0.55724670  0.53427919  0.32766486  1
  N  N53  1  0.45682240  0.40342505  0.08161266  1
  N  N54  1  0.21587761  0.54004251  0.87998863  1
  N  N55  1  0.12100117  0.39977270  0.61992733  1
  N  N56  1  0.88012835  0.53942634  0.33446856  1
  N  N57  1  0.77825120  0.42209725  0.07392416  1
  N  N58  1  0.55269742  0.53762014  0.82874277  1
  N  N59  1  0.45442158  0.39862470  0.58295995  1
  N  N60  1  0.22178512  0.87150477  0.37930569  1
  N  N61  1  0.10640117  0.76488136  0.12933195  1
  N  N62  1  0.88910919  0.87205318  0.86970565  1
  N  N63  1  0.78425255  0.75368172  0.57978744  1
  N  N64  1  0.55214866  0.87852774  0.32950113  1
  N  N65  1  0.44700537  0.76065724  0.07946292  1
  N  N66  1  0.21123735  0.88204782  0.87568817  1
  N  N67  1  0.11918364  0.75687971  0.62979464  1
  N  N68  1  0.88274950  0.89924476  0.37757361  1
  N  N69  1  0.77330291  0.75727652  0.07916955  1
  N  N70  1  0.55456204  0.87316985  0.82735354  1
  N  N71  1  0.45994893  0.75154070  0.57883630  1
