# generated using pymatgen
data_Al31B5N36
_symmetry_space_group_name_H-M   'P 1'
_cell_length_a   9.32706907
_cell_length_b   9.18997888
_cell_length_c   9.95735926
_cell_angle_alpha   89.91658186
_cell_angle_beta   89.85664290
_cell_angle_gamma   60.21698432
_symmetry_Int_Tables_number   1
_chemical_formula_structural   Al31B5N36
_chemical_formula_sum   'Al31 B5 N36'
_cell_volume   740.76178708
_cell_formula_units_Z   1
loop_
 _symmetry_equiv_pos_site_id
 _symmetry_equiv_pos_as_xyz
  1  'x, y, z'
loop_
 _atom_site_type_symbol
 _atom_site_label
 _atom_site_symmetry_multiplicity
 _atom_site_fract_x
 _atom_site_fract_y
 _atom_site_fract_z
 _atom_site_occupancy
  Al  Al0  1  0.09633309  0.09984447  0.33514500  1
  Al  Al1  1  0.22425632  0.20747223  0.07729123  1
  Al  Al2  1  0.78843145  0.09680773  0.80297149  1
  Al  Al3  1  0.45106647  0.09938591  0.40321668  1
  Al  Al4  1  0.11789902  0.09748575  0.81420817  1
  Al  Al5  1  0.88677311  0.20541906  0.07468347  1
  Al  Al6  1  0.45912674  0.09268037  0.89086719  1
  Al  Al7  1  0.10437989  0.42941474  0.32439882  1
  Al  Al8  1  0.22181570  0.53516118  0.07634920  1
  Al  Al9  1  0.78225996  0.41750370  0.81425007  1
  Al  Al10  1  0.88695362  0.52911258  0.56787980  1
  Al  Al11  1  0.44649032  0.41610692  0.37507871  1
  Al  Al12  1  0.56128713  0.53661340  0.07429120  1
  Al  Al13  1  0.11790289  0.41619271  0.81786489  1
  Al  Al14  1  0.21658568  0.53116212  0.56922495  1
  Al  Al15  1  0.76848132  0.42915733  0.32194293  1
  Al  Al16  1  0.88941347  0.53745014  0.06879272  1
  Al  Al17  1  0.45103855  0.41593514  0.88697344  1
  Al  Al18  1  0.55517679  0.53035281  0.57170333  1
  Al  Al19  1  0.10135298  0.77089688  0.31787403  1
  Al  Al20  1  0.21912194  0.87667349  0.06973385  1
  Al  Al21  1  0.78913350  0.75576687  0.82056537  1
  Al  Al22  1  0.88973670  0.88243598  0.56124170  1
  Al  Al23  1  0.43282348  0.76477870  0.32279238  1
  Al  Al24  1  0.55242821  0.88547910  0.13891918  1
  Al  Al25  1  0.11064385  0.76121984  0.81884337  1
  Al  Al26  1  0.22522444  0.87700021  0.57239475  1
  Al  Al27  1  0.77677579  0.76681551  0.32322070  1
  Al  Al28  1  0.88182335  0.88082792  0.07163178  1
  Al  Al29  1  0.44334324  0.75723670  0.82168705  1
  Al  Al30  1  0.55792522  0.88269813  0.63786205  1
  B  B31  1  0.83285782  0.22190117  0.54620977  1
  B  B32  1  0.55626435  0.20627712  0.15153279  1
  B  B33  1  0.16998056  0.22748553  0.56046817  1
  B  B34  1  0.77060629  0.09516723  0.31052268  1
  B  B35  1  0.50450487  0.22970670  0.65062506  1
  N  N36  1  0.20602499  0.21399867  0.40619399  1
  N  N37  1  0.10929262  0.09841126  0.14202545  1
  N  N38  1  0.89499431  0.20119799  0.88449004  1
  N  N39  1  0.82623909  0.09498676  0.62137787  1
  N  N40  1  0.56502925  0.19728990  0.31179415  1
  N  N41  1  0.46669358  0.10965427  0.08568964  1
  N  N42  1  0.22673740  0.20199527  0.88916022  1
  N  N43  1  0.15299865  0.09890246  0.62798766  1
  N  N44  1  0.85833967  0.20356317  0.38883067  1
  N  N45  1  0.76776614  0.10289610  0.14711177  1
  N  N46  1  0.55030011  0.21023073  0.80173873  1
  N  N47  1  0.49065280  0.09918670  0.58449840  1
  N  N48  1  0.21242150  0.54464477  0.37642353  1
  N  N49  1  0.10899855  0.42727785  0.13612312  1
  N  N50  1  0.89381900  0.53104952  0.87526404  1
  N  N51  1  0.78317088  0.39788348  0.61574215  1
  N  N52  1  0.54920408  0.54340850  0.37895848  1
  N  N53  1  0.46167217  0.39721067  0.09042094  1
  N  N54  1  0.21933623  0.53753242  0.87994114  1
  N  N55  1  0.11483356  0.40182396  0.62361850  1
  N  N56  1  0.88251650  0.54091081  0.37986834  1
  N  N57  1  0.77860864  0.42816732  0.13340968  1
  N  N58  1  0.56334568  0.53552991  0.87944876  1
  N  N59  1  0.44956128  0.39810723  0.58427254  1
  N  N60  1  0.21484871  0.87531058  0.38340859  1
  N  N61  1  0.10835035  0.76364349  0.12800970  1
  N  N62  1  0.88665115  0.87948034  0.87967178  1
  N  N63  1  0.79247762  0.75312780  0.62588220  1
  N  N64  1  0.54602212  0.88290965  0.33750117  1
  N  N65  1  0.43890544  0.76236169  0.12781166  1
  N  N66  1  0.22191424  0.87333762  0.87811253  1
  N  N67  1  0.11470819  0.75595922  0.62748294  1
  N  N68  1  0.87025601  0.90290386  0.36894880  1
  N  N69  1  0.78216723  0.75875158  0.12852804  1
  N  N70  1  0.55922148  0.87328961  0.83629613  1
  N  N71  1  0.44897338  0.75308304  0.62826577  1
