# generated using pymatgen
data_Al31B5N36
_symmetry_space_group_name_H-M   'P 1'
_cell_length_a   9.31674533
_cell_length_b   9.17294214
_cell_length_c   9.95565585
_cell_angle_alpha   90.26954601
_cell_angle_beta   89.91392781
_cell_angle_gamma   60.34529732
_symmetry_Int_Tables_number   1
_chemical_formula_structural   Al31B5N36
_chemical_formula_sum   'Al31 B5 N36'
_cell_volume   739.37536202
_cell_formula_units_Z   1
loop_
 _symmetry_equiv_pos_site_id
 _symmetry_equiv_pos_as_xyz
  1  'x, y, z'
loop_
 _atom_site_type_symbol
 _atom_site_label
 _atom_site_symmetry_multiplicity
 _atom_site_fract_x
 _atom_site_fract_y
 _atom_site_fract_z
 _atom_site_occupancy
  Al  Al0  1  0.09695413  0.09861839  0.33577639  1
  Al  Al1  1  0.22331022  0.20768316  0.07901863  1
  Al  Al2  1  0.79069241  0.09519558  0.80552600  1
  Al  Al3  1  0.44999846  0.10342750  0.40491398  1
  Al  Al4  1  0.11937417  0.09741480  0.81485570  1
  Al  Al5  1  0.88661318  0.20467472  0.07485901  1
  Al  Al6  1  0.45880178  0.09600109  0.89489997  1
  Al  Al7  1  0.10434892  0.42972604  0.32402860  1
  Al  Al8  1  0.22676254  0.53152705  0.07089637  1
  Al  Al9  1  0.78226719  0.41722103  0.81392873  1
  Al  Al10  1  0.88652551  0.52917523  0.56746805  1
  Al  Al11  1  0.44171313  0.42847415  0.31759317  1
  Al  Al12  1  0.55808292  0.53113953  0.06965190  1
  Al  Al13  1  0.11638845  0.41667052  0.81742899  1
  Al  Al14  1  0.22015644  0.52951280  0.56711987  1
  Al  Al15  1  0.76816321  0.42862091  0.32159608  1
  Al  Al16  1  0.88942296  0.53606682  0.06881406  1
  Al  Al17  1  0.44059853  0.43499041  0.82151279  1
  Al  Al18  1  0.55264710  0.52791363  0.56781065  1
  Al  Al19  1  0.10282182  0.76850354  0.31844364  1
  Al  Al20  1  0.21964558  0.87534550  0.07067437  1
  Al  Al21  1  0.78625213  0.75772771  0.82125158  1
  Al  Al22  1  0.89056191  0.88222397  0.56170081  1
  Al  Al23  1  0.43524442  0.76529055  0.32342976  1
  Al  Al24  1  0.55527076  0.87924901  0.12056034  1
  Al  Al25  1  0.10940254  0.76268412  0.81898358  1
  Al  Al26  1  0.22570267  0.87675350  0.57246787  1
  Al  Al27  1  0.77372989  0.76849542  0.32315982  1
  Al  Al28  1  0.88393897  0.87899968  0.07306127  1
  Al  Al29  1  0.44478411  0.75993252  0.82287007  1
  Al  Al30  1  0.55880388  0.87993452  0.62174637  1
  B  B31  1  0.83226665  0.22213153  0.54665791  1
  B  B32  1  0.55955295  0.19969335  0.15817448  1
  B  B33  1  0.16930746  0.22826963  0.56030212  1
  B  B34  1  0.77223981  0.09426409  0.31389058  1
  B  B35  1  0.50772047  0.22480981  0.66006973  1
  N  N36  1  0.20541161  0.21453336  0.40592536  1
  N  N37  1  0.10882872  0.09776949  0.14262700  1
  N  N38  1  0.89675009  0.20144032  0.88470592  1
  N  N39  1  0.82407761  0.09622101  0.62231962  1
  N  N40  1  0.57039211  0.19263080  0.31867785  1
  N  N41  1  0.46544928  0.11069477  0.09065047  1
  N  N42  1  0.22702426  0.20349213  0.89042363  1
  N  N43  1  0.15323345  0.09919720  0.62817239  1
  N  N44  1  0.85937529  0.20246046  0.38945655  1
  N  N45  1  0.76761135  0.10194756  0.14850415  1
  N  N46  1  0.55723248  0.20253833  0.80968539  1
  N  N47  1  0.48704770  0.10345738  0.58735644  1
  N  N48  1  0.21806571  0.54043873  0.37749531  1
  N  N49  1  0.10883851  0.42856236  0.13526705  1
  N  N50  1  0.89286556  0.53201294  0.87510690  1
  N  N51  1  0.78146449  0.39865501  0.61500919  1
  N  N52  1  0.54760015  0.54123304  0.37941801  1
  N  N53  1  0.45457440  0.40647028  0.12528584  1
  N  N54  1  0.22087535  0.53713179  0.87851034  1
  N  N55  1  0.11396291  0.40299933  0.62300566  1
  N  N56  1  0.88234896  0.54127716  0.37933701  1
  N  N57  1  0.77599926  0.42829628  0.13214723  1
  N  N58  1  0.56101341  0.53453044  0.87832441  1
  N  N59  1  0.44137172  0.41119845  0.62663947  1
  N  N60  1  0.21619505  0.87405604  0.38337559  1
  N  N61  1  0.11031714  0.76058669  0.12804602  1
  N  N62  1  0.88803813  0.87826411  0.88105803  1
  N  N63  1  0.79124689  0.75407569  0.62736057  1
  N  N64  1  0.54746858  0.88018676  0.35299413  1
  N  N65  1  0.44027153  0.75930539  0.12847515  1
  N  N66  1  0.22255567  0.87343197  0.87872890  1
  N  N67  1  0.11470585  0.75600979  0.62733282  1
  N  N68  1  0.87252186  0.90061172  0.36964356  1
  N  N69  1  0.78255835  0.75793648  0.12962734  1
  N  N70  1  0.56017435  0.87196658  0.85177189  1
  N  N71  1  0.44973757  0.75166094  0.62988384  1
