# generated using pymatgen
data_Al31B5N36
_symmetry_space_group_name_H-M   'P 1'
_cell_length_a   9.32044402
_cell_length_b   9.21290545
_cell_length_c   10.04865860
_cell_angle_alpha   89.64296737
_cell_angle_beta   90.16153140
_cell_angle_gamma   59.88672687
_symmetry_Int_Tables_number   1
_chemical_formula_structural   Al31B5N36
_chemical_formula_sum   'Al31 B5 N36'
_cell_volume   746.37383393
_cell_formula_units_Z   1
loop_
 _symmetry_equiv_pos_site_id
 _symmetry_equiv_pos_as_xyz
  1  'x, y, z'
loop_
 _atom_site_type_symbol
 _atom_site_label
 _atom_site_symmetry_multiplicity
 _atom_site_fract_x
 _atom_site_fract_y
 _atom_site_fract_z
 _atom_site_occupancy
  Al  Al0  1  0.10008160  0.09418921  0.32276502  1
  Al  Al1  1  0.22389158  0.20768250  0.07112452  1
  Al  Al2  1  0.78530094  0.09794405  0.80906209  1
  Al  Al3  1  0.45152148  0.10081368  0.40053161  1
  Al  Al4  1  0.10504846  0.10259187  0.82065332  1
  Al  Al5  1  0.88644612  0.19879290  0.09477034  1
  Al  Al6  1  0.45748382  0.09175674  0.88812702  1
  Al  Al7  1  0.10831364  0.42896041  0.32444648  1
  Al  Al8  1  0.22047101  0.53545190  0.07263860  1
  Al  Al9  1  0.77744495  0.42590721  0.87775594  1
  Al  Al10  1  0.88401760  0.53480190  0.56681196  1
  Al  Al11  1  0.45761961  0.41060717  0.38831451  1
  Al  Al12  1  0.54795507  0.53171933  0.13641786  1
  Al  Al13  1  0.11585789  0.41848959  0.81542975  1
  Al  Al14  1  0.21806234  0.53230905  0.56770173  1
  Al  Al15  1  0.77910535  0.41853324  0.32362449  1
  Al  Al16  1  0.89177396  0.54334156  0.07344905  1
  Al  Al17  1  0.45210022  0.41560130  0.88964296  1
  Al  Al18  1  0.56628725  0.51463961  0.63879913  1
  Al  Al19  1  0.10269523  0.76849213  0.31699410  1
  Al  Al20  1  0.22026244  0.87501446  0.06465529  1
  Al  Al21  1  0.78912268  0.75667114  0.81767794  1
  Al  Al22  1  0.88901978  0.89203815  0.56070924  1
  Al  Al23  1  0.43283668  0.76690013  0.32521262  1
  Al  Al24  1  0.55021967  0.88575602  0.13820667  1
  Al  Al25  1  0.10837953  0.76138798  0.81562447  1
  Al  Al26  1  0.21910496  0.87786287  0.56904665  1
  Al  Al27  1  0.77699694  0.76913573  0.32300409  1
  Al  Al28  1  0.88005219  0.87875941  0.06765136  1
  Al  Al29  1  0.43831142  0.76442915  0.81864498  1
  Al  Al30  1  0.55923328  0.88279608  0.63419260  1
  B  B31  1  0.89816823  0.21094325  0.61065387  1
  B  B32  1  0.55375723  0.20265555  0.14709910  1
  B  B33  1  0.15566946  0.23962891  0.55535359  1
  B  B34  1  0.77595641  0.09453415  0.29788810  1
  B  B35  1  0.50625336  0.22817832  0.65020832  1
  N  N36  1  0.20113090  0.21264535  0.40837921  1
  N  N37  1  0.12063780  0.09273339  0.13408703  1
  N  N38  1  0.89144655  0.19727741  0.89784843  1
  N  N39  1  0.83711907  0.09675910  0.63225327  1
  N  N40  1  0.56011589  0.19999500  0.30710492  1
  N  N41  1  0.46278817  0.10902973  0.08099165  1
  N  N42  1  0.22331024  0.20195305  0.88242854  1
  N  N43  1  0.09843747  0.12609128  0.62027834  1
  N  N44  1  0.87051743  0.18989219  0.33046647  1
  N  N45  1  0.75692060  0.09677626  0.13680932  1
  N  N46  1  0.54620990  0.21025172  0.80064860  1
  N  N47  1  0.48733410  0.10148925  0.58220457  1
  N  N48  1  0.21722206  0.54157606  0.37864829  1
  N  N49  1  0.11258607  0.42495188  0.13740400  1
  N  N50  1  0.89687758  0.53683091  0.88202207  1
  N  N51  1  0.79748453  0.39684661  0.61439013  1
  N  N52  1  0.55025636  0.53488187  0.33234162  1
  N  N53  1  0.46105219  0.39546960  0.08155260  1
  N  N54  1  0.21800764  0.53760390  0.87811931  1
  N  N55  1  0.11605284  0.40289509  0.62147378  1
  N  N56  1  0.88350381  0.54039393  0.37759026  1
  N  N57  1  0.77475706  0.43377220  0.10954034  1
  N  N58  1  0.55554298  0.53159258  0.83343888  1
  N  N59  1  0.45589387  0.39687262  0.58393111  1
  N  N60  1  0.21560185  0.87361709  0.38282451  1
  N  N61  1  0.10867065  0.76335851  0.12689827  1
  N  N62  1  0.88621918  0.87707658  0.87889247  1
  N  N63  1  0.79388752  0.75735155  0.62444119  1
  N  N64  1  0.54464205  0.88458857  0.33626550  1
  N  N65  1  0.43747926  0.76525133  0.12337565  1
  N  N66  1  0.21823983  0.87514056  0.87343512  1
  N  N67  1  0.11596418  0.75448805  0.62643573  1
  N  N68  1  0.87162549  0.90270069  0.36891753  1
  N  N69  1  0.78103015  0.76093356  0.13157359  1
  N  N70  1  0.55852992  0.87351545  0.83164598  1
  N  N71  1  0.44517453  0.75981978  0.62116053  1
