# generated using pymatgen
data_Al31B5N36
_symmetry_space_group_name_H-M   'P 1'
_cell_length_a   9.28817869
_cell_length_b   9.16280478
_cell_length_c   9.91900536
_cell_angle_alpha   89.97271787
_cell_angle_beta   89.50865507
_cell_angle_gamma   60.16805167
_symmetry_Int_Tables_number   1
_chemical_formula_structural   Al31B5N36
_chemical_formula_sum   'Al31 B5 N36'
_cell_volume   732.26889144
_cell_formula_units_Z   1
loop_
 _symmetry_equiv_pos_site_id
 _symmetry_equiv_pos_as_xyz
  1  'x, y, z'
loop_
 _atom_site_type_symbol
 _atom_site_label
 _atom_site_symmetry_multiplicity
 _atom_site_fract_x
 _atom_site_fract_y
 _atom_site_fract_z
 _atom_site_occupancy
  Al  Al0  1  0.09766811  0.09857407  0.32289052  1
  Al  Al1  1  0.23175110  0.20378804  0.06347473  1
  Al  Al2  1  0.78677543  0.09584095  0.80471496  1
  Al  Al3  1  0.44143326  0.09835603  0.33367022  1
  Al  Al4  1  0.11906711  0.09701251  0.80257992  1
  Al  Al5  1  0.88698074  0.20374257  0.06297074  1
  Al  Al6  1  0.44766330  0.09310855  0.80017350  1
  Al  Al7  1  0.10682861  0.42938159  0.30986274  1
  Al  Al8  1  0.22878180  0.53015626  0.05835106  1
  Al  Al9  1  0.78121906  0.41760579  0.80268997  1
  Al  Al10  1  0.88981449  0.52773014  0.55453542  1
  Al  Al11  1  0.44386108  0.42996065  0.31173892  1
  Al  Al12  1  0.55757291  0.53096215  0.05864375  1
  Al  Al13  1  0.11569330  0.41828840  0.80518817  1
  Al  Al14  1  0.22633855  0.52536356  0.55785368  1
  Al  Al15  1  0.77047130  0.42845015  0.30941908  1
  Al  Al16  1  0.88927399  0.53672864  0.05619368  1
  Al  Al17  1  0.44365616  0.43028914  0.80935355  1
  Al  Al18  1  0.55200936  0.53402389  0.55712536  1
  Al  Al19  1  0.10472295  0.76769622  0.30810062  1
  Al  Al20  1  0.22117104  0.87526514  0.05946515  1
  Al  Al21  1  0.78033749  0.76073517  0.80700259  1
  Al  Al22  1  0.88252847  0.88586691  0.55201392  1
  Al  Al23  1  0.44020954  0.76586748  0.30736380  1
  Al  Al24  1  0.55573054  0.88135921  0.06064382  1
  Al  Al25  1  0.11109043  0.76235981  0.80717502  1
  Al  Al26  1  0.22765269  0.87687040  0.55955948  1
  Al  Al27  1  0.77237956  0.76901767  0.30685025  1
  Al  Al28  1  0.88452194  0.87827236  0.06159388  1
  Al  Al29  1  0.44759384  0.76120950  0.81074148  1
  Al  Al30  1  0.56119067  0.87721270  0.56099731  1
  B  B31  1  0.81985254  0.23046055  0.53493342  1
  B  B32  1  0.55920363  0.20157173  0.15531421  1
  B  B33  1  0.17659129  0.22445831  0.54722953  1
  B  B34  1  0.77388162  0.09331745  0.30594778  1
  B  B35  1  0.55829189  0.20706441  0.63937448  1
  N  N36  1  0.20922620  0.21193139  0.39170632  1
  N  N37  1  0.10861079  0.09877036  0.12905515  1
  N  N38  1  0.89851412  0.20006205  0.87122010  1
  N  N39  1  0.76826107  0.11994008  0.60815701  1
  N  N40  1  0.57733881  0.19580472  0.31893140  1
  N  N41  1  0.45271019  0.10625832  0.13117726  1
  N  N42  1  0.23169377  0.20097709  0.87346152  1
  N  N43  1  0.14487565  0.10116652  0.61374904  1
  N  N44  1  0.86113073  0.20088968  0.38215922  1
  N  N45  1  0.76694279  0.10134925  0.13894180  1
  N  N46  1  0.56349068  0.20454627  0.82095024  1
  N  N47  1  0.48191024  0.09915767  0.60994182  1
  N  N48  1  0.21899119  0.54009112  0.36771210  1
  N  N49  1  0.10944271  0.42766080  0.11987656  1
  N  N50  1  0.89101713  0.53317962  0.86162653  1
  N  N51  1  0.78236461  0.39782499  0.60293690  1
  N  N52  1  0.55003421  0.54377479  0.36800850  1
  N  N53  1  0.45489815  0.40527246  0.11846114  1
  N  N54  1  0.22158840  0.53716347  0.86486159  1
  N  N55  1  0.11671464  0.40092828  0.61015374  1
  N  N56  1  0.88436032  0.54087560  0.36560819  1
  N  N57  1  0.77678498  0.42716938  0.11988169  1
  N  N58  1  0.56001674  0.53582543  0.86663537  1
  N  N59  1  0.45206195  0.40801767  0.61394202  1
  N  N60  1  0.21964577  0.87330088  0.36972572  1
  N  N61  1  0.11138436  0.75977795  0.11666329  1
  N  N62  1  0.88943741  0.87500369  0.86812904  1
  N  N63  1  0.78759612  0.75354164  0.61502137  1
  N  N64  1  0.55406611  0.87088351  0.37112486  1
  N  N65  1  0.44405747  0.76204580  0.11591447  1
  N  N66  1  0.22357914  0.87325703  0.86667361  1
  N  N67  1  0.11020547  0.76227179  0.61454714  1
  N  N68  1  0.87299469  0.90001311  0.35947679  1
  N  N69  1  0.77743333  0.76118963  0.11623901  1
  N  N70  1  0.55859553  0.87305472  0.86868147  1
  N  N71  1  0.45168267  0.75717021  0.61979439  1
