# generated using pymatgen
data_Al31B5N36
_symmetry_space_group_name_H-M   'P 1'
_cell_length_a   9.33015039
_cell_length_b   9.18882364
_cell_length_c   9.94523190
_cell_angle_alpha   90.01339996
_cell_angle_beta   89.87032410
_cell_angle_gamma   60.23757848
_symmetry_Int_Tables_number   1
_chemical_formula_structural   Al31B5N36
_chemical_formula_sum   'Al31 B5 N36'
_cell_volume   740.16269570
_cell_formula_units_Z   1
loop_
 _symmetry_equiv_pos_site_id
 _symmetry_equiv_pos_as_xyz
  1  'x, y, z'
loop_
 _atom_site_type_symbol
 _atom_site_label
 _atom_site_symmetry_multiplicity
 _atom_site_fract_x
 _atom_site_fract_y
 _atom_site_fract_z
 _atom_site_occupancy
  Al  Al0  1  0.09653560  0.09972966  0.33542166  1
  Al  Al1  1  0.22389459  0.20764758  0.07752023  1
  Al  Al2  1  0.78943086  0.09583650  0.80362494  1
  Al  Al3  1  0.45121365  0.10091212  0.40507455  1
  Al  Al4  1  0.11827158  0.09717863  0.81413692  1
  Al  Al5  1  0.88687037  0.20540093  0.07461881  1
  Al  Al6  1  0.45946406  0.09182799  0.89186948  1
  Al  Al7  1  0.10384757  0.42930317  0.32435216  1
  Al  Al8  1  0.22104890  0.53553590  0.07612349  1
  Al  Al9  1  0.78242552  0.41704278  0.81369324  1
  Al  Al10  1  0.88670117  0.52914632  0.56806049  1
  Al  Al11  1  0.44337411  0.42287278  0.34781432  1
  Al  Al12  1  0.56106177  0.53687014  0.07448597  1
  Al  Al13  1  0.11784438  0.41574807  0.81730590  1
  Al  Al14  1  0.22034867  0.52881136  0.56769799  1
  Al  Al15  1  0.76904810  0.42893142  0.32213244  1
  Al  Al16  1  0.88909339  0.53747539  0.06866082  1
  Al  Al17  1  0.44889635  0.41940388  0.87758241  1
  Al  Al18  1  0.55308481  0.52768901  0.57027980  1
  Al  Al19  1  0.10083254  0.77154208  0.31793289  1
  Al  Al20  1  0.21919322  0.87663613  0.06977301  1
  Al  Al21  1  0.78908804  0.75562123  0.82043082  1
  Al  Al22  1  0.89020173  0.88199812  0.56158919  1
  Al  Al23  1  0.43297984  0.76594732  0.32343756  1
  Al  Al24  1  0.55234830  0.88570140  0.13934657  1
  Al  Al25  1  0.11074681  0.76089337  0.81825006  1
  Al  Al26  1  0.22556058  0.87647743  0.57258641  1
  Al  Al27  1  0.77659358  0.76710611  0.32359184  1
  Al  Al28  1  0.88199250  0.88052569  0.07164403  1
  Al  Al29  1  0.44357668  0.75687214  0.82123329  1
  Al  Al30  1  0.55778234  0.88254008  0.63769656  1
  B  B31  1  0.83249860  0.22189729  0.54641214  1
  B  B32  1  0.55793006  0.20331229  0.15295140  1
  B  B33  1  0.17000787  0.22759010  0.56048032  1
  B  B34  1  0.77133680  0.09500295  0.31143003  1
  B  B35  1  0.50425243  0.22996840  0.65378267  1
  N  N36  1  0.20617920  0.21405723  0.40598453  1
  N  N37  1  0.10913992  0.09843499  0.14206149  1
  N  N38  1  0.89558350  0.20107193  0.88442226  1
  N  N39  1  0.82646939  0.09474216  0.62170067  1
  N  N40  1  0.56714949  0.19483928  0.31341742  1
  N  N41  1  0.46650253  0.11011900  0.08650260  1
  N  N42  1  0.22713714  0.20179930  0.88923818  1
  N  N43  1  0.15317969  0.09875471  0.62784254  1
  N  N44  1  0.85849983  0.20319801  0.38873579  1
  N  N45  1  0.76755526  0.10291520  0.14693470  1
  N  N46  1  0.55295826  0.20683537  0.80547778  1
  N  N47  1  0.48994140  0.09993739  0.58642576  1
  N  N48  1  0.21302485  0.54427747  0.37495810  1
  N  N49  1  0.10838350  0.42753346  0.13590921  1
  N  N50  1  0.89379643  0.53084567  0.87492210  1
  N  N51  1  0.78243085  0.39804257  0.61511292  1
  N  N52  1  0.54897460  0.54344738  0.37786849  1
  N  N53  1  0.45880665  0.40153264  0.10239785  1
  N  N54  1  0.21902211  0.53728499  0.88092745  1
  N  N55  1  0.11466738  0.40211408  0.62301174  1
  N  N56  1  0.88239388  0.54115478  0.37986009  1
  N  N57  1  0.77847622  0.42815510  0.13332658  1
  N  N58  1  0.56355176  0.53514727  0.88065577  1
  N  N59  1  0.44751073  0.40094203  0.59688328  1
  N  N60  1  0.21496982  0.87525327  0.38336069  1
  N  N61  1  0.10815372  0.76393879  0.12796475  1
  N  N62  1  0.88751859  0.87849177  0.87968098  1
  N  N63  1  0.79221400  0.75333969  0.62578100  1
  N  N64  1  0.54598485  0.88387365  0.33832442  1
  N  N65  1  0.43879046  0.76280920  0.12806763  1
  N  N66  1  0.22220014  0.87285209  0.87788225  1
  N  N67  1  0.11516838  0.75493578  0.62676345  1
  N  N68  1  0.87066071  0.90269927  0.36908288  1
  N  N69  1  0.78192393  0.75890231  0.12861554  1
  N  N70  1  0.55938385  0.87252399  0.83679088  1
  N  N71  1  0.44959035  0.75184607  0.62765090  1
