# generated using pymatgen
data_Al31B5N36
_symmetry_space_group_name_H-M   'P 1'
_cell_length_a   9.31948443
_cell_length_b   9.21212858
_cell_length_c   10.06296707
_cell_angle_alpha   89.58238255
_cell_angle_beta   90.16542762
_cell_angle_gamma   59.83522969
_symmetry_Int_Tables_number   1
_chemical_formula_structural   Al31B5N36
_chemical_formula_sum   'Al31 B5 N36'
_cell_volume   746.89764581
_cell_formula_units_Z   1
loop_
 _symmetry_equiv_pos_site_id
 _symmetry_equiv_pos_as_xyz
  1  'x, y, z'
loop_
 _atom_site_type_symbol
 _atom_site_label
 _atom_site_symmetry_multiplicity
 _atom_site_fract_x
 _atom_site_fract_y
 _atom_site_fract_z
 _atom_site_occupancy
  Al  Al0  1  0.10148010  0.09397387  0.32129765  1
  Al  Al1  1  0.22393817  0.20786980  0.07046417  1
  Al  Al2  1  0.78569121  0.09869316  0.80868862  1
  Al  Al3  1  0.45169897  0.10059259  0.40055894  1
  Al  Al4  1  0.10407273  0.10310851  0.82137045  1
  Al  Al5  1  0.88562285  0.20042223  0.09971233  1
  Al  Al6  1  0.45758087  0.09156757  0.88792897  1
  Al  Al7  1  0.10770406  0.42942534  0.32376564  1
  Al  Al8  1  0.22137815  0.53551073  0.07236412  1
  Al  Al9  1  0.77362094  0.42774879  0.89802591  1
  Al  Al10  1  0.88656356  0.53786929  0.56666434  1
  Al  Al11  1  0.45546826  0.41090596  0.38795865  1
  Al  Al12  1  0.55355283  0.52840750  0.14089273  1
  Al  Al13  1  0.11532325  0.41873953  0.81606743  1
  Al  Al14  1  0.21813956  0.53260527  0.56795159  1
  Al  Al15  1  0.77692868  0.41343720  0.36663934  1
  Al  Al16  1  0.89221593  0.54391555  0.07452637  1
  Al  Al17  1  0.45329555  0.41559759  0.88937493  1
  Al  Al18  1  0.56725965  0.51373703  0.63804612  1
  Al  Al19  1  0.10231250  0.76897863  0.31657678  1
  Al  Al20  1  0.22113055  0.87431786  0.06435577  1
  Al  Al21  1  0.78926322  0.75612872  0.81797343  1
  Al  Al22  1  0.88852814  0.89248125  0.56049023  1
  Al  Al23  1  0.43288918  0.76691653  0.32503866  1
  Al  Al24  1  0.54985286  0.88554715  0.13796257  1
  Al  Al25  1  0.10849136  0.76136484  0.81573045  1
  Al  Al26  1  0.21939756  0.87745654  0.56894116  1
  Al  Al27  1  0.77677584  0.76969413  0.32202169  1
  Al  Al28  1  0.87999134  0.87920630  0.06663401  1
  Al  Al29  1  0.43950010  0.76275024  0.81784416  1
  Al  Al30  1  0.55881416  0.88318073  0.63459091  1
  B  B31  1  0.89925715  0.20883099  0.60609472  1
  B  B32  1  0.55349032  0.20294602  0.14646571  1
  B  B33  1  0.15549372  0.24006268  0.55519953  1
  B  B34  1  0.77488251  0.09407992  0.29656180  1
  B  B35  1  0.50585226  0.22829331  0.65023865  1
  N  N36  1  0.20049626  0.21313779  0.40854224  1
  N  N37  1  0.12185304  0.09226120  0.13374057  1
  N  N38  1  0.89194622  0.19638087  0.89636737  1
  N  N39  1  0.83573874  0.09807998  0.63100689  1
  N  N40  1  0.55993829  0.20011724  0.30697180  1
  N  N41  1  0.46266451  0.10915731  0.08063560  1
  N  N42  1  0.22350280  0.20166230  0.88207575  1
  N  N43  1  0.09658876  0.12741114  0.61985636  1
  N  N44  1  0.87076695  0.19056786  0.32494780  1
  N  N45  1  0.75620625  0.09639241  0.13650962  1
  N  N46  1  0.54618702  0.21002039  0.80025679  1
  N  N47  1  0.48660369  0.10184589  0.58210543  1
  N  N48  1  0.21649556  0.54203314  0.37884912  1
  N  N49  1  0.11328778  0.42492379  0.13732635  1
  N  N50  1  0.89701522  0.53646616  0.88054120  1
  N  N51  1  0.79456040  0.39630704  0.58636058  1
  N  N52  1  0.55127470  0.53382595  0.33393140  1
  N  N53  1  0.46196470  0.39599329  0.08196849  1
  N  N54  1  0.21882178  0.53729262  0.87801737  1
  N  N55  1  0.11597906  0.40294595  0.62185023  1
  N  N56  1  0.88420156  0.54256262  0.37735613  1
  N  N57  1  0.77166393  0.43563550  0.09236581  1
  N  N58  1  0.55940190  0.52851985  0.82937112  1
  N  N59  1  0.45566149  0.39682946  0.58355229  1
  N  N60  1  0.21540822  0.87379626  0.38295424  1
  N  N61  1  0.10851681  0.76362043  0.12675023  1
  N  N62  1  0.88612561  0.87719212  0.87820237  1
  N  N63  1  0.79339129  0.75865480  0.62477179  1
  N  N64  1  0.54441381  0.88481529  0.33610361  1
  N  N65  1  0.43811247  0.76362524  0.12473703  1
  N  N66  1  0.21937095  0.87427656  0.87313273  1
  N  N67  1  0.11556411  0.75495346  0.62641148  1
  N  N68  1  0.87116375  0.90344643  0.36877631  1
  N  N69  1  0.78085988  0.76173944  0.13131706  1
  N  N70  1  0.55836921  0.87322419  0.83147978  1
  N  N71  1  0.44551730  0.75966211  0.62054672  1
