# generated using pymatgen
data_Al31B5N36
_symmetry_space_group_name_H-M   'P 1'
_cell_length_a   9.28322520
_cell_length_b   9.15947557
_cell_length_c   10.17249838
_cell_angle_alpha   89.36911413
_cell_angle_beta   90.28536922
_cell_angle_gamma   60.02476160
_symmetry_Int_Tables_number   1
_chemical_formula_structural   Al31B5N36
_chemical_formula_sum   'Al31 B5 N36'
_cell_volume   749.16578637
_cell_formula_units_Z   1
loop_
 _symmetry_equiv_pos_site_id
 _symmetry_equiv_pos_as_xyz
  1  'x, y, z'
loop_
 _atom_site_type_symbol
 _atom_site_label
 _atom_site_symmetry_multiplicity
 _atom_site_fract_x
 _atom_site_fract_y
 _atom_site_fract_z
 _atom_site_occupancy
  Al  Al0  1  0.10967827  0.09061808  0.32541538  1
  Al  Al1  1  0.22053889  0.20993852  0.07134325  1
  Al  Al2  1  0.77846666  0.09077267  0.80378493  1
  Al  Al3  1  0.45702068  0.09622317  0.39680179  1
  Al  Al4  1  0.12041643  0.09889590  0.80166290  1
  Al  Al5  1  0.87391512  0.20755711  0.13637746  1
  Al  Al6  1  0.45393179  0.09444736  0.88839780  1
  Al  Al7  1  0.11321882  0.42512879  0.32420142  1
  Al  Al8  1  0.21842216  0.53730215  0.07033229  1
  Al  Al9  1  0.77947053  0.42991741  0.88783577  1
  Al  Al10  1  0.88439494  0.53360797  0.63432365  1
  Al  Al11  1  0.45684639  0.41120706  0.38405354  1
  Al  Al12  1  0.55398574  0.53359516  0.13809825  1
  Al  Al13  1  0.12278978  0.41756390  0.81374782  1
  Al  Al14  1  0.21703231  0.53277486  0.56456530  1
  Al  Al15  1  0.77648429  0.41034756  0.39396901  1
  Al  Al16  1  0.88022357  0.54063695  0.14155502  1
  Al  Al17  1  0.45412684  0.41721832  0.89004529  1
  Al  Al18  1  0.55428240  0.52843292  0.64080684  1
  Al  Al19  1  0.10355824  0.76912536  0.31363844  1
  Al  Al20  1  0.21207057  0.88101922  0.06470233  1
  Al  Al21  1  0.77669098  0.75597706  0.88613534  1
  Al  Al22  1  0.88994437  0.89292150  0.55946222  1
  Al  Al23  1  0.45108038  0.75492886  0.38714411  1
  Al  Al24  1  0.55431929  0.88016197  0.13924530  1
  Al  Al25  1  0.10929223  0.76200299  0.81248423  1
  Al  Al26  1  0.22425566  0.87799797  0.56829900  1
  Al  Al27  1  0.77032533  0.76312325  0.38570724  1
  Al  Al28  1  0.88067611  0.88524080  0.06245140  1
  Al  Al29  1  0.44674149  0.76086563  0.88566169  1
  Al  Al30  1  0.56210769  0.87846557  0.63781724  1
  B  B31  1  0.84428555  0.23542002  0.65545276  1
  B  B32  1  0.55949856  0.20226451  0.13723993  1
  B  B33  1  0.17536183  0.22613783  0.55529852  1
  B  B34  1  0.77276279  0.09272650  0.32354910  1
  B  B35  1  0.50709792  0.22800703  0.64475633  1
  N  N36  1  0.20979907  0.21032713  0.40389604  1
  N  N37  1  0.11262506  0.09688491  0.13631997  1
  N  N38  1  0.88358278  0.22297293  0.80674793  1
  N  N39  1  0.81446682  0.10233087  0.62045831  1
  N  N40  1  0.57374610  0.19347117  0.30533000  1
  N  N41  1  0.46176372  0.10807863  0.08099132  1
  N  N42  1  0.21979321  0.20494595  0.88678480  1
  N  N43  1  0.15922440  0.09604745  0.62165847  1
  N  N44  1  0.86788424  0.19063611  0.32669747  1
  N  N45  1  0.74801222  0.10896637  0.09969686  1
  N  N46  1  0.54005190  0.21369230  0.79705287  1
  N  N47  1  0.49452216  0.09751541  0.57708086  1
  N  N48  1  0.21646619  0.54296848  0.37767146  1
  N  N49  1  0.11453225  0.42508734  0.13755748  1
  N  N50  1  0.88813567  0.54021144  0.82176270  1
  N  N51  1  0.78412384  0.40315299  0.58339552  1
  N  N52  1  0.55571052  0.53378026  0.32676289  1
  N  N53  1  0.45953970  0.40050194  0.08208055  1
  N  N54  1  0.21862901  0.53961768  0.87930399  1
  N  N55  1  0.12296827  0.39832677  0.61926442  1
  N  N56  1  0.87794128  0.53579975  0.33237259  1
  N  N57  1  0.77631497  0.42783423  0.07372102  1
  N  N58  1  0.55422960  0.53769570  0.82728420  1
  N  N59  1  0.45534022  0.39980542  0.57945101  1
  N  N60  1  0.21799023  0.87034934  0.38064327  1
  N  N61  1  0.10561147  0.76537604  0.12727778  1
  N  N62  1  0.89009598  0.87505960  0.87294582  1
  N  N63  1  0.78582775  0.75666628  0.57306977  1
  N  N64  1  0.54833185  0.87839726  0.32615830  1
  N  N65  1  0.44681340  0.76106215  0.07678506  1
  N  N66  1  0.21213894  0.88060537  0.87379161  1
  N  N67  1  0.11586664  0.75712542  0.62509035  1
  N  N68  1  0.86971820  0.90483265  0.36458216  1
  N  N69  1  0.77328628  0.75836479  0.07625166  1
  N  N70  1  0.55538506  0.87412578  0.82483982  1
  N  N71  1  0.46170943  0.75080389  0.57654975  1
