# generated using pymatgen
data_Al31B5N36
_symmetry_space_group_name_H-M   'P 1'
_cell_length_a   9.30093280
_cell_length_b   9.22387134
_cell_length_c   10.08833385
_cell_angle_alpha   89.49959739
_cell_angle_beta   90.28752293
_cell_angle_gamma   59.78168820
_symmetry_Int_Tables_number   1
_chemical_formula_structural   Al31B5N36
_chemical_formula_sum   'Al31 B5 N36'
_cell_volume   747.80417878
_cell_formula_units_Z   1
loop_
 _symmetry_equiv_pos_site_id
 _symmetry_equiv_pos_as_xyz
  1  'x, y, z'
loop_
 _atom_site_type_symbol
 _atom_site_label
 _atom_site_symmetry_multiplicity
 _atom_site_fract_x
 _atom_site_fract_y
 _atom_site_fract_z
 _atom_site_occupancy
  Al  Al0  1  0.10110493  0.09406977  0.32046474  1
  Al  Al1  1  0.22333595  0.20817007  0.07099206  1
  Al  Al2  1  0.78495330  0.09862039  0.80814895  1
  Al  Al3  1  0.45077522  0.10135471  0.40151123  1
  Al  Al4  1  0.10416894  0.10229936  0.82302315  1
  Al  Al5  1  0.88476113  0.20128996  0.09895984  1
  Al  Al6  1  0.45593714  0.09348398  0.88868947  1
  Al  Al7  1  0.11173928  0.42717018  0.32757586  1
  Al  Al8  1  0.22001311  0.53542312  0.07212248  1
  Al  Al9  1  0.77765316  0.42890841  0.89636193  1
  Al  Al10  1  0.88610474  0.53610044  0.61150385  1
  Al  Al11  1  0.45428949  0.41123761  0.38784912  1
  Al  Al12  1  0.55580106  0.52617684  0.14435263  1
  Al  Al13  1  0.11667854  0.41866747  0.81519127  1
  Al  Al14  1  0.21840933  0.53420611  0.56769145  1
  Al  Al15  1  0.77692148  0.40974044  0.38468067  1
  Al  Al16  1  0.88242068  0.54127429  0.13787020  1
  Al  Al17  1  0.45400488  0.41608504  0.89058655  1
  Al  Al18  1  0.56600796  0.51404073  0.63791421  1
  Al  Al19  1  0.10179754  0.76983396  0.31604506  1
  Al  Al20  1  0.22474230  0.87274073  0.06490760  1
  Al  Al21  1  0.77773775  0.75467798  0.88898436  1
  Al  Al22  1  0.89350278  0.89636103  0.55905677  1
  Al  Al23  1  0.43436775  0.76603033  0.32502018  1
  Al  Al24  1  0.55632243  0.88423787  0.14213166  1
  Al  Al25  1  0.10666563  0.76160924  0.81603693  1
  Al  Al26  1  0.22329523  0.87687803  0.56902426  1
  Al  Al27  1  0.76875240  0.77155169  0.38571504  1
  Al  Al28  1  0.88434104  0.88250152  0.06783622  1
  Al  Al29  1  0.44083750  0.76124429  0.81632932  1
  Al  Al30  1  0.56750473  0.88191844  0.64060170  1
  B  B31  1  0.90282326  0.20637367  0.60467132  1
  B  B32  1  0.55192603  0.20358915  0.14699147  1
  B  B33  1  0.15836283  0.23911116  0.55443280  1
  B  B34  1  0.77583808  0.09372647  0.29611394  1
  B  B35  1  0.50364458  0.22930449  0.65084469  1
  N  N36  1  0.20166814  0.21127686  0.40863581  1
  N  N37  1  0.12192710  0.09143682  0.13351414  1
  N  N38  1  0.89159476  0.19598261  0.89576710  1
  N  N39  1  0.83499823  0.10047604  0.63069226  1
  N  N40  1  0.55781941  0.20110998  0.30724836  1
  N  N41  1  0.46261972  0.10890933  0.08122833  1
  N  N42  1  0.22186706  0.20296891  0.88299965  1
  N  N43  1  0.09723970  0.12796896  0.61992171  1
  N  N44  1  0.86959539  0.19266383  0.32450401  1
  N  N45  1  0.75550884  0.09701335  0.13743210  1
  N  N46  1  0.54447417  0.21139516  0.80049832  1
  N  N47  1  0.48480002  0.10233245  0.58371688  1
  N  N48  1  0.21509325  0.54435972  0.38009269  1
  N  N49  1  0.11589716  0.42312930  0.13945925  1
  N  N50  1  0.88716595  0.53597489  0.82956877  1
  N  N51  1  0.79506352  0.39562030  0.57895990  1
  N  N52  1  0.55276411  0.53254463  0.33700244  1
  N  N53  1  0.46178483  0.39664951  0.08306245  1
  N  N54  1  0.21763508  0.53756246  0.87911684  1
  N  N55  1  0.12218842  0.40049511  0.61903295  1
  N  N56  1  0.87992722  0.53988303  0.34679599  1
  N  N57  1  0.77091094  0.43591742  0.08476595  1
  N  N58  1  0.56031726  0.52684691  0.82761788  1
  N  N59  1  0.45572803  0.39665693  0.58311990  1
  N  N60  1  0.21624306  0.87395746  0.38350851  1
  N  N61  1  0.11051525  0.76284871  0.12750107  1
  N  N62  1  0.88631308  0.87888035  0.87693672  1
  N  N63  1  0.78571124  0.76441481  0.57603290  1
  N  N64  1  0.54631551  0.88570017  0.33332145  1
  N  N65  1  0.44127899  0.76226818  0.12800004  1
  N  N66  1  0.22111123  0.87270144  0.87369821  1
  N  N67  1  0.11697427  0.75578673  0.62714912  1
  N  N68  1  0.87166444  0.90612527  0.36522938  1
  N  N69  1  0.77470126  0.76040822  0.08188585  1
  N  N70  1  0.55852307  0.87478322  0.83027815  1
  N  N71  1  0.44948776  0.75983292  0.62085874  1
