# generated using pymatgen
data_Al31B5N36
_symmetry_space_group_name_H-M   'P 1'
_cell_length_a   9.32042724
_cell_length_b   9.21301765
_cell_length_c   10.05820906
_cell_angle_alpha   89.59417439
_cell_angle_beta   90.16443760
_cell_angle_gamma   59.84642533
_symmetry_Int_Tables_number   1
_chemical_formula_structural   Al31B5N36
_chemical_formula_sum   'Al31 B5 N36'
_cell_volume   746.77875916
_cell_formula_units_Z   1
loop_
 _symmetry_equiv_pos_site_id
 _symmetry_equiv_pos_as_xyz
  1  'x, y, z'
loop_
 _atom_site_type_symbol
 _atom_site_label
 _atom_site_symmetry_multiplicity
 _atom_site_fract_x
 _atom_site_fract_y
 _atom_site_fract_z
 _atom_site_occupancy
  Al  Al0  1  0.10147505  0.09385512  0.32162703  1
  Al  Al1  1  0.22395488  0.20781631  0.07056073  1
  Al  Al2  1  0.78563352  0.09863853  0.80877912  1
  Al  Al3  1  0.45166638  0.10063425  0.40058810  1
  Al  Al4  1  0.10406678  0.10317503  0.82114285  1
  Al  Al5  1  0.88602082  0.19961794  0.09883562  1
  Al  Al6  1  0.45751960  0.09162039  0.88790399  1
  Al  Al7  1  0.10818016  0.42921684  0.32392610  1
  Al  Al8  1  0.22116853  0.53551410  0.07234617  1
  Al  Al9  1  0.77381647  0.42774009  0.89693434  1
  Al  Al10  1  0.88585159  0.53697032  0.56665713  1
  Al  Al11  1  0.45603045  0.41074804  0.38823432  1
  Al  Al12  1  0.55199601  0.52929241  0.13968424  1
  Al  Al13  1  0.11521561  0.41872046  0.81591180  1
  Al  Al14  1  0.21815705  0.53251450  0.56800427  1
  Al  Al15  1  0.77741000  0.41489797  0.35663857  1
  Al  Al16  1  0.89241609  0.54399762  0.07447596  1
  Al  Al17  1  0.45290957  0.41562790  0.88930650  1
  Al  Al18  1  0.56761264  0.51361385  0.63847618  1
  Al  Al19  1  0.10243347  0.76884769  0.31669098  1
  Al  Al20  1  0.22090063  0.87452352  0.06431924  1
  Al  Al21  1  0.78924950  0.75610855  0.81786418  1
  Al  Al22  1  0.88863838  0.89240612  0.56062894  1
  Al  Al23  1  0.43276939  0.76708059  0.32501855  1
  Al  Al24  1  0.54991883  0.88562914  0.13794295  1
  Al  Al25  1  0.10840940  0.76141776  0.81567437  1
  Al  Al26  1  0.21935241  0.87756452  0.56908338  1
  Al  Al27  1  0.77677131  0.76982966  0.32222759  1
  Al  Al28  1  0.87998920  0.87909327  0.06674455  1
  Al  Al29  1  0.43922623  0.76309996  0.81799657  1
  Al  Al30  1  0.55893072  0.88302562  0.63449249  1
  B  B31  1  0.89869825  0.20971761  0.60705048  1
  B  B32  1  0.55348762  0.20286852  0.14655907  1
  B  B33  1  0.15550688  0.23992053  0.55530421  1
  B  B34  1  0.77501955  0.09398461  0.29671869  1
  B  B35  1  0.50602185  0.22823440  0.65023710  1
  N  N36  1  0.20066759  0.21301839  0.40848183  1
  N  N37  1  0.12175267  0.09230566  0.13386094  1
  N  N38  1  0.89181957  0.19652628  0.89692173  1
  N  N39  1  0.83613954  0.09773887  0.63130125  1
  N  N40  1  0.56004288  0.20007975  0.30702820  1
  N  N41  1  0.46265287  0.10914915  0.08073419  1
  N  N42  1  0.22342305  0.20174938  0.88214058  1
  N  N43  1  0.09713043  0.12703223  0.61997320  1
  N  N44  1  0.87099418  0.19004314  0.32554964  1
  N  N45  1  0.75624759  0.09636068  0.13652972  1
  N  N46  1  0.54619567  0.21005767  0.80035913  1
  N  N47  1  0.48683752  0.10172415  0.58212892  1
  N  N48  1  0.21678725  0.54191743  0.37883615  1
  N  N49  1  0.11327330  0.42487206  0.13740230  1
  N  N50  1  0.89692247  0.53654483  0.88106767  1
  N  N51  1  0.79516003  0.39638697  0.59166264  1
  N  N52  1  0.55076687  0.53417993  0.33318830  1
  N  N53  1  0.46168621  0.39585300  0.08181827  1
  N  N54  1  0.21853977  0.53738083  0.87798655  1
  N  N55  1  0.11595008  0.40295681  0.62169938  1
  N  N56  1  0.88425781  0.54225015  0.37707770  1
  N  N57  1  0.77214891  0.43530853  0.09500311  1
  N  N58  1  0.55869545  0.52914886  0.83053268  1
  N  N59  1  0.45576195  0.39687006  0.58372689  1
  N  N60  1  0.21548263  0.87370014  0.38295934  1
  N  N61  1  0.10853860  0.76357896  0.12677229  1
  N  N62  1  0.88609635  0.87714670  0.87828573  1
  N  N63  1  0.79352736  0.75823761  0.62456231  1
  N  N64  1  0.54447411  0.88475625  0.33614230  1
  N  N65  1  0.43791718  0.76408192  0.12438100  1
  N  N66  1  0.21905817  0.87453347  0.87314532  1
  N  N67  1  0.11565632  0.75483158  0.62638368  1
  N  N68  1  0.87128398  0.90333785  0.36880132  1
  N  N69  1  0.78085653  0.76167036  0.13144062  1
  N  N70  1  0.55841116  0.87327176  0.83154143  1
  N  N71  1  0.44551120  0.75957421  0.62069552  1
