# generated using pymatgen
data_Al31B5N36
_symmetry_space_group_name_H-M   'P 1'
_cell_length_a   9.38848051
_cell_length_b   9.13052275
_cell_length_c   10.10527251
_cell_angle_alpha   89.89994532
_cell_angle_beta   90.37160906
_cell_angle_gamma   60.78938759
_symmetry_Int_Tables_number   1
_chemical_formula_structural   Al31B5N36
_chemical_formula_sum   'Al31 B5 N36'
_cell_volume   756.05516034
_cell_formula_units_Z   1
loop_
 _symmetry_equiv_pos_site_id
 _symmetry_equiv_pos_as_xyz
  1  'x, y, z'
loop_
 _atom_site_type_symbol
 _atom_site_label
 _atom_site_symmetry_multiplicity
 _atom_site_fract_x
 _atom_site_fract_y
 _atom_site_fract_z
 _atom_site_occupancy
  Al  Al0  1  0.12082495  0.09093227  0.32626079  1
  Al  Al1  1  0.21273631  0.21216189  0.06825885  1
  Al  Al2  1  0.77586675  0.09452810  0.86798952  1
  Al  Al3  1  0.44768523  0.10139779  0.39878809  1
  Al  Al4  1  0.11477711  0.09571609  0.79968447  1
  Al  Al5  1  0.88175231  0.20043517  0.13981939  1
  Al  Al6  1  0.44585344  0.09686388  0.88374041  1
  Al  Al7  1  0.11340711  0.42814770  0.32520910  1
  Al  Al8  1  0.21151389  0.54113544  0.06884457  1
  Al  Al9  1  0.77739380  0.42198127  0.88488152  1
  Al  Al10  1  0.88135691  0.53096352  0.63565777  1
  Al  Al11  1  0.44573382  0.41990336  0.38524706  1
  Al  Al12  1  0.55472553  0.52945852  0.13794139  1
  Al  Al13  1  0.11445720  0.41890409  0.81491111  1
  Al  Al14  1  0.21708676  0.53077136  0.56962849  1
  Al  Al15  1  0.77799459  0.41682040  0.39076709  1
  Al  Al16  1  0.87808139  0.54364852  0.14112899  1
  Al  Al17  1  0.44691804  0.41899809  0.88711818  1
  Al  Al18  1  0.55335238  0.52760201  0.64111866  1
  Al  Al19  1  0.11379199  0.76521749  0.32170040  1
  Al  Al20  1  0.21379195  0.87991582  0.06964556  1
  Al  Al21  1  0.77729361  0.76047279  0.88382881  1
  Al  Al22  1  0.89296795  0.87574855  0.62570008  1
  Al  Al23  1  0.45861509  0.75384884  0.38616206  1
  Al  Al24  1  0.55361075  0.88429217  0.13989676  1
  Al  Al25  1  0.11468439  0.75933353  0.81587034  1
  Al  Al26  1  0.22999977  0.87391168  0.56730484  1
  Al  Al27  1  0.77709628  0.77350241  0.39216383  1
  Al  Al28  1  0.88197096  0.88639172  0.12051443  1
  Al  Al29  1  0.44644381  0.76004990  0.88876210  1
  Al  Al30  1  0.56271728  0.87617923  0.63952635  1
  B  B31  1  0.84183813  0.22850965  0.63775443  1
  B  B32  1  0.48039768  0.24184686  0.15012298  1
  B  B33  1  0.16909409  0.22815027  0.55689828  1
  B  B34  1  0.85775180  0.06847519  0.41478350  1
  B  B35  1  0.50527867  0.22671624  0.64891243  1
  N  N36  1  0.20651655  0.21571353  0.40858577  1
  N  N37  1  0.11807907  0.09569406  0.13969909  1
  N  N38  1  0.87505928  0.21157623  0.78770626  1
  N  N39  1  0.84219938  0.09125655  0.55974462  1
  N  N40  1  0.49669063  0.23179068  0.29088437  1
  N  N41  1  0.44929830  0.11313546  0.07578178  1
  N  N42  1  0.21300350  0.20575028  0.88343209  1
  N  N43  1  0.16268789  0.09226171  0.62223419  1
  N  N44  1  0.88452740  0.19041376  0.33282183  1
  N  N45  1  0.79799344  0.09167585  0.04776961  1
  N  N46  1  0.54483685  0.21051411  0.79996025  1
  N  N47  1  0.49925684  0.09391473  0.57910338  1
  N  N48  1  0.21251830  0.54792762  0.38462850  1
  N  N49  1  0.10973462  0.42741263  0.13597484  1
  N  N50  1  0.88357533  0.53718741  0.82557822  1
  N  N51  1  0.77911624  0.40340936  0.58042008  1
  N  N52  1  0.55866393  0.53036225  0.32731997  1
  N  N53  1  0.44740659  0.40596338  0.07846131  1
  N  N54  1  0.21435880  0.53879361  0.87856822  1
  N  N55  1  0.11651234  0.40047928  0.62195997  1
  N  N56  1  0.87859268  0.54448258  0.33275850  1
  N  N57  1  0.77674090  0.42393085  0.07573811  1
  N  N58  1  0.55284688  0.53591978  0.82958700  1
  N  N59  1  0.45371019  0.39786507  0.58281312  1
  N  N60  1  0.22837605  0.87006903  0.37911918  1
  N  N61  1  0.11272931  0.75949037  0.13231668  1
  N  N62  1  0.88321290  0.87169433  0.81555227  1
  N  N63  1  0.78426172  0.75395137  0.57779250  1
  N  N64  1  0.55592424  0.87967568  0.32860082  1
  N  N65  1  0.44844331  0.75936232  0.08027974  1
  N  N66  1  0.21296414  0.88017806  0.87873150  1
  N  N67  1  0.12850658  0.75140328  0.62931897  1
  N  N68  1  0.88443933  0.90359650  0.35296491  1
  N  N69  1  0.77503589  0.76547655  0.07594083  1
  N  N70  1  0.55421233  0.87335522  0.82817402  1
  N  N71  1  0.46370841  0.74847850  0.57716253  1
