# generated using pymatgen
data_Al31B5N36
_symmetry_space_group_name_H-M   'P 1'
_cell_length_a   9.31684713
_cell_length_b   9.17151603
_cell_length_c   9.96336688
_cell_angle_alpha   90.26784560
_cell_angle_beta   89.91398691
_cell_angle_gamma   60.33833014
_symmetry_Int_Tables_number   1
_chemical_formula_structural   Al31B5N36
_chemical_formula_sum   'Al31 B5 N36'
_cell_volume   739.79001320
_cell_formula_units_Z   1
loop_
 _symmetry_equiv_pos_site_id
 _symmetry_equiv_pos_as_xyz
  1  'x, y, z'
loop_
 _atom_site_type_symbol
 _atom_site_label
 _atom_site_symmetry_multiplicity
 _atom_site_fract_x
 _atom_site_fract_y
 _atom_site_fract_z
 _atom_site_occupancy
  Al  Al0  1  0.09690529  0.09869121  0.33570740  1
  Al  Al1  1  0.22324237  0.20770840  0.07881227  1
  Al  Al2  1  0.79060452  0.09527076  0.80540630  1
  Al  Al3  1  0.45057200  0.10247929  0.40509082  1
  Al  Al4  1  0.11937568  0.09744045  0.81482658  1
  Al  Al5  1  0.88663684  0.20466908  0.07481011  1
  Al  Al6  1  0.45941570  0.09511296  0.89558451  1
  Al  Al7  1  0.10459195  0.42946021  0.32398245  1
  Al  Al8  1  0.22674368  0.53155196  0.07087225  1
  Al  Al9  1  0.78230911  0.41714708  0.81379298  1
  Al  Al10  1  0.88637206  0.52938484  0.56746538  1
  Al  Al11  1  0.44170435  0.42832706  0.31752956  1
  Al  Al12  1  0.55804879  0.53139561  0.06957511  1
  Al  Al13  1  0.11660607  0.41644645  0.81738082  1
  Al  Al14  1  0.22014063  0.52952692  0.56709613  1
  Al  Al15  1  0.76819951  0.42848554  0.32144012  1
  Al  Al16  1  0.88914961  0.53636727  0.06884797  1
  Al  Al17  1  0.44062416  0.43474898  0.82135594  1
  Al  Al18  1  0.55261445  0.52802799  0.56775511  1
  Al  Al19  1  0.10281107  0.76851481  0.31831065  1
  Al  Al20  1  0.21971371  0.87527459  0.07058253  1
  Al  Al21  1  0.78747731  0.75706329  0.82120923  1
  Al  Al22  1  0.89045940  0.88216743  0.56170770  1
  Al  Al23  1  0.43459784  0.76460361  0.32337409  1
  Al  Al24  1  0.55378982  0.88162976  0.13186717  1
  Al  Al25  1  0.10942846  0.76267406  0.81885814  1
  Al  Al26  1  0.22579981  0.87670428  0.57244764  1
  Al  Al27  1  0.77523344  0.76765083  0.32330088  1
  Al  Al28  1  0.88371084  0.87895950  0.07298469  1
  Al  Al29  1  0.44429362  0.75940402  0.82278860  1
  Al  Al30  1  0.55799690  0.88182650  0.63182152  1
  B  B31  1  0.83224756  0.22214965  0.54667289  1
  B  B32  1  0.55961273  0.19983939  0.15798726  1
  B  B33  1  0.16930329  0.22824009  0.56034231  1
  B  B34  1  0.77217381  0.09434342  0.31381743  1
  B  B35  1  0.50777855  0.22448755  0.65975967  1
  N  N36  1  0.20562290  0.21427889  0.40606363  1
  N  N37  1  0.10887166  0.09776559  0.14265321  1
  N  N38  1  0.89671775  0.20141828  0.88470470  1
  N  N39  1  0.82411138  0.09622424  0.62230494  1
  N  N40  1  0.57033482  0.19253809  0.31855551  1
  N  N41  1  0.46572028  0.11034083  0.09013925  1
  N  N42  1  0.22724223  0.20326071  0.89045797  1
  N  N43  1  0.15330653  0.09917206  0.62828095  1
  N  N44  1  0.85935348  0.20245131  0.38946780  1
  N  N45  1  0.76762564  0.10198789  0.14852078  1
  N  N46  1  0.55706461  0.20229652  0.80951341  1
  N  N47  1  0.48774486  0.10268717  0.58680308  1
  N  N48  1  0.21804285  0.54045791  0.37750747  1
  N  N49  1  0.10883197  0.42854060  0.13530048  1
  N  N50  1  0.89292646  0.53183906  0.87518155  1
  N  N51  1  0.78146970  0.39866279  0.61497526  1
  N  N52  1  0.54771527  0.54106782  0.37941621  1
  N  N53  1  0.45464031  0.40642895  0.12528811  1
  N  N54  1  0.22089326  0.53711690  0.87852316  1
  N  N55  1  0.11398829  0.40294922  0.62300265  1
  N  N56  1  0.88243782  0.54101823  0.37938510  1
  N  N57  1  0.77599504  0.42827178  0.13214404  1
  N  N58  1  0.56108283  0.53440767  0.87827349  1
  N  N59  1  0.44142883  0.41101535  0.62655649  1
  N  N60  1  0.21603603  0.87414725  0.38344812  1
  N  N61  1  0.11020995  0.76065696  0.12804516  1
  N  N62  1  0.88807907  0.87834451  0.88108681  1
  N  N63  1  0.79154884  0.75401905  0.62688274  1
  N  N64  1  0.54666777  0.88184536  0.34435450  1
  N  N65  1  0.44004964  0.75921929  0.12791741  1
  N  N66  1  0.22244363  0.87347702  0.87873805  1
  N  N67  1  0.11472158  0.75603467  0.62735151  1
  N  N68  1  0.87258334  0.90065961  0.36972724  1
  N  N69  1  0.78242586  0.75805504  0.12920170  1
  N  N70  1  0.55947970  0.87355111  0.84335229  1
  N  N71  1  0.44957348  0.75166008  0.62920327  1
