# generated using pymatgen
data_Al31B5N36
_symmetry_space_group_name_H-M   'P 1'
_cell_length_a   9.29122037
_cell_length_b   9.19407989
_cell_length_c   10.10546089
_cell_angle_alpha   89.47607357
_cell_angle_beta   90.14951418
_cell_angle_gamma   59.83195849
_symmetry_Int_Tables_number   1
_chemical_formula_structural   Al31B5N36
_chemical_formula_sum   'Al31 B5 N36'
_cell_volume   746.27117793
_cell_formula_units_Z   1
loop_
 _symmetry_equiv_pos_site_id
 _symmetry_equiv_pos_as_xyz
  1  'x, y, z'
loop_
 _atom_site_type_symbol
 _atom_site_label
 _atom_site_symmetry_multiplicity
 _atom_site_fract_x
 _atom_site_fract_y
 _atom_site_fract_z
 _atom_site_occupancy
  Al  Al0  1  0.10082296  0.09426716  0.31978058  1
  Al  Al1  1  0.22454233  0.20720563  0.07151895  1
  Al  Al2  1  0.78447990  0.09877658  0.80733020  1
  Al  Al3  1  0.45226385  0.10067612  0.40067456  1
  Al  Al4  1  0.10263106  0.10391289  0.82202213  1
  Al  Al5  1  0.88404041  0.20275033  0.09812028  1
  Al  Al6  1  0.45758327  0.09198404  0.88897592  1
  Al  Al7  1  0.11332330  0.42643963  0.32598767  1
  Al  Al8  1  0.22113962  0.53508450  0.07294884  1
  Al  Al9  1  0.77736571  0.42981989  0.89694462  1
  Al  Al10  1  0.88296704  0.53695329  0.63485052  1
  Al  Al11  1  0.45513416  0.41123386  0.38679526  1
  Al  Al12  1  0.55413488  0.53289570  0.14375492  1
  Al  Al13  1  0.12245625  0.41596435  0.81629689  1
  Al  Al14  1  0.21714472  0.53416589  0.56651358  1
  Al  Al15  1  0.77921138  0.41108943  0.38585990  1
  Al  Al16  1  0.88046847  0.54200327  0.14537669  1
  Al  Al17  1  0.45518489  0.41616858  0.89108798  1
  Al  Al18  1  0.56412026  0.51626955  0.63645857  1
  Al  Al19  1  0.10182337  0.77048384  0.31550770  1
  Al  Al20  1  0.22348713  0.87341002  0.06445771  1
  Al  Al21  1  0.77754467  0.75399035  0.89026176  1
  Al  Al22  1  0.89105487  0.89581073  0.55865900  1
  Al  Al23  1  0.44200752  0.76224286  0.36915487  1
  Al  Al24  1  0.55445046  0.87951908  0.14167296  1
  Al  Al25  1  0.10509083  0.76161559  0.81539609  1
  Al  Al26  1  0.21576249  0.88134362  0.57254525  1
  Al  Al27  1  0.77171056  0.76687834  0.38637723  1
  Al  Al28  1  0.88379233  0.88157783  0.06793461  1
  Al  Al29  1  0.44283044  0.76040745  0.83735804  1
  Al  Al30  1  0.56721604  0.88018110  0.63841955  1
  B  B31  1  0.90074483  0.20825139  0.60406512  1
  B  B32  1  0.55309661  0.20313679  0.14622582  1
  B  B33  1  0.15515106  0.24207799  0.55432876  1
  B  B34  1  0.77566243  0.09406881  0.29605032  1
  B  B35  1  0.50477998  0.22892400  0.64951376  1
  N  N36  1  0.20138309  0.21188837  0.40921320  1
  N  N37  1  0.12091696  0.09181528  0.13338380  1
  N  N38  1  0.89036442  0.19729750  0.89452251  1
  N  N39  1  0.83358732  0.10114654  0.62972756  1
  N  N40  1  0.55818147  0.20101949  0.30628114  1
  N  N41  1  0.46450056  0.10676948  0.08107107  1
  N  N42  1  0.22311732  0.20109030  0.88365600  1
  N  N43  1  0.09479946  0.13028794  0.62036174  1
  N  N44  1  0.86883432  0.19380709  0.32556908  1
  N  N45  1  0.75667157  0.09667079  0.13746487  1
  N  N46  1  0.54389741  0.21187657  0.79960271  1
  N  N47  1  0.48864340  0.10036849  0.58203097  1
  N  N48  1  0.21561651  0.54448402  0.37953714  1
  N  N49  1  0.11670790  0.42262799  0.13842353  1
  N  N50  1  0.88728806  0.53592608  0.82367750  1
  N  N51  1  0.79498560  0.39853121  0.57930483  1
  N  N52  1  0.55374995  0.53416583  0.33613421  1
  N  N53  1  0.46352186  0.39701742  0.08306195  1
  N  N54  1  0.21851677  0.53802846  0.88013312  1
  N  N55  1  0.12168575  0.40109286  0.62050096  1
  N  N56  1  0.87899905  0.54017864  0.33505492  1
  N  N57  1  0.77137497  0.43719127  0.08301445  1
  N  N58  1  0.56067601  0.52801432  0.82442321  1
  N  N59  1  0.45539367  0.39723387  0.58188355  1
  N  N60  1  0.21314498  0.87581563  0.38557525  1
  N  N61  1  0.10990657  0.76322176  0.12751117  1
  N  N62  1  0.88513009  0.87890181  0.87661959  1
  N  N63  1  0.78706671  0.75886211  0.57541316  1
  N  N64  1  0.54765784  0.88287491  0.33265323  1
  N  N65  1  0.44569926  0.76051638  0.10168501  1
  N  N66  1  0.21673486  0.87507143  0.86998231  1
  N  N67  1  0.11432328  0.75543317  0.62753431  1
  N  N68  1  0.87101523  0.90535563  0.36543758  1
  N  N69  1  0.77497355  0.75831041  0.07995050  1
  N  N70  1  0.55962039  0.87339259  0.82618402  1
  N  N71  1  0.45086267  0.75913587  0.60156319  1
