# generated using pymatgen
data_Al31B5N36
_symmetry_space_group_name_H-M   'P 1'
_cell_length_a   9.33129398
_cell_length_b   9.15643163
_cell_length_c   9.79589330
_cell_angle_alpha   90.13848102
_cell_angle_beta   90.45142873
_cell_angle_gamma   60.43746631
_symmetry_Int_Tables_number   1
_chemical_formula_structural   Al31B5N36
_chemical_formula_sum   'Al31 B5 N36'
_cell_volume   727.99154273
_cell_formula_units_Z   1
loop_
 _symmetry_equiv_pos_site_id
 _symmetry_equiv_pos_as_xyz
  1  'x, y, z'
loop_
 _atom_site_type_symbol
 _atom_site_label
 _atom_site_symmetry_multiplicity
 _atom_site_fract_x
 _atom_site_fract_y
 _atom_site_fract_z
 _atom_site_occupancy
  Al  Al0  1  0.11976023  0.09493936  0.41071513  1
  Al  Al1  1  0.22040724  0.20588873  0.14443259  1
  Al  Al2  1  0.76076119  0.10169561  0.89020526  1
  Al  Al3  1  0.44610631  0.10484523  0.39557813  1
  Al  Al4  1  0.10179670  0.10167426  0.85156073  1
  Al  Al5  1  0.88267852  0.20113308  0.14936405  1
  Al  Al6  1  0.43830548  0.09878751  0.89648693  1
  Al  Al7  1  0.11351587  0.42191662  0.40126857  1
  Al  Al8  1  0.22238354  0.53609862  0.15075795  1
  Al  Al9  1  0.77403214  0.42628283  0.89782061  1
  Al  Al10  1  0.89355447  0.52457095  0.64916161  1
  Al  Al11  1  0.44975190  0.41325683  0.39450167  1
  Al  Al12  1  0.55466647  0.53226328  0.14991938  1
  Al  Al13  1  0.10729687  0.42880309  0.89857596  1
  Al  Al14  1  0.22120592  0.53093504  0.65129306  1
  Al  Al15  1  0.77854860  0.41540819  0.40169314  1
  Al  Al16  1  0.88695303  0.53900147  0.15292638  1
  Al  Al17  1  0.43945512  0.42626557  0.90164544  1
  Al  Al18  1  0.55663188  0.52528991  0.65240182  1
  Al  Al19  1  0.11444095  0.76227305  0.39970958  1
  Al  Al20  1  0.21762629  0.87983801  0.14926780  1
  Al  Al21  1  0.77591276  0.76258535  0.90104055  1
  Al  Al22  1  0.89590138  0.87578361  0.64670237  1
  Al  Al23  1  0.45032284  0.75760229  0.39897075  1
  Al  Al24  1  0.55385961  0.88104809  0.15113486  1
  Al  Al25  1  0.10588665  0.76753636  0.90137618  1
  Al  Al26  1  0.23507355  0.86807740  0.64376078  1
  Al  Al27  1  0.77742794  0.77004335  0.40305402  1
  Al  Al28  1  0.87627468  0.89020499  0.15390777  1
  Al  Al29  1  0.44011940  0.76378370  0.90061349  1
  Al  Al30  1  0.55528683  0.87931918  0.65011946  1
  B  B31  1  0.83956001  0.22461374  0.65135651  1
  B  B32  1  0.54618389  0.21114984  0.15426599  1
  B  B33  1  0.22305557  0.20870232  0.65015008  1
  B  B34  1  0.83802297  0.07544431  0.41903117  1
  B  B35  1  0.49136166  0.23503495  0.66404964  1
  N  N36  1  0.22356931  0.20387770  0.33566951  1
  N  N37  1  0.10068659  0.10066859  0.07997547  1
  N  N38  1  0.86977989  0.20958408  0.80775498  1
  N  N39  1  0.82506126  0.09348452  0.57160833  1
  N  N40  1  0.54876916  0.20798746  0.31105314  1
  N  N41  1  0.44950227  0.11027401  0.09003329  1
  N  N42  1  0.22255160  0.21153261  0.82120084  1
  N  N43  1  0.15539508  0.09566682  0.60128001  1
  N  N44  1  0.89214610  0.18637132  0.34597600  1
  N  N45  1  0.74419234  0.11418386  0.08546020  1
  N  N46  1  0.54148099  0.21122771  0.81322792  1
  N  N47  1  0.43616740  0.12145290  0.59865145  1
  N  N48  1  0.22101529  0.53895428  0.34407927  1
  N  N49  1  0.10512019  0.43115579  0.09042009  1
  N  N50  1  0.88584991  0.53747693  0.84129470  1
  N  N51  1  0.78222598  0.40014461  0.59585727  1
  N  N52  1  0.55816921  0.53231418  0.34382790  1
  N  N53  1  0.44944479  0.40733940  0.09405920  1
  N  N54  1  0.21845250  0.54204189  0.84385016  1
  N  N55  1  0.12151815  0.40179129  0.59640799  1
  N  N56  1  0.88761451  0.53792907  0.34856319  1
  N  N57  1  0.77551594  0.42630904  0.09163512  1
  N  N58  1  0.55168781  0.53735556  0.84431202  1
  N  N59  1  0.44950837  0.39953040  0.59583118  1
  N  N60  1  0.22739212  0.87219512  0.34487285  1
  N  N61  1  0.10332514  0.76676291  0.09574196  1
  N  N62  1  0.88490286  0.87684664  0.83956286  1
  N  N63  1  0.78140650  0.75968628  0.59473054  1
  N  N64  1  0.55697242  0.87598806  0.34554259  1
  N  N65  1  0.44174404  0.76303009  0.09425936  1
  N  N66  1  0.22255812  0.86973944  0.83573499  1
  N  N67  1  0.11932650  0.75386416  0.59141008  1
  N  N68  1  0.88383635  0.90103818  0.35369131  1
  N  N69  1  0.77602576  0.76485836  0.09667038  1
  N  N70  1  0.55407489  0.87373516  0.84298568  1
  N  N71  1  0.45827721  0.74848079  0.59158329  1
