# generated using pymatgen
data_Al31B5N36
_symmetry_space_group_name_H-M   'P 1'
_cell_length_a   9.35887020
_cell_length_b   9.16435942
_cell_length_c   10.07764467
_cell_angle_alpha   89.97631000
_cell_angle_beta   90.32399911
_cell_angle_gamma   60.42633890
_symmetry_Int_Tables_number   1
_chemical_formula_structural   Al31B5N36
_chemical_formula_sum   'Al31 B5 N36'
_cell_volume   751.71825126
_cell_formula_units_Z   1
loop_
 _symmetry_equiv_pos_site_id
 _symmetry_equiv_pos_as_xyz
  1  'x, y, z'
loop_
 _atom_site_type_symbol
 _atom_site_label
 _atom_site_symmetry_multiplicity
 _atom_site_fract_x
 _atom_site_fract_y
 _atom_site_fract_z
 _atom_site_occupancy
  Al  Al0  1  0.11989071  0.09124604  0.32515823  1
  Al  Al1  1  0.21678008  0.21026704  0.07038382  1
  Al  Al2  1  0.76449651  0.10395722  0.87232079  1
  Al  Al3  1  0.45393231  0.10208090  0.39490258  1
  Al  Al4  1  0.11433493  0.09735409  0.80040211  1
  Al  Al5  1  0.87314539  0.20028388  0.14271708  1
  Al  Al6  1  0.44687825  0.09543244  0.88454985  1
  Al  Al7  1  0.11571883  0.42687579  0.32553843  1
  Al  Al8  1  0.21582330  0.53832935  0.07132550  1
  Al  Al9  1  0.77757895  0.42296211  0.88586518  1
  Al  Al10  1  0.88330624  0.53038826  0.63584393  1
  Al  Al11  1  0.45070073  0.41529880  0.38109954  1
  Al  Al12  1  0.55472062  0.53140289  0.13707191  1
  Al  Al13  1  0.11785687  0.41783368  0.81524874  1
  Al  Al14  1  0.21892945  0.53078041  0.56819097  1
  Al  Al15  1  0.77759251  0.41701868  0.39243504  1
  Al  Al16  1  0.88008792  0.53981758  0.14214970  1
  Al  Al17  1  0.44671370  0.42154375  0.88710522  1
  Al  Al18  1  0.55231684  0.52942344  0.64027936  1
  Al  Al19  1  0.10786858  0.76831630  0.31850521  1
  Al  Al20  1  0.21350499  0.88037003  0.06883697  1
  Al  Al21  1  0.77413009  0.75431745  0.88494669  1
  Al  Al22  1  0.89908874  0.87399160  0.58322213  1
  Al  Al23  1  0.45557445  0.75495814  0.38613132  1
  Al  Al24  1  0.55437805  0.88249808  0.13992833  1
  Al  Al25  1  0.11039712  0.76136313  0.81734741  1
  Al  Al26  1  0.22711366  0.87663932  0.56793479  1
  Al  Al27  1  0.77449306  0.77022910  0.39008856  1
  Al  Al28  1  0.88524534  0.87896352  0.06606920  1
  Al  Al29  1  0.44516713  0.76111969  0.88708019  1
  Al  Al30  1  0.56129277  0.87808171  0.63831726  1
  B  B31  1  0.83880204  0.23291296  0.64259822  1
  B  B32  1  0.52062911  0.22239264  0.14335398  1
  B  B33  1  0.17180279  0.22768329  0.55550473  1
  B  B34  1  0.85065980  0.07620486  0.41967576  1
  B  B35  1  0.50555144  0.22721901  0.64764855  1
  N  N36  1  0.20979950  0.21367416  0.40623923  1
  N  N37  1  0.11248657  0.09733214  0.13692684  1
  N  N38  1  0.87293599  0.21168717  0.79307370  1
  N  N39  1  0.83340047  0.10192052  0.56515936  1
  N  N40  1  0.52049598  0.22085249  0.29006910  1
  N  N41  1  0.45523231  0.10897329  0.07576195  1
  N  N42  1  0.21389642  0.20533115  0.88433368  1
  N  N43  1  0.15921682  0.09564878  0.62145810  1
  N  N44  1  0.88258660  0.19020916  0.33454338  1
  N  N45  1  0.75636156  0.11102535  0.06321433  1
  N  N46  1  0.54248470  0.21178244  0.79941356  1
  N  N47  1  0.49859005  0.09522186  0.57777598  1
  N  N48  1  0.21435879  0.54824048  0.38178359  1
  N  N49  1  0.11242061  0.42596250  0.13684108  1
  N  N50  1  0.88578639  0.53454899  0.82503069  1
  N  N51  1  0.77966160  0.40520959  0.58280427  1
  N  N52  1  0.55864114  0.53216876  0.32717794  1
  N  N53  1  0.45237152  0.40572659  0.07801943  1
  N  N54  1  0.21484730  0.53954280  0.87898179  1
  N  N55  1  0.11960478  0.40001875  0.62068810  1
  N  N56  1  0.88008210  0.54154270  0.33463264  1
  N  N57  1  0.77799472  0.42186908  0.07609664  1
  N  N58  1  0.55283519  0.53719806  0.82850035  1
  N  N59  1  0.45497477  0.39792306  0.58172985  1
  N  N60  1  0.22455791  0.87089708  0.37864468  1
  N  N61  1  0.10571363  0.76475652  0.12927605  1
  N  N62  1  0.88898260  0.87052515  0.86394594  1
  N  N63  1  0.78420647  0.75312741  0.58049508  1
  N  N64  1  0.55421797  0.87880297  0.32876946  1
  N  N65  1  0.44701770  0.76031791  0.07947842  1
  N  N66  1  0.21165809  0.88135371  0.87683283  1
  N  N67  1  0.12352192  0.75378238  0.63119222  1
  N  N68  1  0.88927047  0.89833089  0.38386615  1
  N  N69  1  0.77291958  0.75846728  0.07768059  1
  N  N70  1  0.55374018  0.87311120  0.82634304  1
  N  N71  1  0.46122652  0.75045408  0.57745622  1
