# generated using pymatgen
data_Al31B5N36
_symmetry_space_group_name_H-M   'P 1'
_cell_length_a   9.30574745
_cell_length_b   9.20433871
_cell_length_c   9.99183231
_cell_angle_alpha   89.97313523
_cell_angle_beta   90.34663078
_cell_angle_gamma   60.05052195
_symmetry_Int_Tables_number   1
_chemical_formula_structural   Al31B5N36
_chemical_formula_sum   'Al31 B5 N36'
_cell_volume   741.53050975
_cell_formula_units_Z   1
loop_
 _symmetry_equiv_pos_site_id
 _symmetry_equiv_pos_as_xyz
  1  'x, y, z'
loop_
 _atom_site_type_symbol
 _atom_site_label
 _atom_site_symmetry_multiplicity
 _atom_site_fract_x
 _atom_site_fract_y
 _atom_site_fract_z
 _atom_site_occupancy
  Al  Al0  1  0.09841316  0.09760480  0.32954530  1
  Al  Al1  1  0.22331669  0.20699252  0.07361663  1
  Al  Al2  1  0.78605445  0.09708290  0.80385773  1
  Al  Al3  1  0.45049145  0.10083142  0.40151660  1
  Al  Al4  1  0.10881009  0.10091832  0.81130523  1
  Al  Al5  1  0.88517633  0.20600307  0.07552973  1
  Al  Al6  1  0.45767856  0.09324276  0.88925622  1
  Al  Al7  1  0.10678888  0.42947415  0.32335444  1
  Al  Al8  1  0.22171867  0.53411498  0.07343830  1
  Al  Al9  1  0.78800353  0.41733646  0.81740736  1
  Al  Al10  1  0.88513873  0.53360713  0.56789716  1
  Al  Al11  1  0.45454409  0.41251928  0.38853855  1
  Al  Al12  1  0.55254746  0.53047603  0.13928071  1
  Al  Al13  1  0.11849578  0.41677068  0.81689687  1
  Al  Al14  1  0.21569383  0.53164865  0.56858344  1
  Al  Al15  1  0.77905988  0.42200173  0.32747206  1
  Al  Al16  1  0.88783442  0.53799729  0.07003904  1
  Al  Al17  1  0.45609763  0.41651375  0.89000465  1
  Al  Al18  1  0.55422507  0.52377663  0.63091790  1
  Al  Al19  1  0.10385393  0.76754340  0.31722555  1
  Al  Al20  1  0.21903141  0.87596090  0.06669009  1
  Al  Al21  1  0.78861875  0.75689208  0.82089547  1
  Al  Al22  1  0.88910922  0.88527049  0.56176907  1
  Al  Al23  1  0.43255757  0.76833436  0.32715124  1
  Al  Al24  1  0.55169422  0.88505058  0.13743819  1
  Al  Al25  1  0.10942210  0.76093422  0.81759321  1
  Al  Al26  1  0.21836738  0.88079751  0.56890192  1
  Al  Al27  1  0.77750040  0.76775343  0.32249703  1
  Al  Al28  1  0.88201488  0.88028189  0.07209797  1
  Al  Al29  1  0.43876951  0.76403735  0.82014669  1
  Al  Al30  1  0.55770536  0.88382900  0.63561224  1
  B  B31  1  0.86241336  0.21211110  0.55597182  1
  B  B32  1  0.55769107  0.20437535  0.15133496  1
  B  B33  1  0.16120422  0.23299804  0.55658330  1
  B  B34  1  0.77416144  0.09413663  0.31222821  1
  B  B35  1  0.50502299  0.22823745  0.65070588  1
  N  N36  1  0.20393740  0.21409831  0.40548225  1
  N  N37  1  0.11112327  0.09668999  0.13832169  1
  N  N38  1  0.89065316  0.20269064  0.88713555  1
  N  N39  1  0.82984651  0.09452191  0.62524843  1
  N  N40  1  0.56483131  0.19846808  0.31178687  1
  N  N41  1  0.46651902  0.10936131  0.08362551  1
  N  N42  1  0.22412242  0.20055588  0.88482584  1
  N  N43  1  0.12023031  0.11422394  0.61911172  1
  N  N44  1  0.86855642  0.19741262  0.38994006  1
  N  N45  1  0.76827780  0.10199784  0.14842129  1
  N  N46  1  0.54722549  0.21073665  0.80136343  1
  N  N47  1  0.48623474  0.10121620  0.58346990  1
  N  N48  1  0.21615956  0.54205791  0.37809494  1
  N  N49  1  0.11085591  0.42578981  0.13544132  1
  N  N50  1  0.89470567  0.53290247  0.87758821  1
  N  N51  1  0.79116639  0.39761246  0.61653672  1
  N  N52  1  0.54882010  0.53720226  0.33891945  1
  N  N53  1  0.46462543  0.39457749  0.08432218  1
  N  N54  1  0.22054743  0.53698756  0.87915921  1
  N  N55  1  0.11525549  0.40205816  0.62275608  1
  N  N56  1  0.88439374  0.54273908  0.38070307  1
  N  N57  1  0.78266912  0.42566165  0.13440284  1
  N  N58  1  0.55731908  0.53187784  0.82904011  1
  N  N59  1  0.45259950  0.39675987  0.58324515  1
  N  N60  1  0.21442519  0.87490170  0.38144369  1
  N  N61  1  0.11037830  0.76152911  0.12751332  1
  N  N62  1  0.88596852  0.87969783  0.88110949  1
  N  N63  1  0.79246492  0.75591723  0.62688673  1
  N  N64  1  0.54605024  0.88475804  0.33612944  1
  N  N65  1  0.43818394  0.76458240  0.12366289  1
  N  N66  1  0.21803718  0.87634922  0.87482787  1
  N  N67  1  0.11549004  0.75471387  0.62714361  1
  N  N68  1  0.87203299  0.90213739  0.36980166  1
  N  N69  1  0.78245895  0.75903079  0.12929564  1
  N  N70  1  0.55825240  0.87433999  0.83410172  1
  N  N71  1  0.44346571  0.76211475  0.61979652  1
