# generated using pymatgen
data_Al31B5N36
_symmetry_space_group_name_H-M   'P 1'
_cell_length_a   9.37243496
_cell_length_b   9.13900971
_cell_length_c   9.81499510
_cell_angle_alpha   90.29366773
_cell_angle_beta   90.92656395
_cell_angle_gamma   60.66488813
_symmetry_Int_Tables_number   1
_chemical_formula_structural   Al31B5N36
_chemical_formula_sum   'Al31 B5 N36'
_cell_volume   732.79780399
_cell_formula_units_Z   1
loop_
 _symmetry_equiv_pos_site_id
 _symmetry_equiv_pos_as_xyz
  1  'x, y, z'
loop_
 _atom_site_type_symbol
 _atom_site_label
 _atom_site_symmetry_multiplicity
 _atom_site_fract_x
 _atom_site_fract_y
 _atom_site_fract_z
 _atom_site_occupancy
  Al  Al0  1  0.12236324  0.09466436  0.41169473  1
  Al  Al1  1  0.22093050  0.20801615  0.14965151  1
  Al  Al2  1  0.76240300  0.09987693  0.89134843  1
  Al  Al3  1  0.45273396  0.10073513  0.40007234  1
  Al  Al4  1  0.09865564  0.09777957  0.88711093  1
  Al  Al5  1  0.88107870  0.20133245  0.15133809  1
  Al  Al6  1  0.43449196  0.10201006  0.89049679  1
  Al  Al7  1  0.11250539  0.42016969  0.40634466  1
  Al  Al8  1  0.21934266  0.53762821  0.15452577  1
  Al  Al9  1  0.77200312  0.42683726  0.90027059  1
  Al  Al10  1  0.88771894  0.52949053  0.65370342  1
  Al  Al11  1  0.44755536  0.41441531  0.39758542  1
  Al  Al12  1  0.55459384  0.53172873  0.15332226  1
  Al  Al13  1  0.10326075  0.43176611  0.90117997  1
  Al  Al14  1  0.22408808  0.52716727  0.65405080  1
  Al  Al15  1  0.77906984  0.41497974  0.40490351  1
  Al  Al16  1  0.88575285  0.54010787  0.15498323  1
  Al  Al17  1  0.43955485  0.42539584  0.90230973  1
  Al  Al18  1  0.55525420  0.52658718  0.65295618  1
  Al  Al19  1  0.11625068  0.76218138  0.40428857  1
  Al  Al20  1  0.21967395  0.87699425  0.15135797  1
  Al  Al21  1  0.77413077  0.76532992  0.90393216  1
  Al  Al22  1  0.89861077  0.87347345  0.64780626  1
  Al  Al23  1  0.45024140  0.75880968  0.40170522  1
  Al  Al24  1  0.55338815  0.88321266  0.15130058  1
  Al  Al25  1  0.10551767  0.76453466  0.90357547  1
  Al  Al26  1  0.23273681  0.87273473  0.65289392  1
  Al  Al27  1  0.77842907  0.76954460  0.40390091  1
  Al  Al28  1  0.87697053  0.89188442  0.15568594  1
  Al  Al29  1  0.44168609  0.76256027  0.90292111  1
  Al  Al30  1  0.56313126  0.87737194  0.65049056  1
  B  B31  1  0.84709090  0.22285895  0.65692368  1
  B  B32  1  0.52185090  0.22386739  0.15619251  1
  B  B33  1  0.17257476  0.22682101  0.66822071  1
  B  B34  1  0.85160558  0.07069699  0.42440130  1
  B  B35  1  0.50340580  0.22703232  0.66159774  1
  N  N36  1  0.22669399  0.20261671  0.34012375  1
  N  N37  1  0.10178823  0.10121391  0.08340471  1
  N  N38  1  0.87468289  0.20795707  0.81372894  1
  N  N39  1  0.83858768  0.08969744  0.57459597  1
  N  N40  1  0.53416709  0.21561733  0.30597214  1
  N  N41  1  0.44300992  0.11455969  0.08634173  1
  N  N42  1  0.20928750  0.21241490  0.82334909  1
  N  N43  1  0.15050118  0.09877300  0.60086324  1
  N  N44  1  0.89565774  0.18614750  0.34765997  1
  N  N45  1  0.75587605  0.10876783  0.08236216  1
  N  N46  1  0.54260766  0.21188471  0.81567069  1
  N  N47  1  0.48790731  0.09871897  0.59028108  1
  N  N48  1  0.21823652  0.53934890  0.34860936  1
  N  N49  1  0.10304422  0.43152283  0.09245553  1
  N  N50  1  0.88242800  0.53999958  0.84535092  1
  N  N51  1  0.78230033  0.40035435  0.60003061  1
  N  N52  1  0.55822827  0.53199392  0.34737244  1
  N  N53  1  0.44434144  0.41085160  0.09477206  1
  N  N54  1  0.21864433  0.53925965  0.84587181  1
  N  N55  1  0.11420426  0.40200611  0.60377084  1
  N  N56  1  0.88871296  0.53642990  0.35003067  1
  N  N57  1  0.77404517  0.42695199  0.09428169  1
  N  N58  1  0.55107376  0.53726669  0.84538410  1
  N  N59  1  0.44895607  0.40028014  0.59680778  1
  N  N60  1  0.22795366  0.87260611  0.34601720  1
  N  N61  1  0.10336522  0.76596284  0.09808085  1
  N  N62  1  0.88606919  0.87458497  0.83958951  1
  N  N63  1  0.78635296  0.75479672  0.59490065  1
  N  N64  1  0.55890504  0.87371694  0.34439925  1
  N  N65  1  0.44194618  0.76281250  0.09621649  1
  N  N66  1  0.22154673  0.87095821  0.84422437  1
  N  N67  1  0.12268664  0.75222309  0.59593854  1
  N  N68  1  0.88615241  0.90159635  0.35706750  1
  N  N69  1  0.77507465  0.76671179  0.09909951  1
  N  N70  1  0.55303425  0.87478217  0.84419320  1
  N  N71  1  0.45504203  0.75334920  0.59496997  1
