# generated using pymatgen
data_Al31B5N36
_symmetry_space_group_name_H-M   'P 1'
_cell_length_a   9.42359168
_cell_length_b   9.14077491
_cell_length_c   9.95425255
_cell_angle_alpha   90.12026810
_cell_angle_beta   90.58655226
_cell_angle_gamma   61.06271316
_symmetry_Int_Tables_number   1
_chemical_formula_structural   Al31B5N36
_chemical_formula_sum   'Al31 B5 N36'
_cell_volume   750.35274559
_cell_formula_units_Z   1
loop_
 _symmetry_equiv_pos_site_id
 _symmetry_equiv_pos_as_xyz
  1  'x, y, z'
loop_
 _atom_site_type_symbol
 _atom_site_label
 _atom_site_symmetry_multiplicity
 _atom_site_fract_x
 _atom_site_fract_y
 _atom_site_fract_z
 _atom_site_occupancy
  Al  Al0  1  0.11859193  0.09081900  0.34036550  1
  Al  Al1  1  0.21700798  0.20624949  0.08211019  1
  Al  Al2  1  0.77362695  0.09565931  0.88654797  1
  Al  Al3  1  0.45258176  0.09867211  0.41015079  1
  Al  Al4  1  0.11107300  0.10483877  0.80914673  1
  Al  Al5  1  0.88012597  0.20250302  0.15096117  1
  Al  Al6  1  0.44441091  0.09869747  0.89473673  1
  Al  Al7  1  0.10170760  0.43811175  0.39958574  1
  Al  Al8  1  0.21665314  0.54039691  0.15365996  1
  Al  Al9  1  0.77320704  0.42388688  0.89800862  1
  Al  Al10  1  0.88723469  0.52810609  0.65344578  1
  Al  Al11  1  0.44073924  0.42131893  0.39956440  1
  Al  Al12  1  0.55549826  0.52836203  0.15108742  1
  Al  Al13  1  0.09944801  0.43818933  0.90203281  1
  Al  Al14  1  0.22250974  0.52376020  0.65325806  1
  Al  Al15  1  0.77598158  0.41626643  0.40396129  1
  Al  Al16  1  0.88205109  0.54251744  0.15329108  1
  Al  Al17  1  0.43865537  0.42426886  0.90145474  1
  Al  Al18  1  0.55517458  0.52528340  0.65483812  1
  Al  Al19  1  0.11263626  0.76233545  0.40436793  1
  Al  Al20  1  0.22594056  0.86956615  0.13350999  1
  Al  Al21  1  0.77546685  0.76478233  0.90364425  1
  Al  Al22  1  0.89937971  0.87095056  0.64565811  1
  Al  Al23  1  0.45565267  0.75478331  0.40118173  1
  Al  Al24  1  0.55572675  0.88365698  0.15327154  1
  Al  Al25  1  0.10559486  0.76749717  0.89706951  1
  Al  Al26  1  0.23665477  0.86848101  0.62248273  1
  Al  Al27  1  0.77617070  0.77196650  0.40341284  1
  Al  Al28  1  0.88338571  0.88927604  0.15098864  1
  Al  Al29  1  0.44084473  0.76394582  0.89816602  1
  Al  Al30  1  0.56812260  0.87420430  0.65342388  1
  B  B31  1  0.84125052  0.22567855  0.65078707  1
  B  B32  1  0.48673350  0.23819918  0.16460322  1
  B  B33  1  0.16980485  0.22543443  0.55844871  1
  B  B34  1  0.85503823  0.06912106  0.42426897  1
  B  B35  1  0.50559808  0.22562583  0.66411514  1
  N  N36  1  0.21838965  0.20492270  0.41029057  1
  N  N37  1  0.11293336  0.09948031  0.14901678  1
  N  N38  1  0.87348938  0.21117199  0.80330057  1
  N  N39  1  0.84066151  0.08742783  0.57154867  1
  N  N40  1  0.51024836  0.22633226  0.30706864  1
  N  N41  1  0.44899178  0.11251363  0.09137134  1
  N  N42  1  0.21576391  0.20644368  0.89179350  1
  N  N43  1  0.15231243  0.09944099  0.62609300  1
  N  N44  1  0.88487953  0.19078115  0.34608137  1
  N  N45  1  0.78936150  0.09300177  0.06909350  1
  N  N46  1  0.54661161  0.21162835  0.81602479  1
  N  N47  1  0.49831844  0.09323157  0.59430112  1
  N  N48  1  0.21606616  0.54394593  0.34397864  1
  N  N49  1  0.09780566  0.43852404  0.09702329  1
  N  N50  1  0.88239510  0.53948469  0.84342162  1
  N  N51  1  0.77866217  0.40217778  0.59577853  1
  N  N52  1  0.55807725  0.53029491  0.34344738  1
  N  N53  1  0.43950691  0.40998889  0.09411400  1
  N  N54  1  0.21894918  0.53875954  0.84272416  1
  N  N55  1  0.10555491  0.41058852  0.59488254  1
  N  N56  1  0.88242838  0.54037761  0.34531822  1
  N  N57  1  0.77439594  0.42579559  0.09055372  1
  N  N58  1  0.55169908  0.53615196  0.84525893  1
  N  N59  1  0.44698763  0.40036484  0.59713773  1
  N  N60  1  0.23426596  0.86337222  0.36186245  1
  N  N61  1  0.10721654  0.76225781  0.09202838  1
  N  N62  1  0.88791115  0.87062758  0.83375062  1
  N  N63  1  0.78702047  0.75268451  0.59200531  1
  N  N64  1  0.55769498  0.87649554  0.34395238  1
  N  N65  1  0.44722365  0.76011694  0.09264328  1
  N  N66  1  0.22139341  0.87474029  0.84468499  1
  N  N67  1  0.12119122  0.74765213  0.59357633  1
  N  N68  1  0.88641344  0.90206216  0.35433429  1
  N  N69  1  0.77504963  0.76818434  0.09720086  1
  N  N70  1  0.55666944  0.87355453  0.84427817  1
  N  N71  1  0.46295425  0.74884125  0.59298283  1
