# generated using pymatgen
data_Al31B5N36
_symmetry_space_group_name_H-M   'P 1'
_cell_length_a   9.42747464
_cell_length_b   9.16205544
_cell_length_c   10.01305618
_cell_angle_alpha   90.18420256
_cell_angle_beta   90.47888688
_cell_angle_gamma   60.79481888
_symmetry_Int_Tables_number   1
_chemical_formula_structural   Al31B5N36
_chemical_formula_sum   'Al31 B5 N36'
_cell_volume   754.90636170
_cell_formula_units_Z   1
loop_
 _symmetry_equiv_pos_site_id
 _symmetry_equiv_pos_as_xyz
  1  'x, y, z'
loop_
 _atom_site_type_symbol
 _atom_site_label
 _atom_site_symmetry_multiplicity
 _atom_site_fract_x
 _atom_site_fract_y
 _atom_site_fract_z
 _atom_site_occupancy
  Al  Al0  1  0.12134895  0.09073775  0.33823653  1
  Al  Al1  1  0.21323906  0.21333834  0.08273575  1
  Al  Al2  1  0.77602201  0.09374159  0.88676353  1
  Al  Al3  1  0.44723539  0.10114886  0.41418268  1
  Al  Al4  1  0.11339592  0.09596715  0.81509722  1
  Al  Al5  1  0.88329745  0.20177338  0.15163867  1
  Al  Al6  1  0.44634512  0.09704287  0.89768672  1
  Al  Al7  1  0.10674213  0.42779490  0.34992495  1
  Al  Al8  1  0.22406355  0.53651904  0.14677407  1
  Al  Al9  1  0.77668038  0.42309733  0.89787386  1
  Al  Al10  1  0.87922703  0.53298137  0.64853158  1
  Al  Al11  1  0.44686125  0.41794456  0.40321297  1
  Al  Al12  1  0.55627395  0.52925530  0.15146593  1
  Al  Al13  1  0.11257122  0.41764177  0.82791304  1
  Al  Al14  1  0.22394572  0.52681808  0.61399819  1
  Al  Al15  1  0.77604945  0.41635580  0.40515162  1
  Al  Al16  1  0.87822026  0.54469290  0.15627912  1
  Al  Al17  1  0.43985421  0.42259087  0.90022856  1
  Al  Al18  1  0.55442028  0.52678024  0.65693450  1
  Al  Al19  1  0.11213845  0.77048824  0.34622988  1
  Al  Al20  1  0.21273216  0.87834651  0.08351216  1
  Al  Al21  1  0.78006647  0.76182150  0.90325293  1
  Al  Al22  1  0.88879181  0.87939057  0.64026829  1
  Al  Al23  1  0.45849685  0.75313145  0.40089137  1
  Al  Al24  1  0.55201797  0.88366728  0.15415527  1
  Al  Al25  1  0.11400612  0.76029276  0.82614004  1
  Al  Al26  1  0.23048588  0.87605570  0.58227875  1
  Al  Al27  1  0.77323530  0.77443184  0.40526971  1
  Al  Al28  1  0.87658474  0.89274617  0.15335026  1
  Al  Al29  1  0.44713937  0.75941915  0.90259817  1
  Al  Al30  1  0.56382574  0.87533222  0.65564283  1
  B  B31  1  0.84067663  0.22748052  0.65163482  1
  B  B32  1  0.48456845  0.23702293  0.16530399  1
  B  B33  1  0.16588642  0.22778223  0.56957200  1
  B  B34  1  0.85359192  0.07189638  0.42521094  1
  B  B35  1  0.50815211  0.22425615  0.66620463  1
  N  N36  1  0.20862567  0.21227534  0.42158192  1
  N  N37  1  0.11816633  0.09589880  0.15052497  1
  N  N38  1  0.87454580  0.21012375  0.80313525  1
  N  N39  1  0.83766818  0.09284180  0.57102507  1
  N  N40  1  0.50164776  0.22858181  0.30720192  1
  N  N41  1  0.44912734  0.11234833  0.09109962  1
  N  N42  1  0.21373110  0.20569642  0.89678887  1
  N  N43  1  0.15920044  0.09380476  0.63624384  1
  N  N44  1  0.88550165  0.19107810  0.34549730  1
  N  N45  1  0.79517696  0.09142061  0.06807119  1
  N  N46  1  0.54816281  0.20891201  0.81746150  1
  N  N47  1  0.49856397  0.09330512  0.59613570  1
  N  N48  1  0.21740076  0.54489467  0.38368171  1
  N  N49  1  0.10770359  0.42568434  0.15446996  1
  N  N50  1  0.88291893  0.53895894  0.84106679  1
  N  N51  1  0.77816014  0.40275182  0.59576505  1
  N  N52  1  0.55803971  0.52951479  0.34257002  1
  N  N53  1  0.44345924  0.40760414  0.09443641  1
  N  N54  1  0.22500539  0.53187803  0.84527774  1
  N  N55  1  0.11048938  0.40038713  0.63012755  1
  N  N56  1  0.87536973  0.54478243  0.35021026  1
  N  N57  1  0.77710206  0.42492715  0.08998478  1
  N  N58  1  0.55329160  0.53481345  0.84622577  1
  N  N59  1  0.45636571  0.39537740  0.59777070  1
  N  N60  1  0.23014429  0.87262965  0.39340118  1
  N  N61  1  0.10991380  0.76458377  0.15138169  1
  N  N62  1  0.88388023  0.87226555  0.83033484  1
  N  N63  1  0.78299806  0.75598504  0.59140575  1
  N  N64  1  0.55370780  0.87996300  0.34412216  1
  N  N65  1  0.44719678  0.75867599  0.09558740  1
  N  N66  1  0.21396495  0.87870718  0.89077319  1
  N  N67  1  0.12096871  0.76028463  0.63232777  1
  N  N68  1  0.87814638  0.90801299  0.35877300  1
  N  N69  1  0.77507154  0.76787227  0.09687720  1
  N  N70  1  0.55672634  0.87219260  0.84572539  1
  N  N71  1  0.46351401  0.74798712  0.59401379  1
