# generated using pymatgen
data_Al31B5N36
_symmetry_space_group_name_H-M   'P 1'
_cell_length_a   9.26641996
_cell_length_b   9.14858011
_cell_length_c   9.90957326
_cell_angle_alpha   89.97426709
_cell_angle_beta   89.45657068
_cell_angle_gamma   60.10416571
_symmetry_Int_Tables_number   1
_chemical_formula_structural   Al31B5N36
_chemical_formula_sum   'Al31 B5 N36'
_cell_volume   728.25140840
_cell_formula_units_Z   1
loop_
 _symmetry_equiv_pos_site_id
 _symmetry_equiv_pos_as_xyz
  1  'x, y, z'
loop_
 _atom_site_type_symbol
 _atom_site_label
 _atom_site_symmetry_multiplicity
 _atom_site_fract_x
 _atom_site_fract_y
 _atom_site_fract_z
 _atom_site_occupancy
  Al  Al0  1  0.09762181  0.09885782  0.32307041  1
  Al  Al1  1  0.22941738  0.20471569  0.06230123  1
  Al  Al2  1  0.77562985  0.10036505  0.80846469  1
  Al  Al3  1  0.44524570  0.10042548  0.32895529  1
  Al  Al4  1  0.11924544  0.09666750  0.80217554  1
  Al  Al5  1  0.88434890  0.20410759  0.06248201  1
  Al  Al6  1  0.45490585  0.09807706  0.80676105  1
  Al  Al7  1  0.10791811  0.42930897  0.30997341  1
  Al  Al8  1  0.22728030  0.53142227  0.05709060  1
  Al  Al9  1  0.78168025  0.41688796  0.80291776  1
  Al  Al10  1  0.89037203  0.52788388  0.55421119  1
  Al  Al11  1  0.44943069  0.42117614  0.31296224  1
  Al  Al12  1  0.55749969  0.53180698  0.05741907  1
  Al  Al13  1  0.11671928  0.41738220  0.80481262  1
  Al  Al14  1  0.22694552  0.52493939  0.55790937  1
  Al  Al15  1  0.77082514  0.42860415  0.30921851  1
  Al  Al16  1  0.88911304  0.53690938  0.05584919  1
  Al  Al17  1  0.45054069  0.41742381  0.81188278  1
  Al  Al18  1  0.55273835  0.53378141  0.55698390  1
  Al  Al19  1  0.10498398  0.76721397  0.30808443  1
  Al  Al20  1  0.22035969  0.87579307  0.05876923  1
  Al  Al21  1  0.78070013  0.76032801  0.80677809  1
  Al  Al22  1  0.88273146  0.88555900  0.55212183  1
  Al  Al23  1  0.44017026  0.76574668  0.30771784  1
  Al  Al24  1  0.55613042  0.88053253  0.05914974  1
  Al  Al25  1  0.11146930  0.76206015  0.80701513  1
  Al  Al26  1  0.22768751  0.87674311  0.55884791  1
  Al  Al27  1  0.77224549  0.76937720  0.30725229  1
  Al  Al28  1  0.88171045  0.88036666  0.06139556  1
  Al  Al29  1  0.44743852  0.76078307  0.81023565  1
  Al  Al30  1  0.56095027  0.87786571  0.56172178  1
  B  B31  1  0.82167347  0.23234239  0.53462050  1
  B  B32  1  0.55492641  0.20602758  0.10904939  1
  B  B33  1  0.17590517  0.22462312  0.54610364  1
  B  B34  1  0.76282097  0.09753656  0.31035399  1
  B  B35  1  0.56227285  0.20508100  0.58654214  1
  N  N36  1  0.21172953  0.21098208  0.39098945  1
  N  N37  1  0.10700539  0.09933187  0.12892969  1
  N  N38  1  0.89799121  0.19855804  0.87033739  1
  N  N39  1  0.76226744  0.12415567  0.60729653  1
  N  N40  1  0.57938529  0.19485026  0.35930412  1
  N  N41  1  0.45430664  0.10960121  0.12927681  1
  N  N42  1  0.23264337  0.19999815  0.87299929  1
  N  N43  1  0.14415167  0.10145224  0.61279220  1
  N  N44  1  0.86250978  0.20226607  0.38290779  1
  N  N45  1  0.75453423  0.10768498  0.14094335  1
  N  N46  1  0.56398052  0.20271126  0.87694815  1
  N  N47  1  0.48878243  0.09848987  0.61756022  1
  N  N48  1  0.22145271  0.53872430  0.36757368  1
  N  N49  1  0.10937018  0.42806676  0.11985828  1
  N  N50  1  0.89157378  0.53257117  0.86155899  1
  N  N51  1  0.78348687  0.39835824  0.60333103  1
  N  N52  1  0.54986648  0.54328975  0.36761321  1
  N  N53  1  0.45553790  0.40361967  0.11934495  1
  N  N54  1  0.22369102  0.53578864  0.86349266  1
  N  N55  1  0.11754282  0.40030448  0.60960902  1
  N  N56  1  0.88476151  0.54097489  0.36533599  1
  N  N57  1  0.77628520  0.42755140  0.11952851  1
  N  N58  1  0.55942117  0.53477582  0.86541738  1
  N  N59  1  0.45638499  0.40137768  0.61390721  1
  N  N60  1  0.21937230  0.87338227  0.36937091  1
  N  N61  1  0.10988329  0.76092861  0.11625849  1
  N  N62  1  0.88933270  0.87504175  0.86750206  1
  N  N63  1  0.78803324  0.75308462  0.61479442  1
  N  N64  1  0.55265035  0.87308808  0.37108710  1
  N  N65  1  0.44353701  0.76267966  0.11589524  1
  N  N66  1  0.22358504  0.87311375  0.86645418  1
  N  N67  1  0.11067910  0.76199657  0.61427465  1
  N  N68  1  0.87300266  0.89973631  0.35942582  1
  N  N69  1  0.77682601  0.76139774  0.11647381  1
  N  N70  1  0.55853474  0.87245589  0.86795866  1
  N  N71  1  0.45171498  0.75700278  0.61933186  1
