# generated using pymatgen
data_Al31B5N36
_symmetry_space_group_name_H-M   'P 1'
_cell_length_a   9.32167047
_cell_length_b   9.22796692
_cell_length_c   10.05447685
_cell_angle_alpha   89.51639870
_cell_angle_beta   90.24847489
_cell_angle_gamma   59.77387828
_symmetry_Int_Tables_number   1
_chemical_formula_structural   Al31B5N36
_chemical_formula_sum   'Al31 B5 N36'
_cell_volume   747.23790333
_cell_formula_units_Z   1
loop_
 _symmetry_equiv_pos_site_id
 _symmetry_equiv_pos_as_xyz
  1  'x, y, z'
loop_
 _atom_site_type_symbol
 _atom_site_label
 _atom_site_symmetry_multiplicity
 _atom_site_fract_x
 _atom_site_fract_y
 _atom_site_fract_z
 _atom_site_occupancy
  Al  Al0  1  0.10154199  0.09430619  0.32044708  1
  Al  Al1  1  0.22448532  0.20729626  0.07032093  1
  Al  Al2  1  0.78550240  0.09904759  0.80721048  1
  Al  Al3  1  0.44988804  0.10198381  0.40092295  1
  Al  Al4  1  0.10493019  0.10218555  0.82167794  1
  Al  Al5  1  0.88512335  0.20135194  0.10091006  1
  Al  Al6  1  0.45664209  0.09288285  0.88787814  1
  Al  Al7  1  0.10583483  0.42980087  0.32314736  1
  Al  Al8  1  0.22180247  0.53536044  0.07231282  1
  Al  Al9  1  0.77375283  0.42598187  0.89728901  1
  Al  Al10  1  0.88788196  0.53897873  0.56709554  1
  Al  Al11  1  0.45279627  0.41144564  0.38689309  1
  Al  Al12  1  0.55665042  0.52642443  0.14440031  1
  Al  Al13  1  0.11554988  0.41893144  0.81579460  1
  Al  Al14  1  0.21704073  0.53381708  0.56754313  1
  Al  Al15  1  0.77589852  0.40907737  0.38211022  1
  Al  Al16  1  0.89204104  0.54122778  0.07683164  1
  Al  Al17  1  0.45411975  0.41596669  0.88951048  1
  Al  Al18  1  0.56590965  0.51423231  0.63567128  1
  Al  Al19  1  0.10252088  0.76944516  0.31564854  1
  Al  Al20  1  0.22379904  0.87299093  0.06450289  1
  Al  Al21  1  0.78544665  0.75812207  0.83371161  1
  Al  Al22  1  0.88983677  0.89324478  0.55925663  1
  Al  Al23  1  0.43362682  0.76620268  0.32591559  1
  Al  Al24  1  0.55171102  0.88502615  0.13961424  1
  Al  Al25  1  0.10878397  0.76120723  0.81548034  1
  Al  Al26  1  0.22061573  0.87753252  0.56836589  1
  Al  Al27  1  0.77485382  0.77004792  0.33213924  1
  Al  Al28  1  0.88148823  0.88012063  0.06853610  1
  Al  Al29  1  0.44023041  0.76138283  0.81577848  1
  Al  Al30  1  0.56162390  0.88313888  0.63495816  1
  B  B31  1  0.90133481  0.20674884  0.60481213  1
  B  B32  1  0.55305588  0.20328304  0.14632662  1
  B  B33  1  0.15657011  0.24000853  0.55493466  1
  B  B34  1  0.77506577  0.09446147  0.29580264  1
  B  B35  1  0.50319038  0.22957720  0.65032130  1
  N  N36  1  0.19994258  0.21356960  0.40806177  1
  N  N37  1  0.12242931  0.09161605  0.13296077  1
  N  N38  1  0.89271515  0.19516941  0.89450019  1
  N  N39  1  0.83529011  0.09878277  0.62927708  1
  N  N40  1  0.55879845  0.20050529  0.30696074  1
  N  N41  1  0.46293893  0.10899363  0.08051796  1
  N  N42  1  0.22326882  0.20183594  0.88168634  1
  N  N43  1  0.09660360  0.12772799  0.61929705  1
  N  N44  1  0.87030522  0.19173532  0.32370973  1
  N  N45  1  0.75572428  0.09737433  0.13641036  1
  N  N46  1  0.54578074  0.21053705  0.80012805  1
  N  N47  1  0.48241937  0.10380135  0.58322564  1
  N  N48  1  0.21402161  0.54311599  0.37834045  1
  N  N49  1  0.11419351  0.42401305  0.13689958  1
  N  N50  1  0.89740831  0.53416827  0.87929425  1
  N  N51  1  0.79450590  0.39535538  0.58150936  1
  N  N52  1  0.55204150  0.53275781  0.33748376  1
  N  N53  1  0.46241745  0.39668799  0.08269402  1
  N  N54  1  0.21914981  0.53714848  0.87778492  1
  N  N55  1  0.11628718  0.40303329  0.62170999  1
  N  N56  1  0.88327360  0.54007042  0.37665316  1
  N  N57  1  0.77040694  0.43484928  0.08780689  1
  N  N58  1  0.56041478  0.52714564  0.82606022  1
  N  N59  1  0.45425618  0.39709999  0.58270837  1
  N  N60  1  0.21543306  0.87413936  0.38252714  1
  N  N61  1  0.11032516  0.76322878  0.12633550  1
  N  N62  1  0.88691708  0.87853358  0.87883604  1
  N  N63  1  0.79158839  0.76196517  0.61495708  1
  N  N64  1  0.54314937  0.88635498  0.33644895  1
  N  N65  1  0.44025233  0.76203952  0.12690918  1
  N  N66  1  0.22106993  0.87297406  0.87282261  1
  N  N67  1  0.11641965  0.75567936  0.62610533  1
  N  N68  1  0.87173651  0.90477402  0.36694759  1
  N  N69  1  0.78068952  0.76163842  0.12627820  1
  N  N70  1  0.55671326  0.87438029  0.83132092  1
  N  N71  1  0.44695980  0.76015138  0.61938540  1
