# generated using pymatgen
data_Al31B5N36
_symmetry_space_group_name_H-M   'P 1'
_cell_length_a   9.26624064
_cell_length_b   9.14902767
_cell_length_c   9.89395807
_cell_angle_alpha   89.97278017
_cell_angle_beta   89.43600762
_cell_angle_gamma   60.09987017
_symmetry_Int_Tables_number   1
_chemical_formula_structural   Al31B5N36
_chemical_formula_sum   'Al31 B5 N36'
_cell_volume   727.09083888
_cell_formula_units_Z   1
loop_
 _symmetry_equiv_pos_site_id
 _symmetry_equiv_pos_as_xyz
  1  'x, y, z'
loop_
 _atom_site_type_symbol
 _atom_site_label
 _atom_site_symmetry_multiplicity
 _atom_site_fract_x
 _atom_site_fract_y
 _atom_site_fract_z
 _atom_site_occupancy
  Al  Al0  1  0.09763176  0.09883595  0.32325352  1
  Al  Al1  1  0.22929955  0.20467828  0.06250707  1
  Al  Al2  1  0.77546186  0.10043668  0.80836526  1
  Al  Al3  1  0.44557558  0.10080355  0.32844554  1
  Al  Al4  1  0.11916286  0.09670591  0.80225669  1
  Al  Al5  1  0.88416358  0.20412719  0.06292399  1
  Al  Al6  1  0.45505347  0.09795071  0.80697565  1
  Al  Al7  1  0.10801323  0.42928835  0.31007941  1
  Al  Al8  1  0.22713718  0.53164470  0.05730837  1
  Al  Al9  1  0.78177217  0.41688894  0.80295198  1
  Al  Al10  1  0.89040799  0.52789487  0.55434229  1
  Al  Al11  1  0.45001005  0.41995514  0.31273232  1
  Al  Al12  1  0.55738891  0.53202725  0.05762418  1
  Al  Al13  1  0.11673135  0.41736849  0.80480770  1
  Al  Al14  1  0.22718218  0.52495473  0.55799427  1
  Al  Al15  1  0.77082170  0.42865512  0.30934689  1
  Al  Al16  1  0.88914380  0.53688247  0.05593441  1
  Al  Al17  1  0.45061256  0.41713945  0.81170858  1
  Al  Al18  1  0.55261375  0.53367713  0.55704456  1
  Al  Al19  1  0.10504003  0.76717799  0.30822625  1
  Al  Al20  1  0.22030133  0.87584261  0.05886123  1
  Al  Al21  1  0.78070309  0.76029457  0.80681812  1
  Al  Al22  1  0.88287342  0.88560279  0.55237952  1
  Al  Al23  1  0.44015287  0.76568078  0.30786417  1
  Al  Al24  1  0.55606920  0.88044458  0.05942776  1
  Al  Al25  1  0.11142189  0.76205739  0.80711346  1
  Al  Al26  1  0.22770154  0.87670694  0.55897845  1
  Al  Al27  1  0.77224905  0.76931022  0.30738725  1
  Al  Al28  1  0.88149445  0.88056983  0.06189551  1
  Al  Al29  1  0.44747798  0.76069628  0.81026745  1
  Al  Al30  1  0.56076262  0.87816477  0.56181461  1
  B  B31  1  0.82231262  0.23199955  0.53516319  1
  B  B32  1  0.55507289  0.20615010  0.09649022  1
  B  B33  1  0.17610915  0.22457756  0.54608038  1
  B  B34  1  0.76176409  0.09820597  0.31166779  1
  B  B35  1  0.56260492  0.20446033  0.57821545  1
  N  N36  1  0.21194359  0.21086930  0.39082951  1
  N  N37  1  0.10687200  0.09935305  0.12898824  1
  N  N38  1  0.89776790  0.19854976  0.87056544  1
  N  N39  1  0.76340589  0.12380892  0.60813592  1
  N  N40  1  0.57929892  0.19489637  0.36842273  1
  N  N41  1  0.45458864  0.11006730  0.12871829  1
  N  N42  1  0.23274084  0.19998351  0.87300686  1
  N  N43  1  0.14405579  0.10152757  0.61273871  1
  N  N44  1  0.86231792  0.20227210  0.38289647  1
  N  N45  1  0.75266717  0.10866630  0.14097113  1
  N  N46  1  0.56388072  0.20254766  0.88328774  1
  N  N47  1  0.48948048  0.09844631  0.61840321  1
  N  N48  1  0.22169174  0.53859996  0.36741238  1
  N  N49  1  0.10930510  0.42810338  0.11983694  1
  N  N50  1  0.89159373  0.53256533  0.86152291  1
  N  N51  1  0.78356147  0.39844715  0.60340708  1
  N  N52  1  0.54975880  0.54303435  0.36738104  1
  N  N53  1  0.45562094  0.40342737  0.11898778  1
  N  N54  1  0.22380369  0.53564443  0.86351253  1
  N  N55  1  0.11762886  0.40029309  0.60955446  1
  N  N56  1  0.88478510  0.54095979  0.36533400  1
  N  N57  1  0.77626039  0.42765354  0.11953421  1
  N  N58  1  0.55942984  0.53451255  0.86537677  1
  N  N59  1  0.45645517  0.40122819  0.61417080  1
  N  N60  1  0.21933167  0.87338500  0.36938236  1
  N  N61  1  0.10971256  0.76110576  0.11625660  1
  N  N62  1  0.88906903  0.87528698  0.86766079  1
  N  N63  1  0.78805109  0.75309621  0.61471794  1
  N  N64  1  0.55248573  0.87341214  0.37083800  1
  N  N65  1  0.44343318  0.76275202  0.11590097  1
  N  N66  1  0.22355783  0.87312155  0.86640919  1
  N  N67  1  0.11070520  0.76193082  0.61427366  1
  N  N68  1  0.87275528  0.90000407  0.35937765  1
  N  N69  1  0.77684039  0.76129282  0.11650152  1
  N  N70  1  0.55854443  0.87241662  0.86807422  1
  N  N71  1  0.45177220  0.75699663  0.61924153  1
