# generated using pymatgen
data_Al31B5N36
_symmetry_space_group_name_H-M   'P 1'
_cell_length_a   9.31826110
_cell_length_b   9.21104267
_cell_length_c   10.04983927
_cell_angle_alpha   89.66405918
_cell_angle_beta   90.16292606
_cell_angle_gamma   59.90343125
_symmetry_Int_Tables_number   1
_chemical_formula_structural   Al31B5N36
_chemical_formula_sum   'Al31 B5 N36'
_cell_volume   746.26455820
_cell_formula_units_Z   1
loop_
 _symmetry_equiv_pos_site_id
 _symmetry_equiv_pos_as_xyz
  1  'x, y, z'
loop_
 _atom_site_type_symbol
 _atom_site_label
 _atom_site_symmetry_multiplicity
 _atom_site_fract_x
 _atom_site_fract_y
 _atom_site_fract_z
 _atom_site_occupancy
  Al  Al0  1  0.09906184  0.09451440  0.32290703  1
  Al  Al1  1  0.22371937  0.20772666  0.07143875  1
  Al  Al2  1  0.78514749  0.09748268  0.80931466  1
  Al  Al3  1  0.45154490  0.10078264  0.40043522  1
  Al  Al4  1  0.10596813  0.10185600  0.82098126  1
  Al  Al5  1  0.88545700  0.20089876  0.09205270  1
  Al  Al6  1  0.45757564  0.09182850  0.88839623  1
  Al  Al7  1  0.10771768  0.42902706  0.32434824  1
  Al  Al8  1  0.22030074  0.53535292  0.07288819  1
  Al  Al9  1  0.78123897  0.42357980  0.85727643  1
  Al  Al10  1  0.88405005  0.53497266  0.56737180  1
  Al  Al11  1  0.45752573  0.41067311  0.38793760  1
  Al  Al12  1  0.54863445  0.53161388  0.13596929  1
  Al  Al13  1  0.11656803  0.41844409  0.81560226  1
  Al  Al14  1  0.21784569  0.53233209  0.56742352  1
  Al  Al15  1  0.77941894  0.41858669  0.31927473  1
  Al  Al16  1  0.89017816  0.54204579  0.07236353  1
  Al  Al17  1  0.45251878  0.41565986  0.89010206  1
  Al  Al18  1  0.56345109  0.51637127  0.63796849  1
  Al  Al19  1  0.10269705  0.76838827  0.31698467  1
  Al  Al20  1  0.22010153  0.87502463  0.06505753  1
  Al  Al21  1  0.78908692  0.75701532  0.81797792  1
  Al  Al22  1  0.88913307  0.89181368  0.56056140  1
  Al  Al23  1  0.43284876  0.76676204  0.32523210  1
  Al  Al24  1  0.55045702  0.88558878  0.13832139  1
  Al  Al25  1  0.10855653  0.76120157  0.81576872  1
  Al  Al26  1  0.21894013  0.87794695  0.56874772  1
  Al  Al27  1  0.77714339  0.76841797  0.32306538  1
  Al  Al28  1  0.88016839  0.87868451  0.06828349  1
  Al  Al29  1  0.43829355  0.76461777  0.81909365  1
  Al  Al30  1  0.55924197  0.88295938  0.63426130  1
  B  B31  1  0.89913052  0.20975313  0.61160019  1
  B  B32  1  0.55405859  0.20273229  0.14734763  1
  B  B33  1  0.15580884  0.23969214  0.55518686  1
  B  B34  1  0.77649342  0.09498105  0.29870225  1
  B  B35  1  0.50607261  0.22822958  0.65027543  1
  N  N36  1  0.20112895  0.21257004  0.40839951  1
  N  N37  1  0.11959671  0.09310059  0.13398450  1
  N  N38  1  0.89104546  0.19847778  0.89696763  1
  N  N39  1  0.83709048  0.09667698  0.63249554  1
  N  N40  1  0.56010156  0.19992897  0.30711757  1
  N  N41  1  0.46298435  0.10893560  0.08106625  1
  N  N42  1  0.22345784  0.20191684  0.88255271  1
  N  N43  1  0.09824932  0.12618072  0.62025952  1
  N  N44  1  0.87006161  0.18988715  0.33462855  1
  N  N45  1  0.75767690  0.09734213  0.13713026  1
  N  N46  1  0.54620127  0.21037304  0.80069040  1
  N  N47  1  0.48728443  0.10152786  0.58222042  1
  N  N48  1  0.21694491  0.54150114  0.37857802  1
  N  N49  1  0.11190953  0.42519229  0.13717597  1
  N  N50  1  0.89675223  0.53654791  0.88139126  1
  N  N51  1  0.79805536  0.39754107  0.62424489  1
  N  N52  1  0.55002443  0.53521102  0.33355471  1
  N  N53  1  0.46111902  0.39547616  0.08174246  1
  N  N54  1  0.21824952  0.53759913  0.87829674  1
  N  N55  1  0.11619586  0.40277327  0.62163942  1
  N  N56  1  0.88314052  0.53976673  0.37907153  1
  N  N57  1  0.77611431  0.43304745  0.11714959  1
  N  N58  1  0.55460415  0.53230962  0.83327499  1
  N  N59  1  0.45569657  0.39671840  0.58369230  1
  N  N60  1  0.21549355  0.87373939  0.38272046  1
  N  N61  1  0.10876899  0.76319523  0.12700197  1
  N  N62  1  0.88639615  0.87713202  0.87927270  1
  N  N63  1  0.79388450  0.75748638  0.62482611  1
  N  N64  1  0.54471467  0.88451524  0.33629262  1
  N  N65  1  0.43745589  0.76529039  0.12332803  1
  N  N66  1  0.21821755  0.87509691  0.87367831  1
  N  N67  1  0.11602521  0.75446323  0.62655059  1
  N  N68  1  0.87170522  0.90222319  0.36900954  1
  N  N69  1  0.78131144  0.76026682  0.13137748  1
  N  N70  1  0.55851799  0.87371378  0.83162629  1
  N  N71  1  0.44476063  0.76045703  0.62117977  1
