# generated using pymatgen
data_Al31B5N36
_symmetry_space_group_name_H-M   'P 1'
_cell_length_a   9.42954453
_cell_length_b   9.16093485
_cell_length_c   10.01300091
_cell_angle_alpha   90.20219962
_cell_angle_beta   90.48940436
_cell_angle_gamma   60.86485158
_symmetry_Int_Tables_number   1
_chemical_formula_structural   Al31B5N36
_chemical_formula_sum   'Al31 B5 N36'
_cell_volume   755.48987633
_cell_formula_units_Z   1
loop_
 _symmetry_equiv_pos_site_id
 _symmetry_equiv_pos_as_xyz
  1  'x, y, z'
loop_
 _atom_site_type_symbol
 _atom_site_label
 _atom_site_symmetry_multiplicity
 _atom_site_fract_x
 _atom_site_fract_y
 _atom_site_fract_z
 _atom_site_occupancy
  Al  Al0  1  0.12160764  0.09105554  0.33802931  1
  Al  Al1  1  0.21324084  0.21330229  0.08311787  1
  Al  Al2  1  0.77560541  0.09418606  0.88656141  1
  Al  Al3  1  0.44829012  0.10096401  0.41375346  1
  Al  Al4  1  0.11361671  0.09619306  0.81427301  1
  Al  Al5  1  0.88285715  0.20191192  0.15163192  1
  Al  Al6  1  0.44643983  0.09694376  0.89801256  1
  Al  Al7  1  0.10636017  0.42802420  0.34951831  1
  Al  Al8  1  0.22507086  0.53638470  0.15858459  1
  Al  Al9  1  0.77561592  0.42311769  0.89832109  1
  Al  Al10  1  0.88021373  0.53242482  0.64857638  1
  Al  Al11  1  0.44498509  0.41899685  0.40295365  1
  Al  Al12  1  0.55553514  0.52938675  0.15184794  1
  Al  Al13  1  0.10982556  0.41784478  0.83251282  1
  Al  Al14  1  0.22804395  0.52363220  0.63550941  1
  Al  Al15  1  0.77608160  0.41626867  0.40501118  1
  Al  Al16  1  0.87815373  0.54462918  0.15559658  1
  Al  Al17  1  0.43979291  0.42238042  0.90196863  1
  Al  Al18  1  0.55483998  0.52671059  0.65648853  1
  Al  Al19  1  0.11152794  0.77244999  0.34370370  1
  Al  Al20  1  0.21234191  0.87869228  0.08287907  1
  Al  Al21  1  0.77896447  0.76260688  0.90357366  1
  Al  Al22  1  0.88990646  0.87811700  0.63969224  1
  Al  Al23  1  0.45859707  0.75298859  0.40089574  1
  Al  Al24  1  0.55173895  0.88371042  0.15430731  1
  Al  Al25  1  0.11259109  0.76251959  0.82788783  1
  Al  Al26  1  0.23050516  0.87535384  0.58197781  1
  Al  Al27  1  0.77363971  0.77407923  0.40509682  1
  Al  Al28  1  0.87634468  0.89296770  0.15190675  1
  Al  Al29  1  0.44721300  0.75944236  0.90249449  1
  Al  Al30  1  0.56417214  0.87496145  0.65533456  1
  B  B31  1  0.84095839  0.22718557  0.65159076  1
  B  B32  1  0.48509463  0.23708589  0.16541112  1
  B  B33  1  0.16649332  0.22787870  0.56944814  1
  B  B34  1  0.85395151  0.07163298  0.42511654  1
  B  B35  1  0.50842508  0.22370591  0.66596625  1
  N  N36  1  0.20940326  0.21271772  0.42135804  1
  N  N37  1  0.11772197  0.09594825  0.15028522  1
  N  N38  1  0.87471603  0.21020426  0.80312727  1
  N  N39  1  0.83850071  0.09211033  0.57112925  1
  N  N40  1  0.50395729  0.22767533  0.30734851  1
  N  N41  1  0.44901114  0.11232033  0.09139016  1
  N  N42  1  0.21425083  0.20495333  0.89695968  1
  N  N43  1  0.15940073  0.09362795  0.63546638  1
  N  N44  1  0.88586805  0.19095235  0.34560785  1
  N  N45  1  0.79345165  0.09264100  0.06782919  1
  N  N46  1  0.54770847  0.20940957  0.81737413  1
  N  N47  1  0.49936804  0.09276178  0.59586907  1
  N  N48  1  0.22077007  0.54431490  0.36458181  1
  N  N49  1  0.10604716  0.42617588  0.15134436  1
  N  N50  1  0.88171560  0.53957455  0.84175173  1
  N  N51  1  0.77835208  0.40250745  0.59584920  1
  N  N52  1  0.55829088  0.52943070  0.34309068  1
  N  N53  1  0.44186261  0.40836309  0.09461590  1
  N  N54  1  0.22582693  0.53101649  0.83970039  1
  N  N55  1  0.11096650  0.40027251  0.63078884  1
  N  N56  1  0.87569255  0.54467560  0.35009831  1
  N  N57  1  0.77601328  0.42518630  0.09018614  1
  N  N58  1  0.55257246  0.53482062  0.84602270  1
  N  N59  1  0.45485474  0.39607009  0.59749850  1
  N  N60  1  0.23029908  0.87286429  0.39310665  1
  N  N61  1  0.10799811  0.76628501  0.14756176  1
  N  N62  1  0.88361439  0.87239745  0.83031323  1
  N  N63  1  0.78322087  0.75541738  0.59147078  1
  N  N64  1  0.55409899  0.87959926  0.34427003  1
  N  N65  1  0.44675020  0.75882368  0.09542578  1
  N  N66  1  0.21445970  0.87917812  0.88997569  1
  N  N67  1  0.12192148  0.75833272  0.63205828  1
  N  N68  1  0.87846970  0.90780775  0.35864413  1
  N  N69  1  0.77413028  0.76822900  0.09676252  1
  N  N70  1  0.55651067  0.87246750  0.84545306  1
  N  N71  1  0.46339379  0.74794118  0.59404085  1
