# generated using pymatgen
data_Al31B5N36
_symmetry_space_group_name_H-M   'P 1'
_cell_length_a   9.33699778
_cell_length_b   9.21145397
_cell_length_c   9.92864790
_cell_angle_alpha   89.92316650
_cell_angle_beta   89.93422467
_cell_angle_gamma   60.19713773
_symmetry_Int_Tables_number   1
_chemical_formula_structural   Al31B5N36
_chemical_formula_sum   'Al31 B5 N36'
_cell_volume   740.99456903
_cell_formula_units_Z   1
loop_
 _symmetry_equiv_pos_site_id
 _symmetry_equiv_pos_as_xyz
  1  'x, y, z'
loop_
 _atom_site_type_symbol
 _atom_site_label
 _atom_site_symmetry_multiplicity
 _atom_site_fract_x
 _atom_site_fract_y
 _atom_site_fract_z
 _atom_site_occupancy
  Al  Al0  1  0.09632403  0.09994391  0.33410173  1
  Al  Al1  1  0.22378162  0.20749455  0.07728014  1
  Al  Al2  1  0.78741265  0.09730475  0.80282245  1
  Al  Al3  1  0.45074966  0.09975818  0.40149926  1
  Al  Al4  1  0.11731325  0.09804571  0.81403298  1
  Al  Al5  1  0.88621129  0.20519543  0.07439706  1
  Al  Al6  1  0.45844748  0.09313997  0.89049484  1
  Al  Al7  1  0.10623587  0.42969864  0.32445842  1
  Al  Al8  1  0.22088449  0.53501698  0.07442380  1
  Al  Al9  1  0.78567310  0.41586317  0.81381312  1
  Al  Al10  1  0.88754701  0.52980388  0.56745894  1
  Al  Al11  1  0.44993804  0.41373978  0.38515096  1
  Al  Al12  1  0.55575927  0.53319946  0.10672110  1
  Al  Al13  1  0.11844544  0.41639557  0.81820350  1
  Al  Al14  1  0.21447012  0.53302104  0.57060198  1
  Al  Al15  1  0.77210999  0.42760226  0.32592575  1
  Al  Al16  1  0.88849463  0.53743450  0.06886519  1
  Al  Al17  1  0.45373102  0.41674621  0.88700054  1
  Al  Al18  1  0.55447801  0.52809281  0.59736126  1
  Al  Al19  1  0.10261405  0.76941005  0.31807320  1
  Al  Al20  1  0.21849830  0.87683420  0.06933886  1
  Al  Al21  1  0.78873411  0.75601036  0.82065557  1
  Al  Al22  1  0.88925521  0.88332889  0.56099778  1
  Al  Al23  1  0.43253313  0.76659409  0.32769495  1
  Al  Al24  1  0.55239178  0.88477115  0.13821301  1
  Al  Al25  1  0.11052012  0.76163591  0.81914212  1
  Al  Al26  1  0.22302758  0.87955773  0.57162501  1
  Al  Al27  1  0.77725696  0.76691219  0.32287400  1
  Al  Al28  1  0.88178468  0.88043508  0.07153433  1
  Al  Al29  1  0.44230885  0.75970659  0.82047912  1
  Al  Al30  1  0.55829011  0.88364573  0.63604212  1
  B  B31  1  0.83455109  0.22103664  0.54505567  1
  B  B32  1  0.55612382  0.20515428  0.15147114  1
  B  B33  1  0.16943609  0.22826824  0.56006978  1
  B  B34  1  0.77082746  0.09484425  0.30999804  1
  B  B35  1  0.50425111  0.22873592  0.65130693  1
  N  N36  1  0.20590863  0.21411144  0.40543538  1
  N  N37  1  0.10898131  0.09833202  0.14104831  1
  N  N38  1  0.89506543  0.20060665  0.88432297  1
  N  N39  1  0.82529177  0.09586610  0.62081737  1
  N  N40  1  0.56454103  0.19848267  0.31185879  1
  N  N41  1  0.46629134  0.10918995  0.08605226  1
  N  N42  1  0.22632122  0.20222520  0.88884401  1
  N  N43  1  0.15107469  0.10078062  0.62744950  1
  N  N44  1  0.85983708  0.20177118  0.38806130  1
  N  N45  1  0.76723334  0.10255700  0.14654631  1
  N  N46  1  0.54943351  0.20979712  0.80201182  1
  N  N47  1  0.49065261  0.09974568  0.58324679  1
  N  N48  1  0.21417727  0.54390910  0.37800223  1
  N  N49  1  0.10912284  0.42726397  0.13566292  1
  N  N50  1  0.89426025  0.53123661  0.87527778  1
  N  N51  1  0.78748383  0.39585291  0.61275865  1
  N  N52  1  0.54914482  0.54115096  0.36712351  1
  N  N53  1  0.46197208  0.39517843  0.08672007  1
  N  N54  1  0.22012993  0.53749853  0.87885466  1
  N  N55  1  0.11505939  0.40210185  0.62371310  1
  N  N56  1  0.88433988  0.54157723  0.37941435  1
  N  N57  1  0.78027836  0.42657915  0.13430898  1
  N  N58  1  0.56134631  0.53273666  0.85138126  1
  N  N59  1  0.44914915  0.39763562  0.58483524  1
  N  N60  1  0.21332968  0.87650899  0.38272468  1
  N  N61  1  0.10887729  0.76266492  0.12748768  1
  N  N62  1  0.88633601  0.87978235  0.87929114  1
  N  N63  1  0.79268720  0.75345384  0.62545342  1
  N  N64  1  0.54672617  0.88315784  0.33729643  1
  N  N65  1  0.43756713  0.76392773  0.12760072  1
  N  N66  1  0.22145604  0.87416612  0.87744306  1
  N  N67  1  0.11423862  0.75741518  0.62752439  1
  N  N68  1  0.87066164  0.90264492  0.36825860  1
  N  N69  1  0.78193385  0.75859039  0.12783228  1
  N  N70  1  0.55891004  0.87410454  0.83561743  1
  N  N71  1  0.44692043  0.75872562  0.62288200  1
