# generated using pymatgen
data_Li3AsO4
_symmetry_space_group_name_H-M   'P 1'
_cell_length_a   6.47065613
_cell_length_b   5.52604917
_cell_length_c   5.04619637
_cell_angle_alpha   90.00001371
_cell_angle_beta   89.99934254
_cell_angle_gamma   90.00135640
_symmetry_Int_Tables_number   1
_chemical_formula_structural   Li3AsO4
_chemical_formula_sum   'Li6 As2 O8'
_cell_volume   180.43767081
_cell_formula_units_Z   2
loop_
 _symmetry_equiv_pos_site_id
 _symmetry_equiv_pos_as_xyz
  1  'x, y, z'
loop_
 _atom_site_type_symbol
 _atom_site_label
 _atom_site_symmetry_multiplicity
 _atom_site_fract_x
 _atom_site_fract_y
 _atom_site_fract_z
 _atom_site_occupancy
  As  As0  1  -0.99581294  0.17009762  0.13052591  1
  As  As1  1  -0.49584472  0.82820736  0.48794064  1
  O  O2  1  -0.99585317  0.87371678  0.02125167  1
  O  O3  1  -0.99582012  0.17379621  0.47361872  1
  O  O4  1  -0.77773778  0.31986557  0.01906591  1
  O  O5  1  -0.21387594  0.31987602  0.01905820  1
  O  O6  1  -0.72419925  0.67590788  0.54329500  1
  O  O7  1  -0.26749297  0.67588522  0.54328465  1
  O  O8  1  -0.49585237  0.82536347  0.10060294  1
  O  O9  1  -0.49581904  0.13590740  0.54344245  1
  Li  Li10  1  -0.75261319  0.66877489  0.09501483  1
  Li  Li11  1  -0.23912163  0.66873833  0.09500950  1
  Li  Li12  1  -0.99585862  0.84363197  0.62867761  1
  Li  Li13  1  -0.49578504  0.16855431  0.09062103  1
  Li  Li14  1  -0.74808106  0.32585425  0.62840442  1
  Li  Li15  1  -0.24356576  0.32582341  0.62840999  1
