# generated using pymatgen
data_Li3AsO4
_symmetry_space_group_name_H-M   'P 1'
_cell_length_a   5.04619637
_cell_length_b   5.52680301
_cell_length_c   6.47202066
_cell_angle_alpha   90.00167568
_cell_angle_beta   89.99920641
_cell_angle_gamma   90.00001371
_symmetry_Int_Tables_number   1
_chemical_formula_structural   Li3AsO4
_chemical_formula_sum   'Li6 As2 O8'
_cell_volume   180.50034115
_cell_formula_units_Z   2
loop_
 _symmetry_equiv_pos_site_id
 _symmetry_equiv_pos_as_xyz
  1  'x, y, z'
loop_
 _atom_site_type_symbol
 _atom_site_label
 _atom_site_symmetry_multiplicity
 _atom_site_fract_x
 _atom_site_fract_y
 _atom_site_fract_z
 _atom_site_occupancy
  As  As0  1  0.11489715  0.17169016  0.99583357  1
  As  As1  1  0.50092708  0.83007682  0.49581182  1
  O  O2  1  0.09031864  0.86263137  0.99581777  1
  O  O3  1  0.55400268  0.17490340  0.99585433  1
  O  O4  1  0.09065061  0.32479612  0.76654259  1
  O  O5  1  0.09063226  0.32478087  0.22515333  1
  O  O6  1  0.61200405  0.67992668  0.71371977  1
  O  O7  1  0.61199398  0.67993750  0.27788754  1
  O  O8  1  0.15727818  0.82622204  0.49581871  1
  O  O9  1  0.60991199  0.12642258  0.49585380  1
  Li  Li10  1  0.00216211  0.67435002  0.74309498  1
  Li  Li11  1  0.00215493  0.67432049  0.24855261  1
  Li  Li12  1  0.53883749  0.83332864  0.99578564  1
  Li  Li13  1  0.00201171  0.15602653  0.49585816  1
  Li  Li14  1  0.53521357  0.33031299  0.74074921  1
  Li  Li15  1  0.53522705  0.33027447  0.25099977  1
