# generated using pymatgen
data_Li3AsO4
_symmetry_space_group_name_H-M   'P 1'
_cell_length_a   6.47072247
_cell_length_b   5.52617422
_cell_length_c   5.04619637
_cell_angle_alpha   90.00001371
_cell_angle_beta   90.00077145
_cell_angle_gamma   89.99830188
_symmetry_Int_Tables_number   1
_chemical_formula_structural   Li3AsO4
_chemical_formula_sum   'Li6 As2 O8'
_cell_volume   180.44360377
_cell_formula_units_Z   2
loop_
 _symmetry_equiv_pos_site_id
 _symmetry_equiv_pos_as_xyz
  1  'x, y, z'
loop_
 _atom_site_type_symbol
 _atom_site_label
 _atom_site_symmetry_multiplicity
 _atom_site_fract_x
 _atom_site_fract_y
 _atom_site_fract_z
 _atom_site_occupancy
  As  As0  1  -0.99584838  0.17182929  0.14220859  1
  As  As1  1  -0.49581305  0.82989222  0.50041692  1
  O  O2  1  -0.99581874  0.86403734  0.08776396  1
  O  O3  1  -0.99585204  0.17461835  0.53127454  1
  O  O4  1  -0.76744293  0.32417383  0.08778453  1
  O  O5  1  -0.22424330  0.32415141  0.08776792  1
  O  O6  1  -0.71386597  0.68011562  0.61188485  1
  O  O7  1  -0.27774300  0.68012675  0.61187439  1
  O  O8  1  -0.49582014  0.82622255  0.15730965  1
  O  O9  1  -0.49585400  0.12624092  0.60976650  1
  Li  Li10  1  -0.74356095  0.67423023  0.00241623  1
  Li  Li11  1  -0.24809066  0.67419987  0.00240951  1
  Li  Li12  1  -0.99578510  0.83151079  0.54010922  1
  Li  Li13  1  -0.49585761  0.15634394  0.00224030  1
  Li  Li14  1  -0.73922440  0.33117327  0.53649224  1
  Li  Li15  1  -0.25251333  0.33113429  0.53650412  1
