# generated using pymatgen
data_Li3AsO4
_symmetry_space_group_name_H-M   'P 1'
_cell_length_a   6.45495090
_cell_length_b   5.52794357
_cell_length_c   5.04619637
_cell_angle_alpha   90.00001371
_cell_angle_beta   90.00077568
_cell_angle_gamma   89.99935509
_symmetry_Int_Tables_number   1
_chemical_formula_structural   Li3AsO4
_chemical_formula_sum   'Li6 As2 O8'
_cell_volume   180.06142845
_cell_formula_units_Z   2
loop_
 _symmetry_equiv_pos_site_id
 _symmetry_equiv_pos_as_xyz
  1  'x, y, z'
loop_
 _atom_site_type_symbol
 _atom_site_label
 _atom_site_symmetry_multiplicity
 _atom_site_fract_x
 _atom_site_fract_y
 _atom_site_fract_z
 _atom_site_occupancy
  As  As0  1  -0.99584789  0.17244897  0.15487154  1
  As  As1  1  -0.49581137  0.82935330  0.49812701  1
  O  O2  1  -0.99584529  0.86975477  0.07033163  1
  O  O3  1  -0.99583659  0.17454223  0.50095210  1
  O  O4  1  -0.77123070  0.32194863  0.06660392  1
  O  O5  1  -0.22047178  0.32193261  0.06659247  1
  O  O6  1  -0.71443014  0.68106060  0.61109442  1
  O  O7  1  -0.27718374  0.68108160  0.61107100  1
  O  O8  1  -0.49584051  0.82571486  0.15614345  1
  O  O9  1  -0.49584515  0.12486863  0.60870606  1
  Li  Li10  1  -0.74732927  0.67365641  0.00618585  1
  Li  Li11  1  -0.24438259  0.67362310  0.00618543  1
  Li  Li12  1  -0.99575894  0.82635039  0.56136841  1
  Li  Li13  1  -0.49584587  0.15818963  0.00597197  1
  Li  Li14  1  -0.73531471  0.33274933  0.56199221  1
  Li  Li15  1  -0.25635906  0.33272561  0.56202601  1
