# generated using pymatgen
data_Li3AsO4
_symmetry_space_group_name_H-M   'P 1'
_cell_length_a   6.46623869
_cell_length_b   5.52224825
_cell_length_c   5.04619637
_cell_angle_alpha   90.00001372
_cell_angle_beta   90.00088757
_cell_angle_gamma   89.99839485
_symmetry_Int_Tables_number   1
_chemical_formula_structural   Li3AsO4
_chemical_formula_sum   'Li6 As2 O8'
_cell_volume   180.19046455
_cell_formula_units_Z   2
loop_
 _symmetry_equiv_pos_site_id
 _symmetry_equiv_pos_as_xyz
  1  'x, y, z'
loop_
 _atom_site_type_symbol
 _atom_site_label
 _atom_site_symmetry_multiplicity
 _atom_site_fract_x
 _atom_site_fract_y
 _atom_site_fract_z
 _atom_site_occupancy
  As  As0  1  -0.99584012  0.17171965  0.03027230  1
  As  As1  1  -0.49580854  0.82995624  0.50065250  1
  O  O2  1  -0.99581773  0.86548976  0.09924259  1
  O  O3  1  -0.99585285  0.17529176  0.61585507  1
  O  O4  1  -0.76873022  0.32335558  0.10018822  1
  O  O5  1  -0.22295896  0.32333624  0.10017501  1
  O  O6  1  -0.71391911  0.67994123  0.61239917  1
  O  O7  1  -0.27769159  0.67995403  0.61238766  1
  O  O8  1  -0.49581855  0.82603529  0.15731029  1
  O  O9  1  -0.49585346  0.12645773  0.61026839  1
  Li  Li10  1  -0.74325554  0.67403989  0.00305199  1
  Li  Li11  1  -0.24839331  0.67400970  0.00304517  1
  Li  Li12  1  -0.99578723  0.83422711  0.53588150  1
  Li  Li13  1  -0.49585756  0.15646984  0.00285241  1
  Li  Li14  1  -0.74164479  0.32987787  0.53231459  1
  Li  Li15  1  -0.25010404  0.32983873  0.53232664  1
