# generated using pymatgen
data_Li3AsO4
_symmetry_space_group_name_H-M   'P 1'
_cell_length_a   6.47000636
_cell_length_b   5.52501341
_cell_length_c   5.04619637
_cell_angle_alpha   90.00001371
_cell_angle_beta   89.99920434
_cell_angle_gamma   90.00124966
_symmetry_Int_Tables_number   1
_chemical_formula_structural   Li3AsO4
_chemical_formula_sum   'Li6 As2 O8'
_cell_volume   180.38573520
_cell_formula_units_Z   2
loop_
 _symmetry_equiv_pos_site_id
 _symmetry_equiv_pos_as_xyz
  1  'x, y, z'
loop_
 _atom_site_type_symbol
 _atom_site_label
 _atom_site_symmetry_multiplicity
 _atom_site_fract_x
 _atom_site_fract_y
 _atom_site_fract_z
 _atom_site_occupancy
  As  As0  1  -0.99581203  0.16988248  0.12990474  1
  As  As1  1  -0.49584212  0.82838309  0.57319213  1
  O  O2  1  -0.99585281  0.87345544  0.02085700  1
  O  O3  1  -0.99581833  0.17386992  0.47365202  1
  O  O4  1  -0.77787064  0.32013118  0.01867145  1
  O  O5  1  -0.21374070  0.32014112  0.01866479  1
  O  O6  1  -0.72447791  0.67568349  0.53341913  1
  O  O7  1  -0.26721167  0.67566081  0.53341073  1
  O  O8  1  -0.49585499  0.82472634  0.03775749  1
  O  O9  1  -0.49581732  0.13661658  0.53424128  1
  Li  Li10  1  -0.75014014  0.67015263  0.09784574  1
  Li  Li11  1  -0.24160827  0.67011628  0.09784358  1
  Li  Li12  1  -0.99585864  0.84391898  0.62858576  1
  Li  Li13  1  -0.49578539  0.16569818  0.09352025  1
  Li  Li14  1  -0.74865092  0.32579730  0.62832527  1
  Li  Li15  1  -0.24299171  0.32576685  0.62833213  1
