# generated using pymatgen
data_Li3AsO4
_symmetry_space_group_name_H-M   'P 1'
_cell_length_a   6.46224064
_cell_length_b   5.52521960
_cell_length_c   5.04619637
_cell_angle_alpha   90.00001371
_cell_angle_beta   89.99930182
_cell_angle_gamma   90.00104627
_symmetry_Int_Tables_number   1
_chemical_formula_structural   Li3AsO4
_chemical_formula_sum   'Li6 As2 O8'
_cell_volume   180.17594841
_cell_formula_units_Z   2
loop_
 _symmetry_equiv_pos_site_id
 _symmetry_equiv_pos_as_xyz
  1  'x, y, z'
loop_
 _atom_site_type_symbol
 _atom_site_label
 _atom_site_symmetry_multiplicity
 _atom_site_fract_x
 _atom_site_fract_y
 _atom_site_fract_z
 _atom_site_occupancy
  As  As0  1  -0.99581499  0.17035144  0.13202799  1
  As  As1  1  -0.49584504  0.82790258  0.47182144  1
  O  O2  1  -0.99584791  0.87440402  0.02173212  1
  O  O3  1  -0.99583171  0.17410099  0.47422131  1
  O  O4  1  -0.77740753  0.31922686  0.01941047  1
  O  O5  1  -0.21420497  0.31924265  0.01939477  1
  O  O6  1  -0.72186431  0.67733558  0.55168221  1
  O  O7  1  -0.26983997  0.67731749  0.55167277  1
  O  O8  1  -0.49584111  0.82568916  0.12233910  1
  O  O9  1  -0.49583296  0.13226424  0.55047963  1
  Li  Li10  1  -0.75669219  0.66673821  0.08578355  1
  Li  Li11  1  -0.23499675  0.66671849  0.08579850  1
  Li  Li12  1  -0.99585646  0.84216856  0.62682261  1
  Li  Li13  1  -0.49576766  0.17389604  0.08222438  1
  Li  Li14  1  -0.74563112  0.32633804  0.62640736  1
  Li  Li15  1  -0.24605892  0.32630632  0.62640528  1
