# generated using pymatgen
data_Li3AsO4
_symmetry_space_group_name_H-M   'P 1'
_cell_length_a   6.44504645
_cell_length_b   5.53202922
_cell_length_c   5.04619637
_cell_angle_alpha   90.00001370
_cell_angle_beta   90.00039208
_cell_angle_gamma   89.99993380
_symmetry_Int_Tables_number   1
_chemical_formula_structural   Li3AsO4
_chemical_formula_sum   'Li6 As2 O8'
_cell_volume   179.91802040
_cell_formula_units_Z   2
loop_
 _symmetry_equiv_pos_site_id
 _symmetry_equiv_pos_as_xyz
  1  'x, y, z'
loop_
 _atom_site_type_symbol
 _atom_site_label
 _atom_site_symmetry_multiplicity
 _atom_site_fract_x
 _atom_site_fract_y
 _atom_site_fract_z
 _atom_site_occupancy
  As  As0  1  -0.99584441  0.17284081  0.14291097  1
  As  As1  1  -0.49581499  0.82852940  0.49760860  1
  O  O2  1  -0.99585137  0.87291213  0.04841168  1
  O  O3  1  -0.99583716  0.17534547  0.48751520  1
  O  O4  1  -0.77362561  0.32057318  0.04113587  1
  O  O5  1  -0.21806406  0.32056348  0.04113115  1
  O  O6  1  -0.71506749  0.68105557  0.60973820  1
  O  O7  1  -0.27654575  0.68107027  0.60971127  1
  O  O8  1  -0.49584145  0.82564074  0.15542671  1
  O  O9  1  -0.49584556  0.12394493  0.60726619  1
  Li  Li10  1  -0.74720168  0.67396204  0.00826367  1
  Li  Li11  1  -0.24452115  0.67392495  0.00824437  1
  Li  Li12  1  -0.99576114  0.83324138  0.58847743  1
  Li  Li13  1  -0.49583012  0.15715965  0.00874095  1
  Li  Li14  1  -0.74039697  0.32963998  0.59681278  1
  Li  Li15  1  -0.25128469  0.32959669  0.59682844  1
