# generated using pymatgen
data_Li3AsO4
_symmetry_space_group_name_H-M   'P 1'
_cell_length_a   6.44991237
_cell_length_b   5.53050194
_cell_length_c   5.04619637
_cell_angle_alpha   90.00001370
_cell_angle_beta   90.00048661
_cell_angle_gamma   89.99967540
_symmetry_Int_Tables_number   1
_chemical_formula_structural   Li3AsO4
_chemical_formula_sum   'Li6 As2 O8'
_cell_volume   180.00414650
_cell_formula_units_Z   2
loop_
 _symmetry_equiv_pos_site_id
 _symmetry_equiv_pos_as_xyz
  1  'x, y, z'
loop_
 _atom_site_type_symbol
 _atom_site_label
 _atom_site_symmetry_multiplicity
 _atom_site_fract_x
 _atom_site_fract_y
 _atom_site_fract_z
 _atom_site_occupancy
  As  As0  1  -0.99584447  0.17269560  0.14886662  1
  As  As1  1  -0.49581317  0.82896851  0.49773697  1
  O  O2  1  -0.99584710  0.87130672  0.05974185  1
  O  O3  1  -0.99584131  0.17497372  0.49421302  1
  O  O4  1  -0.77242427  0.32124809  0.05366111  1
  O  O5  1  -0.21926903  0.32123706  0.05365030  1
  O  O6  1  -0.71470510  0.68114715  0.61046883  1
  O  O7  1  -0.27690262  0.68116658  0.61044409  1
  O  O8  1  -0.49583918  0.82564606  0.15572788  1
  O  O9  1  -0.49584562  0.12433679  0.60800089  1
  Li  Li10  1  -0.74748747  0.67378194  0.00734109  1
  Li  Li11  1  -0.24422606  0.67374749  0.00733227  1
  Li  Li12  1  -0.99575958  0.82930306  0.57447412  1
  Li  Li13  1  -0.49583412  0.15779801  0.00743397  1
  Li  Li14  1  -0.73756693  0.33133540  0.57955361  1
  Li  Li15  1  -0.25412759  0.33130850  0.57957687  1
