# generated using pymatgen
data_Li3AsO4
_symmetry_space_group_name_H-M   'P 1'
_cell_length_a   5.04619637
_cell_length_b   5.52501341
_cell_length_c   6.47000636
_cell_angle_alpha   89.99875034
_cell_angle_beta   90.00079566
_cell_angle_gamma   90.00001371
_symmetry_Int_Tables_number   1
_chemical_formula_structural   Li3AsO4
_chemical_formula_sum   'Li6 As2 O8'
_cell_volume   180.38573520
_cell_formula_units_Z   2
loop_
 _symmetry_equiv_pos_site_id
 _symmetry_equiv_pos_as_xyz
  1  'x, y, z'
loop_
 _atom_site_type_symbol
 _atom_site_label
 _atom_site_symmetry_multiplicity
 _atom_site_fract_x
 _atom_site_fract_y
 _atom_site_fract_z
 _atom_site_occupancy
  As  As0  1  0.12990474  0.16988248  0.99581203  1
  As  As1  1  0.57319213  0.82838309  0.49584212  1
  O  O2  1  0.02085700  0.87345544  0.99585281  1
  O  O3  1  0.47365202  0.17386992  0.99581833  1
  O  O4  1  0.01867145  0.32013118  0.77787064  1
  O  O5  1  0.01866479  0.32014112  0.21374070  1
  O  O6  1  0.53341913  0.67568349  0.72447791  1
  O  O7  1  0.53341073  0.67566081  0.26721167  1
  O  O8  1  0.03775749  0.82472634  0.49585499  1
  O  O9  1  0.53424128  0.13661658  0.49581732  1
  Li  Li10  1  0.09784574  0.67015263  0.75014014  1
  Li  Li11  1  0.09784358  0.67011628  0.24160827  1
  Li  Li12  1  0.62858576  0.84391898  0.99585864  1
  Li  Li13  1  0.09352025  0.16569818  0.49578539  1
  Li  Li14  1  0.62832527  0.32579730  0.74865092  1
  Li  Li15  1  0.62833213  0.32576685  0.24299171  1
