# generated using pymatgen
data_Li3AsO4
_symmetry_space_group_name_H-M   'P 1'
_cell_length_a   6.43844868
_cell_length_b   5.53317516
_cell_length_c   5.04619637
_cell_angle_alpha   90.00001370
_cell_angle_beta   90.00017181
_cell_angle_gamma   89.99999664
_symmetry_Int_Tables_number   1
_chemical_formula_structural   Li3AsO4
_chemical_formula_sum   'Li6 As2 O8'
_cell_volume   179.77107011
_cell_formula_units_Z   2
loop_
 _symmetry_equiv_pos_site_id
 _symmetry_equiv_pos_as_xyz
  1  'x, y, z'
loop_
 _atom_site_type_symbol
 _atom_site_label
 _atom_site_symmetry_multiplicity
 _atom_site_fract_x
 _atom_site_fract_y
 _atom_site_fract_z
 _atom_site_occupancy
  As  As0  1  -0.99584132  0.17282645  0.13696462  1
  As  As1  1  -0.49581515  0.82790580  0.49782021  1
  O  O2  1  -0.99585159  0.87500783  0.03501494  1
  O  O3  1  -0.99583438  0.17516944  0.48062066  1
  O  O4  1  -0.77477360  0.32003909  0.02971272  1
  O  O5  1  -0.21691061  0.32003361  0.02971403  1
  O  O6  1  -0.71558884  0.68065835  0.60891760  1
  O  O7  1  -0.27602817  0.68067283  0.60888828  1
  O  O8  1  -0.49584131  0.82567672  0.15531752  1
  O  O9  1  -0.49584243  0.12350498  0.60669643  1
  Li  Li10  1  -0.74660167  0.67404033  0.00920158  1
  Li  Li11  1  -0.24512442  0.67400402  0.00917004  1
  Li  Li12  1  -0.99576756  0.83871404  0.60551596  1
  Li  Li13  1  -0.49582593  0.15638147  0.01006131  1
  Li  Li14  1  -0.74345618  0.32769506  0.61230793  1
  Li  Li15  1  -0.24823044  0.32767064  0.61229966  1
