# generated using pymatgen
data_Li3AsO4
_symmetry_space_group_name_H-M   'P 1'
_cell_length_a   6.47189401
_cell_length_b   5.52649178
_cell_length_c   5.04619637
_cell_angle_alpha   90.00001371
_cell_angle_beta   89.99924635
_cell_angle_gamma   90.00130749
_symmetry_Int_Tables_number   1
_chemical_formula_structural   Li3AsO4
_chemical_formula_sum   'Li6 As2 O8'
_cell_volume   180.48664472
_cell_formula_units_Z   2
loop_
 _symmetry_equiv_pos_site_id
 _symmetry_equiv_pos_as_xyz
  1  'x, y, z'
loop_
 _atom_site_type_symbol
 _atom_site_label
 _atom_site_symmetry_multiplicity
 _atom_site_fract_x
 _atom_site_fract_y
 _atom_site_fract_z
 _atom_site_occupancy
  As  As0  1  -0.99581235  0.16983142  0.12979058  1
  As  As1  1  -0.49583760  0.82841252  0.54420214  1
  O  O2  1  -0.99585314  0.87344936  0.02098051  1
  O  O3  1  -0.99581852  0.17381362  0.47366882  1
  O  O4  1  -0.77793546  0.32014807  0.01881429  1
  O  O5  1  -0.21367555  0.32015774  0.01880784  1
  O  O6  1  -0.72527037  0.67515915  0.53697665  1
  O  O7  1  -0.26642366  0.67513913  0.53696693  1
  O  O8  1  -0.49585534  0.82483443  0.05744606  1
  O  O9  1  -0.49581717  0.13766210  0.53762452  1
  Li  Li10  1  -0.75028319  0.67009481  0.09703595  1
  Li  Li11  1  -0.24146535  0.67005909  0.09703254  1
  Li  Li12  1  -0.99585902  0.84407116  0.62888924  1
  Li  Li13  1  -0.49578520  0.16580523  0.09268753  1
  Li  Li14  1  -0.74873133  0.32569637  0.62864661  1
  Li  Li15  1  -0.24291035  0.32566645  0.62865328  1
