# generated using pymatgen
data_Li3AsO4
_symmetry_space_group_name_H-M   'P 1'
_cell_length_a   5.04619637
_cell_length_b   5.53225208
_cell_length_c   6.44495853
_cell_angle_alpha   89.99983575
_cell_angle_beta   90.00062733
_cell_angle_gamma   90.00001370
_symmetry_Int_Tables_number   1
_chemical_formula_structural   Li3AsO4
_chemical_formula_sum   'Li6 As2 O8'
_cell_volume   179.92281394
_cell_formula_units_Z   2
loop_
 _symmetry_equiv_pos_site_id
 _symmetry_equiv_pos_as_xyz
  1  'x, y, z'
loop_
 _atom_site_type_symbol
 _atom_site_label
 _atom_site_symmetry_multiplicity
 _atom_site_fract_x
 _atom_site_fract_y
 _atom_site_fract_z
 _atom_site_occupancy
  As  As0  1  0.13334050  0.17148264  0.99581302  1
  As  As1  1  0.48847261  0.82724096  0.49584478  1
  O  O2  1  0.02376891  0.87605093  0.99584558  1
  O  O3  1  0.47554140  0.17435190  0.99584356  1
  O  O4  1  0.02129987  0.31895016  0.77653575  1
  O  O5  1  0.02127323  0.31896758  0.21507235  1
  O  O6  1  0.59023646  0.67945494  0.71804075  1
  O  O7  1  0.59021854  0.67944584  0.27365047  1
  O  O8  1  0.14390091  0.82487243  0.49583945  1
  O  O9  1  0.58381630  0.12692937  0.49585007  1
  Li  Li10  1  0.03417358  0.67042906  0.75121593  1
  Li  Li11  1  0.03423136  0.67038605  0.24046153  1
  Li  Li12  1  0.62217576  0.84284379  0.99583695  1
  Li  Li13  1  0.04071757  0.16633766  0.49575761  1
  Li  Li14  1  0.62252851  0.32614342  0.74457877  1
  Li  Li15  1  0.62252800  0.32611394  0.24714703  1
