# generated using pymatgen
data_Li3AsO4
_symmetry_space_group_name_H-M   'P 1'
_cell_length_a   6.42316819
_cell_length_b   5.49535753
_cell_length_c   5.04619637
_cell_angle_alpha   90.00001375
_cell_angle_beta   90.00086335
_cell_angle_gamma   89.99922057
_symmetry_Int_Tables_number   1
_chemical_formula_structural   Li3AsO4
_chemical_formula_sum   'Li6 As2 O8'
_cell_volume   178.11864978
_cell_formula_units_Z   2
loop_
 _symmetry_equiv_pos_site_id
 _symmetry_equiv_pos_as_xyz
  1  'x, y, z'
loop_
 _atom_site_type_symbol
 _atom_site_label
 _atom_site_symmetry_multiplicity
 _atom_site_fract_x
 _atom_site_fract_y
 _atom_site_fract_z
 _atom_site_occupancy
  As  As0  1  -0.99583701  0.17165853  0.00046743  1
  As  As1  1  -0.49582018  0.82901196  0.50028812  1
  O  O2  1  -0.99582992  0.87180504  0.10669273  1
  O  O3  1  -0.99583390  0.17627991  0.65563439  1
  O  O4  1  -0.77347457  0.32043601  0.10909372  1
  O  O5  1  -0.21821127  0.32042128  0.10908768  1
  O  O6  1  -0.71637610  0.68001638  0.61283578  1
  O  O7  1  -0.27525253  0.68001999  0.61282878  1
  O  O8  1  -0.49582780  0.82437702  0.15759322  1
  O  O9  1  -0.49583757  0.12715069  0.61045987  1
  Li  Li10  1  -0.74664349  0.67138490  0.00738215  1
  Li  Li11  1  -0.24504163  0.67135564  0.00737892  1
  Li  Li12  1  -0.99581893  0.83507896  0.51850718  1
  Li  Li13  1  -0.49585791  0.16118290  0.00700287  1
  Li  Li14  1  -0.74254044  0.32992195  0.51648619  1
  Li  Li15  1  -0.24913034  0.32989948  0.51648447  1
