# generated using pymatgen
data_Li3AsO4
_symmetry_space_group_name_H-M   'P 1'
_cell_length_a   6.45484403
_cell_length_b   5.52808624
_cell_length_c   5.04619637
_cell_angle_alpha   90.00001371
_cell_angle_beta   89.99921118
_cell_angle_gamma   90.00053798
_symmetry_Int_Tables_number   1
_chemical_formula_structural   Li3AsO4
_chemical_formula_sum   'Li6 As2 O8'
_cell_volume   180.06309429
_cell_formula_units_Z   2
loop_
 _symmetry_equiv_pos_site_id
 _symmetry_equiv_pos_as_xyz
  1  'x, y, z'
loop_
 _atom_site_type_symbol
 _atom_site_label
 _atom_site_symmetry_multiplicity
 _atom_site_fract_x
 _atom_site_fract_y
 _atom_site_fract_z
 _atom_site_occupancy
  As  As0  1  -0.99581537  0.17064321  0.13285936  1
  As  As1  1  -0.49584656  0.82760302  0.47648612  1
  O  O2  1  -0.99584434  0.87511831  0.02234493  1
  O  O3  1  -0.99584078  0.17429487  0.47485404  1
  O  O4  1  -0.77717717  0.31891718  0.01994138  1
  O  O5  1  -0.21443021  0.31893715  0.01991855  1
  O  O6  1  -0.72044016  0.67810068  0.56485809  1
  O  O7  1  -0.27126324  0.67808629  0.56484287  1
  O  O8  1  -0.49583686  0.82553838  0.13044524  1
  O  O9  1  -0.49584491  0.13015074  0.56153887  1
  Li  Li10  1  -0.75632713  0.66727877  0.06875913  1
  Li  Li11  1  -0.23534513  0.66725547  0.06881319  1
  Li  Li12  1  -0.99585037  0.84180529  0.62486466  1
  Li  Li13  1  -0.49575741  0.17345072  0.06852797  1
  Li  Li14  1  -0.74439153  0.32642418  0.62458455  1
  Li  Li15  1  -0.24732243  0.32639642  0.62458454  1
