# generated using pymatgen
data_Li3AsO4
_symmetry_space_group_name_H-M   'P 1'
_cell_length_a   6.46634368
_cell_length_b   5.52225316
_cell_length_c   5.04619637
_cell_angle_alpha   90.00001372
_cell_angle_beta   89.99915956
_cell_angle_gamma   90.00119314
_symmetry_Int_Tables_number   1
_chemical_formula_structural   Li3AsO4
_chemical_formula_sum   'Li6 As2 O8'
_cell_volume   180.19355038
_cell_formula_units_Z   2
loop_
 _symmetry_equiv_pos_site_id
 _symmetry_equiv_pos_as_xyz
  1  'x, y, z'
loop_
 _atom_site_type_symbol
 _atom_site_label
 _atom_site_symmetry_multiplicity
 _atom_site_fract_x
 _atom_site_fract_y
 _atom_site_fract_z
 _atom_site_occupancy
  As  As0  1  -0.99581237  0.17002179  0.13024586  1
  As  As1  1  -0.49584109  0.82829741  0.60010646  1
  O  O2  1  -0.99585278  0.87348872  0.02074043  1
  O  O3  1  -0.99581874  0.17397840  0.47361426  1
  O  O4  1  -0.77769725  0.32005268  0.01854531  1
  O  O5  1  -0.21391422  0.32006250  0.01853869  1
  O  O6  1  -0.72300365  0.67666170  0.53085149  1
  O  O7  1  -0.26868742  0.67663980  0.53084626  1
  O  O8  1  -0.49585358  0.82465539  0.01581766  1
  O  O9  1  -0.49581781  0.13460394  0.53191801  1
  Li  Li10  1  -0.75010553  0.67013026  0.09920258  1
  Li  Li11  1  -0.24163948  0.67009256  0.09920180  1
  Li  Li12  1  -0.99585914  0.84353911  0.62808250  1
  Li  Li13  1  -0.49578560  0.16575386  0.09492433  1
  Li  Li14  1  -0.74841975  0.32602656  0.62779054  1
  Li  Li15  1  -0.24322518  0.32599597  0.62779731  1
