# generated using pymatgen
data_Li3AsO4
_symmetry_space_group_name_H-M   'P 1'
_cell_length_a   6.43788010
_cell_length_b   5.53357857
_cell_length_c   5.04619637
_cell_angle_alpha   90.00001370
_cell_angle_beta   89.99954813
_cell_angle_gamma   90.00003295
_symmetry_Int_Tables_number   1
_chemical_formula_structural   Li3AsO4
_chemical_formula_sum   'Li6 As2 O8'
_cell_volume   179.76830007
_cell_formula_units_Z   2
loop_
 _symmetry_equiv_pos_site_id
 _symmetry_equiv_pos_as_xyz
  1  'x, y, z'
loop_
 _atom_site_type_symbol
 _atom_site_label
 _atom_site_symmetry_multiplicity
 _atom_site_fract_x
 _atom_site_fract_y
 _atom_site_fract_z
 _atom_site_occupancy
  As  As0  1  -0.99581396  0.17211511  0.13308576  1
  As  As1  1  -0.49584107  0.82722206  0.49440496  1
  O  O2  1  -0.99584121  0.87653178  0.02423631  1
  O  O3  1  -0.99584362  0.17430408  0.47559957  1
  O  O4  1  -0.77600837  0.31934283  0.02204503  1
  O  O5  1  -0.21560236  0.31935999  0.02201752  1
  O  O6  1  -0.71689140  0.67998531  0.60171235  1
  O  O7  1  -0.27479399  0.67998085  0.60170846  1
  O  O8  1  -0.49583690  0.82502711  0.15079322  1
  O  O9  1  -0.49585074  0.12482557  0.59702624  1
  Li  Li10  1  -0.74812478  0.67235861  0.01860266  1
  Li  Li11  1  -0.24355884  0.67233716  0.01863969  1
  Li  Li12  1  -0.99583089  0.84374798  0.62115917  1
  Li  Li13  1  -0.49576461  0.16079303  0.02371327  1
  Li  Li14  1  -0.74521775  0.32604924  0.62174364  1
  Li  Li15  1  -0.24651312  0.32601995  0.62173562  1
