# generated using pymatgen
data_Li3AsO4
_symmetry_space_group_name_H-M   'P 1'
_cell_length_a   5.04619637
_cell_length_b   5.52224825
_cell_length_c   6.46623869
_cell_angle_alpha   90.00160515
_cell_angle_beta   89.99911243
_cell_angle_gamma   90.00001372
_symmetry_Int_Tables_number   1
_chemical_formula_structural   Li3AsO4
_chemical_formula_sum   'Li6 As2 O8'
_cell_volume   180.19046455
_cell_formula_units_Z   2
loop_
 _symmetry_equiv_pos_site_id
 _symmetry_equiv_pos_as_xyz
  1  'x, y, z'
loop_
 _atom_site_type_symbol
 _atom_site_label
 _atom_site_symmetry_multiplicity
 _atom_site_fract_x
 _atom_site_fract_y
 _atom_site_fract_z
 _atom_site_occupancy
  As  As0  1  0.03027230  0.17171965  0.99584012  1
  As  As1  1  0.50065250  0.82995624  0.49580854  1
  O  O2  1  0.09924259  0.86548976  0.99581773  1
  O  O3  1  0.61585507  0.17529176  0.99585285  1
  O  O4  1  0.10018822  0.32335558  0.76873022  1
  O  O5  1  0.10017501  0.32333624  0.22295896  1
  O  O6  1  0.61239917  0.67994123  0.71391911  1
  O  O7  1  0.61238766  0.67995403  0.27769159  1
  O  O8  1  0.15731029  0.82603529  0.49581855  1
  O  O9  1  0.61026839  0.12645773  0.49585346  1
  Li  Li10  1  0.00305199  0.67403989  0.74325554  1
  Li  Li11  1  0.00304517  0.67400970  0.24839331  1
  Li  Li12  1  0.53588150  0.83422711  0.99578723  1
  Li  Li13  1  0.00285241  0.15646984  0.49585756  1
  Li  Li14  1  0.53231459  0.32987787  0.74164479  1
  Li  Li15  1  0.53232664  0.32983873  0.25010404  1
