# generated using pymatgen
data_Li3AsO4
_symmetry_space_group_name_H-M   'P 1'
_cell_length_a   5.04619637
_cell_length_b   5.53050194
_cell_length_c   6.44991237
_cell_angle_alpha   90.00032460
_cell_angle_beta   89.99951339
_cell_angle_gamma   90.00001370
_symmetry_Int_Tables_number   1
_chemical_formula_structural   Li3AsO4
_chemical_formula_sum   'Li6 As2 O8'
_cell_volume   180.00414650
_cell_formula_units_Z   2
loop_
 _symmetry_equiv_pos_site_id
 _symmetry_equiv_pos_as_xyz
  1  'x, y, z'
loop_
 _atom_site_type_symbol
 _atom_site_label
 _atom_site_symmetry_multiplicity
 _atom_site_fract_x
 _atom_site_fract_y
 _atom_site_fract_z
 _atom_site_occupancy
  As  As0  1  0.14886662  0.17269560  0.99584447  1
  As  As1  1  0.49773697  0.82896851  0.49581317  1
  O  O2  1  0.05974185  0.87130672  0.99584710  1
  O  O3  1  0.49421302  0.17497372  0.99584131  1
  O  O4  1  0.05366111  0.32124809  0.77242427  1
  O  O5  1  0.05365030  0.32123706  0.21926903  1
  O  O6  1  0.61046883  0.68114715  0.71470510  1
  O  O7  1  0.61044409  0.68116658  0.27690262  1
  O  O8  1  0.15572788  0.82564606  0.49583918  1
  O  O9  1  0.60800089  0.12433679  0.49584562  1
  Li  Li10  1  0.00734109  0.67378194  0.74748747  1
  Li  Li11  1  0.00733227  0.67374749  0.24422606  1
  Li  Li12  1  0.57447412  0.82930306  0.99575958  1
  Li  Li13  1  0.00743397  0.15779801  0.49583412  1
  Li  Li14  1  0.57955361  0.33133540  0.73756693  1
  Li  Li15  1  0.57957687  0.33130850  0.25412759  1
