# generated using pymatgen
data_Li3AsO4
_symmetry_space_group_name_H-M   'P 1'
_cell_length_a   5.04619637
_cell_length_b   5.52671090
_cell_length_c   6.47200985
_cell_angle_alpha   89.99865856
_cell_angle_beta   90.00070695
_cell_angle_gamma   90.00001371
_symmetry_Int_Tables_number   1
_chemical_formula_structural   Li3AsO4
_chemical_formula_sum   'Li6 As2 O8'
_cell_volume   180.49703152
_cell_formula_units_Z   2
loop_
 _symmetry_equiv_pos_site_id
 _symmetry_equiv_pos_as_xyz
  1  'x, y, z'
loop_
 _atom_site_type_symbol
 _atom_site_label
 _atom_site_symmetry_multiplicity
 _atom_site_fract_x
 _atom_site_fract_y
 _atom_site_fract_z
 _atom_site_occupancy
  As  As0  1  0.12999734  0.16990928  0.99581179  1
  As  As1  1  0.51518964  0.82834159  0.49584673  1
  O  O2  1  0.02110284  0.87352893  0.99585336  1
  O  O3  1  0.47364581  0.17379504  0.99581912  1
  O  O4  1  0.01894415  0.32006095  0.77788667  1
  O  O5  1  0.01893710  0.32007130  0.21372605  1
  O  O6  1  0.54044167  0.67526059  0.72513474  1
  O  O7  1  0.54043102  0.67523574  0.26655250  1
  O  O8  1  0.07773245  0.82506260  0.49585438  1
  O  O9  1  0.54090080  0.13736828  0.49581748  1
  Li  Li10  1  0.09633452  0.66966638  0.75104312  1
  Li  Li11  1  0.09632875  0.66963018  0.24070082  1
  Li  Li12  1  0.62891946  0.84396269  0.99585859  1
  Li  Li13  1  0.09196459  0.16668094  0.49578550  1
  Li  Li14  1  0.62867348  0.32572821  0.74856279  1
  Li  Li15  1  0.62867988  0.32569797  0.24307997  1
