# generated using pymatgen
data_Sc2Al34N35O
_symmetry_space_group_name_H-M   'P 1'
_cell_length_a   9.83457419
_cell_length_b   9.84737814
_cell_length_c   8.80512452
_cell_angle_alpha   90.04714414
_cell_angle_beta   89.99999255
_cell_angle_gamma   60.04299008
_symmetry_Int_Tables_number   1
_chemical_formula_structural   Sc2Al34N35O
_chemical_formula_sum   'Sc2 Al34 N35 O1'
_cell_volume   738.80544203
_cell_formula_units_Z   1
loop_
 _symmetry_equiv_pos_site_id
 _symmetry_equiv_pos_as_xyz
  1  'x, y, z'
loop_
 _atom_site_type_symbol
 _atom_site_label
 _atom_site_symmetry_multiplicity
 _atom_site_fract_x
 _atom_site_fract_y
 _atom_site_fract_z
 _atom_site_occupancy
  Al  Al0  1  0.10928755  0.09807838  0.38067650  1
  Al  Al1  1  0.22485080  0.21271641  0.11856638  1
  Al  Al2  1  0.77421732  0.09307325  0.87004043  1
  Al  Al3  1  0.87807832  0.21089551  0.61682110  1
  Al  Al4  1  0.44608532  0.09318057  0.36606289  1
  Al  Al5  1  0.55542850  0.20579651  0.11787067  1
  Al  Al6  1  0.22767964  0.21089549  0.61682109  1
  Al  Al7  1  0.77738764  0.09318055  0.36606292  1
  Al  Al8  1  0.87908626  0.21271637  0.11856640  1
  Al  Al9  1  0.44936289  0.09307328  0.87004045  1
  Al  Al10  1  0.55600519  0.20464309  0.61872764  1
  Al  Al11  1  0.10947652  0.42888177  0.36713541  1
  Al  Al12  1  0.22336624  0.53491418  0.12046477  1
  Al  Al13  1  0.77297693  0.43254292  0.86958884  1
  Al  Al14  1  0.88930341  0.53804672  0.61824301  1
  Al  Al15  1  0.44540850  0.42583662  0.36964595  1
  Al  Al16  1  0.55837320  0.53491415  0.12046479  1
  Al  Al17  1  0.11113371  0.43254290  0.86958881  1
  Al  Al18  1  0.22343175  0.53677522  0.61651727  1
  Al  Al19  1  0.77829530  0.42888176  0.36713540  1
  Al  Al20  1  0.88770394  0.54124569  0.11838390  1
  Al  Al21  1  0.44477182  0.42710996  0.86651443  1
  Al  Al22  1  0.55644659  0.53677522  0.61651728  1
  Al  Al23  1  0.10906061  0.75872413  0.36966352  1
  Al  Al24  1  0.77776294  0.76112765  0.86510167  1
  Al  Al25  1  0.88769900  0.87291741  0.61659636  1
  Al  Al26  1  0.44886880  0.75872415  0.36966351  1
  Al  Al27  1  0.56114758  0.86940831  0.12025239  1
  Al  Al28  1  0.10913481  0.75472864  0.86358084  1
  Al  Al29  1  0.22585712  0.86493935  0.60974423  1
  Al  Al30  1  0.77840876  0.75983605  0.37197200  1
  Al  Al31  1  0.88609767  0.86940827  0.12025239  1
  Al  Al32  1  0.45279010  0.75472864  0.86358084  1
  Al  Al33  1  0.55603713  0.87291742  0.61659635  1
  Sc  Sc34  1  0.10861784  0.09941780  0.84538061  1
  Sc  Sc35  1  0.22353709  0.86957940  0.10826040  1
  N  N36  1  0.22121404  0.20429854  0.33943590  1
  N  N37  1  0.86767602  0.21594439  0.84198460  1
  N  N38  1  0.77658939  0.09415766  0.58767788  1
  N  N39  1  0.55563619  0.20538113  0.33883744  1
  N  N40  1  0.44497918  0.09183125  0.09363908  1
  N  N41  1  0.23303302  0.21594436  0.84198462  1
  N  N42  1  0.10948037  0.09769274  0.59797680  1
  N  N43  1  0.89114090  0.20429854  0.33943590  1
  N  N44  1  0.77984311  0.09183121  0.09363907  1
  N  N45  1  0.55613331  0.20438684  0.84254561  1
  N  N46  1  0.44590646  0.09415767  0.58767788  1
  N  N47  1  0.22369347  0.53723787  0.34282321  1
  N  N48  1  0.10975763  0.42883034  0.09281351  1
  N  N49  1  0.88949642  0.53766070  0.84122036  1
  N  N50  1  0.77774558  0.42864489  0.58815018  1
  N  N51  1  0.55572224  0.53723789  0.34282321  1
  N  N52  1  0.44469810  0.42725742  0.09014432  1
  N  N53  1  0.22355967  0.53706756  0.83859968  1
  N  N54  1  0.11026309  0.42864490  0.58815020  1
  N  N55  1  0.88833976  0.53997404  0.34037275  1
  N  N56  1  0.77806567  0.42883029  0.09281352  1
  N  N57  1  0.55602629  0.53706759  0.83859968  1
  N  N58  1  0.44555347  0.42554666  0.59161916  1
  N  N59  1  0.22071325  0.87522704  0.35456494  1
  N  N60  1  0.10259680  0.75075078  0.09104058  1
  N  N61  1  0.88785872  0.87333241  0.83884385  1
  N  N62  1  0.77840949  0.75983461  0.59319224  1
  N  N63  1  0.55745214  0.87119947  0.34299098  1
  N  N64  1  0.46330604  0.75075075  0.09104059  1
  N  N65  1  0.23064101  0.85537149  0.84495678  1
  N  N66  1  0.11034944  0.75915946  0.59239658  1
  N  N67  1  0.88800193  0.87119947  0.34299097  1
  N  N68  1  0.77797403  0.76070549  0.08814406  1
  N  N69  1  0.55546236  0.87333244  0.83884386  1
  N  N70  1  0.44714470  0.75915945  0.59239659  1
  O  O71  1  0.09909927  0.11845492  0.09161129  1
