# generated using pymatgen
data_Sc2Al34N35O
_symmetry_space_group_name_H-M   'P 1'
_cell_length_a   9.42780921
_cell_length_b   9.44066438
_cell_length_c   10.00686285
_cell_angle_alpha   90.06994263
_cell_angle_beta   90.00000042
_cell_angle_gamma   60.04503173
_symmetry_Int_Tables_number   1
_chemical_formula_structural   Sc2Al34N35O
_chemical_formula_sum   'Sc2 Al34 N35 O1'
_cell_volume   771.68202238
_cell_formula_units_Z   1
loop_
 _symmetry_equiv_pos_site_id
 _symmetry_equiv_pos_as_xyz
  1  'x, y, z'
loop_
 _atom_site_type_symbol
 _atom_site_label
 _atom_site_symmetry_multiplicity
 _atom_site_fract_x
 _atom_site_fract_y
 _atom_site_fract_z
 _atom_site_occupancy
  Al  Al0  1  0.11074689  0.09524744  0.40468118  1
  Al  Al1  1  0.22462748  0.21392301  0.14941457  1
  Al  Al2  1  0.77384610  0.09454471  0.89324416  1
  Al  Al3  1  0.87980740  0.20994351  0.64119929  1
  Al  Al4  1  0.44679878  0.09254005  0.39356225  1
  Al  Al5  1  0.55582727  0.20508688  0.14340443  1
  Al  Al6  1  0.22699033  0.20994356  0.64119921  1
  Al  Al7  1  0.77740253  0.09254002  0.39356228  1
  Al  Al8  1  0.87819080  0.21392290  0.14941457  1
  Al  Al9  1  0.44835055  0.09454482  0.89324414  1
  Al  Al10  1  0.55593539  0.20487062  0.64399587  1
  Al  Al11  1  0.10980281  0.42945295  0.39388130  1
  Al  Al12  1  0.22253140  0.53536778  0.14396963  1
  Al  Al13  1  0.77271522  0.43195816  0.89335574  1
  Al  Al14  1  0.88893577  0.53886971  0.64359453  1
  Al  Al15  1  0.44504965  0.42664196  0.39376056  1
  Al  Al16  1  0.55884218  0.53536768  0.14396963  1
  Al  Al17  1  0.11206788  0.43195830  0.89335575  1
  Al  Al18  1  0.22320061  0.53711115  0.64369042  1
  Al  Al19  1  0.77748557  0.42945286  0.39388131  1
  Al  Al20  1  0.88826595  0.54020936  0.14330617  1
  Al  Al21  1  0.44479150  0.42715825  0.89250569  1
  Al  Al22  1  0.55642955  0.53711105  0.64369047  1
  Al  Al23  1  0.11001253  0.75888013  0.39785465  1
  Al  Al24  1  0.77778411  0.76117322  0.89309550  1
  Al  Al25  1  0.88781058  0.87212486  0.64361969  1
  Al  Al26  1  0.44784862  0.75888008  0.39785464  1
  Al  Al27  1  0.56034848  0.86957152  0.14448497  1
  Al  Al28  1  0.10949327  0.75456386  0.89082442  1
  Al  Al29  1  0.22604904  0.86464309  0.64323467  1
  Al  Al30  1  0.77828235  0.76017671  0.39442698  1
  Al  Al31  1  0.88682134  0.86957157  0.14448498  1
  Al  Al32  1  0.45268411  0.75456377  0.89082442  1
  Al  Al33  1  0.55680591  0.87212481  0.64361969  1
  Sc  Sc34  1  0.10804492  0.10065141  0.87525758  1
  Sc  Sc35  1  0.22271562  0.87130981  0.14177390  1
  N  N36  1  0.22150017  0.20416953  0.33796670  1
  N  N37  1  0.86495871  0.21760469  0.82953272  1
  N  N38  1  0.77696690  0.09295863  0.58314612  1
  N  N39  1  0.55595587  0.20482946  0.33357145  1
  N  N40  1  0.44235710  0.09292958  0.08597522  1
  N  N41  1  0.23417808  0.21760472  0.82953267  1
  N  N42  1  0.11070661  0.09532823  0.59918900  1
  N  N43  1  0.89107162  0.20416956  0.33796672  1
  N  N44  1  0.78145457  0.09292958  0.08597523  1
  N  N45  1  0.55581710  0.20510692  0.83549729  1
  N  N46  1  0.44681574  0.09295858  0.58314613  1
  N  N47  1  0.22281721  0.53825538  0.33487211  1
  N  N48  1  0.11057648  0.42671625  0.08505186  1
  N  N49  1  0.88929200  0.53815728  0.83561575  1
  N  N50  1  0.77733622  0.42928130  0.58318349  1
  N  N51  1  0.55566868  0.53825543  0.33487215  1
  N  N52  1  0.44504966  0.42664193  0.08474996  1
  N  N53  1  0.22378647  0.53722321  0.83359331  1
  N  N54  1  0.11012377  0.42928124  0.58318349  1
  N  N55  1  0.88889476  0.53895172  0.33396439  1
  N  N56  1  0.77944853  0.42671634  0.08505183  1
  N  N57  1  0.55573155  0.53722330  0.83359340  1
  N  N58  1  0.44517341  0.42639444  0.58474436  1
  N  N59  1  0.22184832  0.87304477  0.35083492  1
  N  N60  1  0.10275634  0.75110006  0.08057780  1
  N  N61  1  0.88759962  0.87321628  0.83438105  1
  N  N62  1  0.77827496  0.76019123  0.58509213  1
  N  N63  1  0.55617664  0.87103544  0.33522721  1
  N  N64  1  0.46288492  0.75110012  0.08057782  1
  N  N65  1  0.23185908  0.85302328  0.83728332  1
  N  N66  1  0.11024325  0.75903912  0.58753024  1
  N  N67  1  0.88952918  0.87103540  0.33522724  1
  N  N68  1  0.77799503  0.76075109  0.08409428  1
  N  N69  1  0.55592530  0.87321630  0.83438111  1
  N  N70  1  0.44745898  0.75903912  0.58753028  1
  O  O71  1  0.09815021  0.12044099  0.09053240  1
