# generated using pymatgen
data_Sc2Al34N35O
_symmetry_space_group_name_H-M   'P 1'
_cell_length_a   9.42778945
_cell_length_b   9.44064077
_cell_length_c   10.00691359
_cell_angle_alpha   90.06976434
_cell_angle_beta   90.00000050
_cell_angle_gamma   60.04501650
_symmetry_Int_Tables_number   1
_chemical_formula_structural   Sc2Al34N35O
_chemical_formula_sum   'Sc2 Al34 N35 O1'
_cell_volume   771.68227383
_cell_formula_units_Z   1
loop_
 _symmetry_equiv_pos_site_id
 _symmetry_equiv_pos_as_xyz
  1  'x, y, z'
loop_
 _atom_site_type_symbol
 _atom_site_label
 _atom_site_symmetry_multiplicity
 _atom_site_fract_x
 _atom_site_fract_y
 _atom_site_fract_z
 _atom_site_occupancy
  Al  Al0  1  0.11080951  0.09525477  0.41995908  1
  Al  Al1  1  0.22469162  0.21392842  0.16469780  1
  Al  Al2  1  0.77390867  0.09455218  0.90852525  1
  Al  Al3  1  0.87987250  0.20994915  0.65648015  1
  Al  Al4  1  0.44686107  0.09254746  0.40884530  1
  Al  Al5  1  0.55589019  0.20509337  0.15868828  1
  Al  Al6  1  0.22705216  0.20994914  0.65648014  1
  Al  Al7  1  0.77746525  0.09254749  0.40884532  1
  Al  Al8  1  0.87825370  0.21392843  0.16469780  1
  Al  Al9  1  0.44841300  0.09455217  0.90852524  1
  Al  Al10  1  0.55599791  0.20487793  0.65927628  1
  Al  Al11  1  0.10986594  0.42945977  0.40916399  1
  Al  Al12  1  0.22259363  0.53537521  0.15925093  1
  Al  Al13  1  0.77277845  0.43196417  0.90863652  1
  Al  Al14  1  0.88899800  0.53887771  0.65887484  1
  Al  Al15  1  0.44511204  0.42664966  0.40904239  1
  Al  Al16  1  0.55890495  0.53537519  0.15925092  1
  Al  Al17  1  0.11213117  0.43196420  0.90863652  1
  Al  Al18  1  0.22326286  0.53711930  0.65897124  1
  Al  Al19  1  0.77754805  0.42945977  0.40916399  1
  Al  Al20  1  0.88832859  0.54021661  0.15858941  1
  Al  Al21  1  0.44485448  0.42716480  0.90778811  1
  Al  Al22  1  0.55649156  0.53711927  0.65897126  1
  Al  Al23  1  0.11007442  0.75888820  0.41313356  1
  Al  Al24  1  0.77784616  0.76118145  0.90837734  1
  Al  Al25  1  0.88787322  0.87213258  0.65890057  1
  Al  Al26  1  0.44791123  0.75888814  0.41313356  1
  Al  Al27  1  0.56041016  0.86958004  0.15976549  1
  Al  Al28  1  0.10955592  0.75457239  0.90610457  1
  Al  Al29  1  0.22611080  0.86465219  0.65851280  1
  Al  Al30  1  0.77834419  0.76018543  0.40970720  1
  Al  Al31  1  0.88688364  0.86958004  0.15976549  1
  Al  Al32  1  0.45274546  0.75457236  0.90610458  1
  Al  Al33  1  0.55686798  0.87213256  0.65890057  1
  Sc  Sc34  1  0.10810865  0.10065658  0.89054345  1
  Sc  Sc35  1  0.22277909  0.87131563  0.15705567  1
  N  N36  1  0.22156266  0.20417844  0.35324604  1
  N  N37  1  0.86502210  0.21761293  0.84481393  1
  N  N38  1  0.77702946  0.09296658  0.59842759  1
  N  N39  1  0.55601798  0.20483780  0.34885233  1
  N  N40  1  0.44241942  0.09293793  0.10125488  1
  N  N41  1  0.23423878  0.21761295  0.84481391  1
  N  N42  1  0.11076893  0.09533594  0.61446570  1
  N  N43  1  0.89113269  0.20417844  0.35324605  1
  N  N44  1  0.78151641  0.09293794  0.10125489  1
  N  N45  1  0.55587910  0.20511561  0.85077769  1
  N  N46  1  0.44687777  0.09296654  0.59842758  1
  N  N47  1  0.22287950  0.53826254  0.35015068  1
  N  N48  1  0.11063785  0.42672440  0.10033107  1
  N  N49  1  0.88935448  0.53816482  0.85089669  1
  N  N50  1  0.77739840  0.42928948  0.59846490  1
  N  N51  1  0.55573173  0.53826251  0.35015066  1
  N  N52  1  0.44511207  0.42664963  0.10003044  1
  N  N53  1  0.22384914  0.53722967  0.84887442  1
  N  N54  1  0.11018585  0.42928948  0.59846490  1
  N  N55  1  0.88895732  0.53895912  0.34924415  1
  N  N56  1  0.77951155  0.42672439  0.10033108  1
  N  N57  1  0.55579498  0.53722963  0.84887444  1
  N  N58  1  0.44523527  0.42640320  0.60002493  1
  N  N59  1  0.22191143  0.87305099  0.36611327  1
  N  N60  1  0.10281880  0.75110590  0.09585635  1
  N  N61  1  0.88766230  0.87322286  0.84966191  1
  N  N62  1  0.77833772  0.76019837  0.60037172  1
  N  N63  1  0.55623949  0.87104300  0.35050524  1
  N  N64  1  0.46294913  0.75110589  0.09585636  1
  N  N65  1  0.23192173  0.85303029  0.85256120  1
  N  N66  1  0.11030557  0.75904587  0.60280875  1
  N  N67  1  0.88959129  0.87104302  0.35050524  1
  N  N68  1  0.77805851  0.76075684  0.09937402  1
  N  N69  1  0.55598860  0.87322284  0.84966192  1
  N  N70  1  0.44752237  0.75904583  0.60280876  1
  O  O71  1  0.09821336  0.12044699  0.10581427  1
