# generated using pymatgen
data_Sc2Al34N35O
_symmetry_space_group_name_H-M   'P 1'
_cell_length_a   9.42218864
_cell_length_b   9.43726756
_cell_length_c   10.01465736
_cell_angle_alpha   89.87985753
_cell_angle_beta   90.00000053
_cell_angle_gamma   60.05284439
_symmetry_Int_Tables_number   1
_chemical_formula_structural   Sc2Al34N35O
_chemical_formula_sum   'Sc2 Al34 N35 O1'
_cell_volume   771.60410908
_cell_formula_units_Z   1
loop_
 _symmetry_equiv_pos_site_id
 _symmetry_equiv_pos_as_xyz
  1  'x, y, z'
loop_
 _atom_site_type_symbol
 _atom_site_label
 _atom_site_symmetry_multiplicity
 _atom_site_fract_x
 _atom_site_fract_y
 _atom_site_fract_z
 _atom_site_occupancy
  Al  Al0  1  0.10763658  0.10119162  0.32122178  1
  Al  Al1  1  0.22564539  0.21542954  0.05599550  1
  Al  Al2  1  0.77465872  0.09438482  0.80404987  1
  Al  Al3  1  0.88272566  0.20808615  0.54739826  1
  Al  Al4  1  0.44727997  0.09277669  0.30346755  1
  Al  Al5  1  0.55598722  0.20449026  0.05326914  1
  Al  Al6  1  0.22565292  0.20808617  0.54739826  1
  Al  Al7  1  0.77640808  0.09277668  0.30346754  1
  Al  Al8  1  0.87538972  0.21542954  0.05599548  1
  Al  Al9  1  0.44742113  0.09438484  0.80404987  1
  Al  Al10  1  0.55561832  0.20522811  0.55365895  1
  Al  Al11  1  0.10994008  0.43096900  0.30320631  1
  Al  Al12  1  0.22193980  0.53583278  0.05217385  1
  Al  Al13  1  0.77488971  0.43008093  0.80370943  1
  Al  Al14  1  0.88897152  0.53852173  0.55374879  1
  Al  Al15  1  0.44473592  0.42699294  0.30369969  1
  Al  Al16  1  0.55869212  0.53583280  0.05217384  1
  Al  Al17  1  0.11149410  0.43008093  0.80370943  1
  Al  Al18  1  0.22355043  0.53675839  0.55411644  1
  Al  Al19  1  0.77555572  0.43096898  0.30320631  1
  Al  Al20  1  0.88794545  0.54057381  0.05338653  1
  Al  Al21  1  0.44491115  0.42664242  0.80387853  1
  Al  Al22  1  0.55615597  0.53675837  0.55411644  1
  Al  Al23  1  0.10706612  0.75626277  0.30539664  1
  Al  Al24  1  0.77818324  0.76009821  0.80266679  1
  Al  Al25  1  0.88801131  0.87198006  0.55408682  1
  Al  Al26  1  0.45313588  0.75626273  0.30539665  1
  Al  Al27  1  0.56033834  0.86965232  0.05187675  1
  Al  Al28  1  0.11197376  0.75664636  0.80064529  1
  Al  Al29  1  0.22494265  0.86657941  0.54423903  1
  Al  Al30  1  0.77760465  0.76125543  0.30369429  1
  Al  Al31  1  0.88647403  0.86965230  0.05187675  1
  Al  Al32  1  0.44784454  0.75664638  0.80064526  1
  Al  Al33  1  0.55647337  0.87198006  0.55408681  1
  Sc  Sc34  1  0.11053429  0.09539628  0.79410426  1
  Sc  Sc35  1  0.22215884  0.87214711  0.06816424  1
  N  N36  1  0.22467729  0.20846696  0.35751614  1
  N  N37  1  0.87364087  0.21275442  0.86925022  1
  N  N38  1  0.77821594  0.09419253  0.61258178  1
  N  N39  1  0.55569162  0.20508150  0.36227463  1
  N  N40  1  0.44498945  0.09144738  0.11283414  1
  N  N41  1  0.23006941  0.21275446  0.86925023  1
  N  N42  1  0.11154528  0.09337418  0.58350951  1
  N  N43  1  0.88332051  0.20846694  0.35751612  1
  N  N44  1  0.78002783  0.09144737  0.11283413  1
  N  N45  1  0.55579721  0.20487024  0.86311810  1
  N  N46  1  0.44405625  0.09419253  0.61258179  1
  N  N47  1  0.22373172  0.53685266  0.36407908  1
  N  N48  1  0.10892615  0.42976609  0.11353159  1
  N  N49  1  0.88912480  0.53821515  0.86211717  1
  N  N50  1  0.77893562  0.42600844  0.61249508  1
  N  N51  1  0.55588043  0.53685263  0.36407908  1
  N  N52  1  0.44493075  0.42660319  0.11173321  1
  N  N53  1  0.22274116  0.53805760  0.86149734  1
  N  N54  1  0.11152070  0.42600844  0.61249508  1
  N  N55  1  0.88867856  0.53910765  0.36260344  1
  N  N56  1  0.77777246  0.42976609  0.11353159  1
  N  N57  1  0.55566595  0.53805763  0.86149734  1
  N  N58  1  0.44514956  0.42616563  0.61297569  1
  N  N59  1  0.22270845  0.87104788  0.34734268  1
  N  N60  1  0.10099157  0.74960347  0.11731477  1
  N  N61  1  0.88954634  0.87144789  0.86069125  1
  N  N62  1  0.77828180  0.75990111  0.61254530  1
  N  N63  1  0.55648811  0.87281550  0.36397109  1
  N  N64  1  0.46586970  0.74960344  0.11731478  1
  N  N65  1  0.23000800  0.85644870  0.85970845  1
  N  N66  1  0.11185155  0.76016546  0.60849172  1
  N  N67  1  0.88716112  0.87281551  0.36397109  1
  N  N68  1  0.77775740  0.76094986  0.11246389  1
  N  N69  1  0.55547045  0.87144791  0.86069127  1
  N  N70  1  0.44444770  0.76016547  0.60849170  1
  O  O71  1  0.09670647  0.12305172  0.11983972  1
