# generated using pymatgen
data_Sc2Al34N35O
_symmetry_space_group_name_H-M   'P 1'
_cell_length_a   9.78427345
_cell_length_b   9.79504526
_cell_length_c   8.97083810
_cell_angle_alpha   90.00279027
_cell_angle_beta   90.00001220
_cell_angle_gamma   60.03641315
_symmetry_Int_Tables_number   1
_chemical_formula_structural   Sc2Al34N35O
_chemical_formula_sum   'Sc2 Al34 N35 O1'
_cell_volume   744.83129266
_cell_formula_units_Z   1
loop_
 _symmetry_equiv_pos_site_id
 _symmetry_equiv_pos_as_xyz
  1  'x, y, z'
loop_
 _atom_site_type_symbol
 _atom_site_label
 _atom_site_symmetry_multiplicity
 _atom_site_fract_x
 _atom_site_fract_y
 _atom_site_fract_z
 _atom_site_occupancy
  Al  Al0  1  0.10963489  0.09738310  0.36995674  1
  Al  Al1  1  0.22661584  0.21436753  0.09390432  1
  Al  Al2  1  0.77386591  0.09507404  0.83607313  1
  Al  Al3  1  0.88068952  0.20946127  0.58220592  1
  Al  Al4  1  0.44826828  0.09128549  0.33767178  1
  Al  Al5  1  0.55645350  0.20374606  0.08775110  1
  Al  Al6  1  0.22650228  0.20946126  0.58220587  1
  Al  Al7  1  0.77709922  0.09128548  0.33767178  1
  Al  Al8  1  0.87566966  0.21436749  0.09390421  1
  Al  Al9  1  0.44771300  0.09507414  0.83607316  1
  Al  Al10  1  0.55504838  0.20655633  0.58520769  1
  Al  Al11  1  0.10919628  0.43103118  0.33798506  1
  Al  Al12  1  0.22134516  0.53603963  0.08565716  1
  Al  Al13  1  0.77430960  0.43081664  0.83529844  1
  Al  Al14  1  0.88847252  0.53970809  0.58712066  1
  Al  Al15  1  0.44486508  0.42692294  0.33479629  1
  Al  Al16  1  0.55926839  0.53603958  0.08565714  1
  Al  Al17  1  0.11152683  0.43081663  0.83529843  1
  Al  Al18  1  0.22528646  0.53565279  0.58736808  1
  Al  Al19  1  0.77642559  0.43103117  0.33798504  1
  Al  Al20  1  0.88851204  0.53962905  0.08641508  1
  Al  Al21  1  0.44524165  0.42616976  0.83914794  1
  Al  Al22  1  0.55571390  0.53565279  0.58736811  1
  Al  Al23  1  0.10711611  0.75650991  0.34426855  1
  Al  Al24  1  0.77838317  0.75988673  0.83729077  1
  Al  Al25  1  0.88674684  0.87200529  0.58851289  1
  Al  Al26  1  0.45302707  0.75650991  0.34426856  1
  Al  Al27  1  0.55960843  0.87018717  0.08486129  1
  Al  Al28  1  0.11086502  0.75645905  0.83281937  1
  Al  Al29  1  0.22520848  0.86623623  0.59024752  1
  Al  Al30  1  0.77783135  0.76099038  0.33582567  1
  Al  Al31  1  0.88685758  0.87018713  0.08486132  1
  Al  Al32  1  0.44932897  0.75645910  0.83281938  1
  Al  Al33  1  0.55790100  0.87200533  0.58851292  1
  Sc  Sc34  1  0.10838843  0.09987613  0.84046031  1
  Sc  Sc35  1  0.22406601  0.86852122  0.10568019  1
  N  N36  1  0.22321283  0.20586309  0.36381739  1
  N  N37  1  0.86889081  0.21551075  0.87743096  1
  N  N38  1  0.77696583  0.09488543  0.61958180  1
  N  N39  1  0.55546959  0.20571391  0.36994122  1
  N  N40  1  0.44668392  0.09083917  0.12321424  1
  N  N41  1  0.23225152  0.21551076  0.87743103  1
  N  N42  1  0.11000544  0.09664207  0.60017147  1
  N  N43  1  0.88757710  0.20586312  0.36381746  1
  N  N44  1  0.77912987  0.09083914  0.12321423  1
  N  N45  1  0.55620040  0.20425233  0.87281704  1
  N  N46  1  0.44480167  0.09488548  0.61958181  1
  N  N47  1  0.22508092  0.53543187  0.37345055  1
  N  N48  1  0.10858452  0.43047667  0.12396671  1
  N  N49  1  0.88966037  0.53733244  0.87032343  1
  N  N50  1  0.77814020  0.42734135  0.61934056  1
  N  N51  1  0.55614040  0.53543187  0.37345057  1
  N  N52  1  0.44475074  0.42715155  0.11882370  1
  N  N53  1  0.22218148  0.53879848  0.86973016  1
  N  N54  1  0.11117150  0.42734134  0.61934054  1
  N  N55  1  0.88822152  0.54021010  0.37237185  1
  N  N56  1  0.77759188  0.43047662  0.12396669  1
  N  N57  1  0.55567320  0.53879850  0.86973014  1
  N  N58  1  0.44545028  0.42575249  0.62379280  1
  N  N59  1  0.22201892  0.87261536  0.36403523  1
  N  N60  1  0.10158507  0.75048621  0.12700526  1
  N  N61  1  0.88932221  0.87246557  0.86834298  1
  N  N62  1  0.77840155  0.75984994  0.62356008  1
  N  N63  1  0.55819026  0.87209109  0.37446739  1
  N  N64  1  0.46458185  0.75048616  0.12700526  1
  N  N65  1  0.22987602  0.85690115  0.86166188  1
  N  N66  1  0.11078031  0.75913107  0.61527431  1
  N  N67  1  0.88637186  0.87209107  0.37446736  1
  N  N68  1  0.77799220  0.76066864  0.11940844  1
  N  N69  1  0.55486537  0.87246563  0.86834296  1
  N  N70  1  0.44674167  0.75913109  0.61527432  1
  O  O71  1  0.09910808  0.11843667  0.11196147  1
