# generated using pymatgen
data_Sc2Al34N35O
_symmetry_space_group_name_H-M   'P 1'
_cell_length_a   9.42817681
_cell_length_b   9.44104170
_cell_length_c   10.00588639
_cell_angle_alpha   90.06985805
_cell_angle_beta   89.99999355
_cell_angle_gamma   60.04506066
_symmetry_Int_Tables_number   1
_chemical_formula_structural   Sc2Al34N35O
_chemical_formula_sum   'Sc2 Al34 N35 O1'
_cell_volume   771.66787475
_cell_formula_units_Z   1
loop_
 _symmetry_equiv_pos_site_id
 _symmetry_equiv_pos_as_xyz
  1  'x, y, z'
loop_
 _atom_site_type_symbol
 _atom_site_label
 _atom_site_symmetry_multiplicity
 _atom_site_fract_x
 _atom_site_fract_y
 _atom_site_fract_z
 _atom_site_occupancy
  Al  Al0  1  0.11073290  0.09524025  0.40060259  1
  Al  Al1  1  0.22460843  0.21391793  0.14533503  1
  Al  Al2  1  0.77382936  0.09454188  0.88918062  1
  Al  Al3  1  0.87978130  0.20994523  0.63712318  1
  Al  Al4  1  0.44678175  0.09253780  0.38949332  1
  Al  Al5  1  0.55581085  0.20508426  0.13934096  1
  Al  Al6  1  0.22697944  0.20994521  0.63712321  1
  Al  Al7  1  0.77738645  0.09253780  0.38949333  1
  Al  Al8  1  0.87817964  0.21391790  0.14533504  1
  Al  Al9  1  0.44833475  0.09454188  0.88918062  1
  Al  Al10  1  0.55591969  0.20486658  0.63993343  1
  Al  Al11  1  0.10978537  0.42945031  0.38981364  1
  Al  Al12  1  0.22251719  0.53536398  0.13990861  1
  Al  Al13  1  0.77269617  0.43195666  0.88929237  1
  Al  Al14  1  0.88891915  0.53886768  0.63953145  1
  Al  Al15  1  0.44503420  0.42663762  0.38969943  1
  Al  Al16  1  0.55882484  0.53536394  0.13990859  1
  Al  Al17  1  0.11205318  0.43195664  0.88929241  1
  Al  Al18  1  0.22318346  0.53711106  0.63962114  1
  Al  Al19  1  0.77747035  0.42945029  0.38981362  1
  Al  Al20  1  0.88824837  0.54020923  0.13924274  1
  Al  Al21  1  0.44477541  0.42715518  0.88844059  1
  Al  Al22  1  0.55641146  0.53711107  0.63962110  1
  Al  Al23  1  0.10999904  0.75888228  0.39376900  1
  Al  Al24  1  0.77776673  0.76117255  0.88903055  1
  Al  Al25  1  0.88779568  0.87212290  0.63955056  1
  Al  Al26  1  0.44782474  0.75888226  0.39376899  1
  Al  Al27  1  0.56033290  0.86956892  0.14042144  1
  Al  Al28  1  0.10947240  0.75455865  0.88675456  1
  Al  Al29  1  0.22603635  0.86463328  0.63916974  1
  Al  Al30  1  0.77826563  0.76017476  0.39036525  1
  Al  Al31  1  0.88680422  0.86956890  0.14042145  1
  Al  Al32  1  0.45267499  0.75455864  0.88675452  1
  Al  Al33  1  0.55678741  0.87212291  0.63955055  1
  Sc  Sc34  1  0.10802384  0.10065824  0.87114098  1
  Sc  Sc35  1  0.22269448  0.87131712  0.13765238  1
  N  N36  1  0.22148155  0.20416809  0.33390509  1
  N  N37  1  0.86492862  0.21761102  0.82547714  1
  N  N38  1  0.77694816  0.09295631  0.57909074  1
  N  N39  1  0.55593869  0.20482863  0.32951892  1
  N  N40  1  0.44234261  0.09292595  0.08192219  1
  N  N41  1  0.23416632  0.21761098  0.82547717  1
  N  N42  1  0.11069110  0.09532376  0.59514168  1
  N  N43  1  0.89105641  0.20416806  0.33390509  1
  N  N44  1  0.78143743  0.09292595  0.08192221  1
  N  N45  1  0.55580085  0.20510426  0.83144804  1
  N  N46  1  0.44680152  0.09295631  0.57909073  1
  N  N47  1  0.22280311  0.53825009  0.33082069  1
  N  N48  1  0.11055806  0.42671940  0.08099953  1
  N  N49  1  0.88927588  0.53815424  0.83156638  1
  N  N50  1  0.77731845  0.42928287  0.57912918  1
  N  N51  1  0.55565284  0.53825007  0.33082067  1
  N  N52  1  0.44503317  0.42663963  0.08069724  1
  N  N53  1  0.22377014  0.53722062  0.82953875  1
  N  N54  1  0.11010470  0.42928286  0.57912921  1
  N  N55  1  0.88887710  0.53895181  0.32991161  1
  N  N56  1  0.77942859  0.42671935  0.08099951  1
  N  N57  1  0.55571522  0.53722064  0.82953872  1
  N  N58  1  0.44515759  0.42639082  0.58069532  1
  N  N59  1  0.22182947  0.87304713  0.34674245  1
  N  N60  1  0.10273570  0.75108877  0.07652388  1
  N  N61  1  0.88758261  0.87321408  0.83032646  1
  N  N62  1  0.77825930  0.76018743  0.58104284  1
  N  N63  1  0.55616329  0.87103275  0.33117391  1
  N  N64  1  0.46288165  0.75108872  0.07652384  1
  N  N65  1  0.23184420  0.85301763  0.83324681  1
  N  N66  1  0.11022935  0.75903826  0.58346695  1
  N  N67  1  0.88950999  0.87103276  0.33117391  1
  N  N68  1  0.77797880  0.76074844  0.08004132  1
  N  N69  1  0.55590932  0.87321409  0.83032644  1
  N  N70  1  0.44743841  0.75903827  0.58346694  1
  O  O71  1  0.09812658  0.12045286  0.08644228  1
