# generated using pymatgen
data_Sc2Al34N35O
_symmetry_space_group_name_H-M   'P 1'
_cell_length_a   9.53140364
_cell_length_b   9.54271445
_cell_length_c   9.73345451
_cell_angle_alpha   89.99057832
_cell_angle_beta   90.00002393
_cell_angle_gamma   60.03928009
_symmetry_Int_Tables_number   1
_chemical_formula_structural   Sc2Al34N35O
_chemical_formula_sum   'Sc2 Al34 N35 O1'
_cell_volume   767.00497440
_cell_formula_units_Z   1
loop_
 _symmetry_equiv_pos_site_id
 _symmetry_equiv_pos_as_xyz
  1  'x, y, z'
loop_
 _atom_site_type_symbol
 _atom_site_label
 _atom_site_symmetry_multiplicity
 _atom_site_fract_x
 _atom_site_fract_y
 _atom_site_fract_z
 _atom_site_occupancy
  Al  Al0  1  0.10882573  0.09900142  0.36307892  1
  Al  Al1  1  0.22547131  0.21492704  0.07927576  1
  Al  Al2  1  0.77384152  0.09480433  0.82736623  1
  Al  Al3  1  0.87985252  0.20958318  0.57308066  1
  Al  Al4  1  0.44757937  0.09217920  0.32700643  1
  Al  Al5  1  0.55613504  0.20438296  0.07734792  1
  Al  Al6  1  0.22721740  0.20958317  0.57308066  1
  Al  Al7  1  0.77689435  0.09217923  0.32700642  1
  Al  Al8  1  0.87625467  0.21492706  0.07927574  1
  Al  Al9  1  0.44800711  0.09480434  0.82736623  1
  Al  Al10  1  0.55549056  0.20567198  0.57640391  1
  Al  Al11  1  0.11002514  0.43020607  0.32691640  1
  Al  Al12  1  0.22168674  0.53587286  0.07578436  1
  Al  Al13  1  0.77409625  0.43117756  0.82685880  1
  Al  Al14  1  0.88873877  0.53917563  0.57714198  1
  Al  Al15  1  0.44493937  0.42677424  0.32655907  1
  Al  Al16  1  0.55909354  0.53587282  0.07578436  1
  Al  Al17  1  0.11137923  0.43117752  0.82685880  1
  Al  Al18  1  0.22416586  0.53650859  0.57799510  1
  Al  Al19  1  0.77642178  0.43020611  0.32691640  1
  Al  Al20  1  0.88830314  0.54004687  0.07709182  1
  Al  Al21  1  0.44495878  0.42673542  0.82830892  1
  Al  Al22  1  0.55597870  0.53650856  0.57799509  1
  Al  Al23  1  0.10642307  0.75510436  0.33033853  1
  Al  Al24  1  0.77829701  0.76005904  0.82687916  1
  Al  Al25  1  0.88755373  0.87195457  0.57842132  1
  Al  Al26  1  0.45512564  0.75510432  0.33033854  1
  Al  Al27  1  0.56027712  0.86978598  0.07530542  1
  Al  Al28  1  0.11205477  0.75726325  0.82530679  1
  Al  Al29  1  0.22625537  0.86414243  0.57098479  1
  Al  Al30  1  0.77779948  0.76105407  0.32681335  1
  Al  Al31  1  0.88659002  0.86978601  0.07530543  1
  Al  Al32  1  0.44733506  0.75726321  0.82530678  1
  Al  Al33  1  0.55714487  0.87195457  0.57842134  1
  Sc  Sc34  1  0.11019785  0.09625713  0.82281914  1
  Sc  Sc35  1  0.22245710  0.87173911  0.09853919  1
  N  N36  1  0.22503896  0.20780117  0.37740702  1
  N  N37  1  0.87073021  0.21461593  0.88632427  1
  N  N38  1  0.77721583  0.09429850  0.63134705  1
  N  N39  1  0.55579890  0.20505537  0.38060821  1
  N  N40  1  0.44517634  0.09148912  0.13194698  1
  N  N41  1  0.23130705  0.21461586  0.88632427  1
  N  N42  1  0.11145505  0.09374282  0.60159664  1
  N  N43  1  0.88381298  0.20780122  0.37740704  1
  N  N44  1  0.77998736  0.09148917  0.13194698  1
  N  N45  1  0.55579395  0.20506528  0.88252467  1
  N  N46  1  0.44513860  0.09429850  0.63134705  1
  N  N47  1  0.22433014  0.53576832  0.38346260  1
  N  N48  1  0.10917075  0.42966509  0.13272897  1
  N  N49  1  0.88925637  0.53814053  0.88103991  1
  N  N50  1  0.77827451  0.42737289  0.63114894  1
  N  N51  1  0.55655479  0.53576829  0.38346261  1
  N  N52  1  0.44480110  0.42705072  0.13028373  1
  N  N53  1  0.22253275  0.53879477  0.88039031  1
  N  N54  1  0.11100560  0.42737287  0.63114894  1
  N  N55  1  0.88873606  0.53918115  0.38159537  1
  N  N56  1  0.77781712  0.42966511  0.13272898  1
  N  N57  1  0.55532572  0.53879475  0.88039031  1
  N  N58  1  0.44528930  0.42607435  0.63250170  1
  N  N59  1  0.22353601  0.86958124  0.36722047  1
  N  N60  1  0.10032147  0.74928043  0.13702449  1
  N  N61  1  0.88935174  0.87198901  0.87933735  1
  N  N62  1  0.77837676  0.75989949  0.63216825  1
  N  N63  1  0.55725222  0.87260756  0.38378672  1
  N  N64  1  0.46705115  0.74928035  0.13702452  1
  N  N65  1  0.22999813  0.85665707  0.88071696  1
  N  N66  1  0.11159239  0.75997044  0.62786638  1
  N  N67  1  0.88679349  0.87260758  0.38378670  1
  N  N68  1  0.77784014  0.76097270  0.13096937  1
  N  N69  1  0.55531254  0.87198900  0.87933733  1
  N  N70  1  0.44509017  0.75997042  0.62786636  1
  O  O71  1  0.09678995  0.12307293  0.12715864  1
