# generated using pymatgen
data_Sc2Al34N35O
_symmetry_space_group_name_H-M   'P 1'
_cell_length_a   9.42218631
_cell_length_b   9.43726368
_cell_length_c   10.01468090
_cell_angle_alpha   89.87997916
_cell_angle_beta   90.00000065
_cell_angle_gamma   60.05283940
_symmetry_Int_Tables_number   1
_chemical_formula_structural   Sc2Al34N35O
_chemical_formula_sum   'Sc2 Al34 N35 O1'
_cell_volume   771.60537975
_cell_formula_units_Z   1
loop_
 _symmetry_equiv_pos_site_id
 _symmetry_equiv_pos_as_xyz
  1  'x, y, z'
loop_
 _atom_site_type_symbol
 _atom_site_label
 _atom_site_symmetry_multiplicity
 _atom_site_fract_x
 _atom_site_fract_y
 _atom_site_fract_z
 _atom_site_occupancy
  Al  Al0  1  0.10762188  0.10118899  0.31752159  1
  Al  Al1  1  0.22563034  0.21542834  0.05229219  1
  Al  Al2  1  0.77464346  0.09438236  0.80035152  1
  Al  Al3  1  0.88271088  0.20808433  0.54369596  1
  Al  Al4  1  0.44726474  0.09277547  0.29977106  1
  Al  Al5  1  0.55597203  0.20448867  0.04957337  1
  Al  Al6  1  0.22563750  0.20808434  0.54369600  1
  Al  Al7  1  0.77639253  0.09277547  0.29977104  1
  Al  Al8  1  0.87537392  0.21542834  0.05229220  1
  Al  Al9  1  0.44740684  0.09438238  0.80035152  1
  Al  Al10  1  0.55560324  0.20522630  0.54996380  1
  Al  Al11  1  0.10992452  0.43096693  0.29951018  1
  Al  Al12  1  0.22192542  0.53582959  0.04848119  1
  Al  Al13  1  0.77487336  0.43008024  0.80001219  1
  Al  Al14  1  0.88895610  0.53852050  0.55005395  1
  Al  Al15  1  0.44472118  0.42699045  0.30000514  1
  Al  Al16  1  0.55867770  0.53582957  0.04848117  1
  Al  Al17  1  0.11147910  0.43008023  0.80001218  1
  Al  Al18  1  0.22353461  0.53675773  0.55041759  1
  Al  Al19  1  0.77554133  0.43096689  0.29951014  1
  Al  Al20  1  0.88793051  0.54057160  0.04969211  1
  Al  Al21  1  0.44489561  0.42664157  0.80018219  1
  Al  Al22  1  0.55614047  0.53675770  0.55041757  1
  Al  Al23  1  0.10705123  0.75626123  0.30169416  1
  Al  Al24  1  0.77816774  0.76009717  0.79897445  1
  Al  Al25  1  0.88799674  0.87197764  0.55038859  1
  Al  Al26  1  0.45312030  0.75626116  0.30169416  1
  Al  Al27  1  0.56032351  0.86965173  0.04818404  1
  Al  Al28  1  0.11195819  0.75664428  0.79695091  1
  Al  Al29  1  0.22492773  0.86657724  0.54054324  1
  Al  Al30  1  0.77758986  0.76125298  0.29999984  1
  Al  Al31  1  0.88645738  0.86965174  0.04818406  1
  Al  Al32  1  0.44783019  0.75664425  0.79695090  1
  Al  Al33  1  0.55645834  0.87197760  0.55038858  1
  Sc  Sc34  1  0.11051922  0.09539401  0.79040524  1
  Sc  Sc35  1  0.22214329  0.87214622  0.06446655  1
  N  N36  1  0.22466176  0.20846487  0.35381623  1
  N  N37  1  0.87362529  0.21275294  0.86554910  1
  N  N38  1  0.77820160  0.09419052  0.60888363  1
  N  N39  1  0.55567661  0.20507955  0.35857985  1
  N  N40  1  0.44497305  0.09144718  0.10913804  1
  N  N41  1  0.23005431  0.21275284  0.86554905  1
  N  N42  1  0.11152997  0.09337270  0.57981075  1
  N  N43  1  0.88330610  0.20846487  0.35381622  1
  N  N44  1  0.78001243  0.09144721  0.10913802  1
  N  N45  1  0.55578203  0.20486877  0.85942176  1
  N  N46  1  0.44404066  0.09419052  0.60888358  1
  N  N47  1  0.22371576  0.53685196  0.36038079  1
  N  N48  1  0.10891123  0.42976313  0.10983588  1
  N  N49  1  0.88910978  0.53821304  0.85842233  1
  N  N50  1  0.77891988  0.42600663  0.60879747  1
  N  N51  1  0.55586513  0.53685192  0.36038078  1
  N  N52  1  0.44491598  0.42660081  0.10803970  1
  N  N53  1  0.22272640  0.53805555  0.85780390  1
  N  N54  1  0.11150616  0.42600670  0.60879740  1
  N  N55  1  0.88866350  0.53910567  0.35890865  1
  N  N56  1  0.77775828  0.42976310  0.10983585  1
  N  N57  1  0.55565085  0.53805550  0.85780394  1
  N  N58  1  0.44513385  0.42616512  0.60927872  1
  N  N59  1  0.22269363  0.87104554  0.34364398  1
  N  N60  1  0.10097643  0.74960210  0.11361548  1
  N  N61  1  0.88953060  0.87144708  0.85699786  1
  N  N62  1  0.77826623  0.75990026  0.60885105  1
  N  N63  1  0.55647233  0.87281340  0.36027310  1
  N  N64  1  0.46585425  0.74960196  0.11361548  1
  N  N65  1  0.22999245  0.85644778  0.85601205  1
  N  N66  1  0.11183610  0.76016382  0.60479604  1
  N  N67  1  0.88714694  0.87281345  0.36027313  1
  N  N68  1  0.77774248  0.76094764  0.10877050  1
  N  N69  1  0.55545502  0.87144702  0.85699787  1
  N  N70  1  0.44443278  0.76016374  0.60479604  1
  O  O71  1  0.09669096  0.12305064  0.11613872  1
