# generated using pymatgen
data_Sc2Al34N35O
_symmetry_space_group_name_H-M   'P 1'
_cell_length_a   9.59281224
_cell_length_b   9.60677754
_cell_length_c   9.54699650
_cell_angle_alpha   90.06036931
_cell_angle_beta   89.99997737
_cell_angle_gamma   60.04801625
_symmetry_Int_Tables_number   1
_chemical_formula_structural   Sc2Al34N35O
_chemical_formula_sum   'Sc2 Al34 N35 O1'
_cell_volume   762.30835359
_cell_formula_units_Z   1
loop_
 _symmetry_equiv_pos_site_id
 _symmetry_equiv_pos_as_xyz
  1  'x, y, z'
loop_
 _atom_site_type_symbol
 _atom_site_label
 _atom_site_symmetry_multiplicity
 _atom_site_fract_x
 _atom_site_fract_y
 _atom_site_fract_z
 _atom_site_occupancy
  Al  Al0  1  0.11083365  0.09498627  0.39149153  1
  Al  Al1  1  0.22367091  0.21289105  0.13302579  1
  Al  Al2  1  0.77391188  0.09387747  0.88082992  1
  Al  Al3  1  0.87632864  0.21161074  0.62747226  1
  Al  Al4  1  0.44648589  0.09285529  0.37824518  1
  Al  Al5  1  0.55552525  0.20560306  0.12915998  1
  Al  Al6  1  0.22871409  0.21161076  0.62747225  1
  Al  Al7  1  0.77731239  0.09285526  0.37824519  1
  Al  Al8  1  0.88009155  0.21289104  0.13302579  1
  Al  Al9  1  0.44886423  0.09387754  0.88082992  1
  Al  Al10  1  0.55608023  0.20449304  0.63075037  1
  Al  Al11  1  0.10934289  0.42937712  0.37902581  1
  Al  Al12  1  0.22306437  0.53476688  0.13152811  1
  Al  Al13  1  0.77247614  0.43214906  0.88075694  1
  Al  Al14  1  0.88907503  0.53850346  0.63020399  1
  Al  Al15  1  0.44526341  0.42612677  0.38060662  1
  Al  Al16  1  0.55882223  0.53476691  0.13152809  1
  Al  Al17  1  0.11202837  0.43214909  0.88075694  1
  Al  Al18  1  0.22313209  0.53712487  0.62883392  1
  Al  Al19  1  0.77793358  0.42937712  0.37902581  1
  Al  Al20  1  0.88789748  0.54085854  0.12928965  1
  Al  Al21  1  0.44477082  0.42711195  0.87834814  1
  Al  Al22  1  0.55639657  0.53712486  0.62883393  1
  Al  Al23  1  0.11037102  0.75977170  0.38148680  1
  Al  Al24  1  0.77767505  0.76130341  0.87811531  1
  Al  Al25  1  0.88774807  0.87258352  0.62880799  1
  Al  Al26  1  0.44651083  0.75977171  0.38148680  1
  Al  Al27  1  0.56109311  0.86917846  0.13160334  1
  Al  Al28  1  0.10838541  0.75337139  0.87746027  1
  Al  Al29  1  0.22701401  0.86262544  0.62934584  1
  Al  Al30  1  0.77838140  0.75989074  0.38191577  1
  Al  Al31  1  0.88638190  0.86917840  0.13160335  1
  Al  Al32  1  0.45489673  0.75337142  0.87746026  1
  Al  Al33  1  0.55632189  0.87258355  0.62880799  1
  Sc  Sc34  1  0.10758573  0.10148219  0.84953213  1
  Sc  Sc35  1  0.22234159  0.87197014  0.11569121  1
  N  N36  1  0.22076847  0.20391139  0.33114327  1
  N  N37  1  0.86355243  0.21809383  0.82564126  1
  N  N38  1  0.77634433  0.09335596  0.57642107  1
  N  N39  1  0.55570196  0.20524952  0.32737017  1
  N  N40  1  0.44319679  0.09230481  0.08128607  1
  N  N41  1  0.23500716  0.21809386  0.82564124  1
  N  N42  1  0.11059768  0.09545826  0.59648609  1
  N  N43  1  0.89197360  0.20391137  0.33114326  1
  N  N44  1  0.78115214  0.09230476  0.08128607  1
  N  N45  1  0.55610679  0.20443990  0.83060730  1
  N  N46  1  0.44695336  0.09335597  0.57642106  1
  N  N47  1  0.22328440  0.53784204  0.33038860  1
  N  N48  1  0.11042582  0.42743191  0.08040912  1
  N  N49  1  0.88948969  0.53767408  0.83023797  1
  N  N50  1  0.77732303  0.42956155  0.57680356  1
  N  N51  1  0.55552700  0.53784206  0.33038859  1
  N  N52  1  0.44481314  0.42702741  0.07873645  1
  N  N53  1  0.22366349  0.53698144  0.82712826  1
  N  N54  1  0.10976909  0.42956159  0.57680356  1
  N  N55  1  0.88847792  0.53969761  0.32817356  1
  N  N56  1  0.77879595  0.42743189  0.08040911  1
  N  N57  1  0.55600854  0.53698146  0.82712828  1
  N  N58  1  0.44543903  0.42577564  0.57967227  1
  N  N59  1  0.22085738  0.87493867  0.33928369  1
  N  N60  1  0.10175407  0.74957855  0.07656589  1
  N  N61  1  0.88754609  0.87344402  0.82781678  1
  N  N62  1  0.77838484  0.75988397  0.58054983  1
  N  N63  1  0.55687598  0.87094760  0.33050178  1
  N  N64  1  0.46532094  0.74957863  0.07656590  1
  N  N65  1  0.23200958  0.85263421  0.83787574  1
  N  N66  1  0.11061041  0.75942850  0.58094824  1
  N  N67  1  0.88882987  0.87094758  0.33050179  1
  N  N68  1  0.77785366  0.76094629  0.07745611  1
  N  N69  1  0.55566325  0.87344408  0.82781679  1
  N  N70  1  0.44661475  0.75942850  0.58094826  1
  O  O71  1  0.09731839  0.12201690  0.07793557  1
