# generated using pymatgen
data_Sc2Al34N35O
_symmetry_space_group_name_H-M   'P 1'
_cell_length_a   9.43250906
_cell_length_b   9.44557266
_cell_length_c   9.99426625
_cell_angle_alpha   90.06922575
_cell_angle_beta   89.99999576
_cell_angle_gamma   60.04573777
_symmetry_Int_Tables_number   1
_chemical_formula_structural   Sc2Al34N35O
_chemical_formula_sum   'Sc2 Al34 N35 O1'
_cell_volume   771.50123079
_cell_formula_units_Z   1
loop_
 _symmetry_equiv_pos_site_id
 _symmetry_equiv_pos_as_xyz
  1  'x, y, z'
loop_
 _atom_site_type_symbol
 _atom_site_label
 _atom_site_symmetry_multiplicity
 _atom_site_fract_x
 _atom_site_fract_y
 _atom_site_fract_z
 _atom_site_occupancy
  Al  Al0  1  0.11076059  0.09514846  0.39641524  1
  Al  Al1  1  0.22450221  0.21386553  0.14093162  1
  Al  Al2  1  0.77380544  0.09450607  0.88498880  1
  Al  Al3  1  0.87950856  0.21006264  0.63283809  1
  Al  Al4  1  0.44675584  0.09253899  0.38515559  1
  Al  Al5  1  0.55579217  0.20508531  0.13507134  1
  Al  Al6  1  0.22709843  0.21006264  0.63283811  1
  Al  Al7  1  0.77737482  0.09253898  0.38515559  1
  Al  Al8  1  0.87830189  0.21386552  0.14093162  1
  Al  Al9  1  0.44835811  0.09450607  0.88498881  1
  Al  Al10  1  0.55591953  0.20483056  0.63571438  1
  Al  Al11  1  0.10974388  0.42944906  0.38549619  1
  Al  Al12  1  0.22255136  0.53530890  0.13574023  1
  Al  Al13  1  0.77262736  0.43198060  0.88510203  1
  Al  Al14  1  0.88891039  0.53884884  0.63530229  1
  Al  Al15  1  0.44503591  0.42659782  0.38548594  1
  Al  Al16  1  0.55880938  0.53530890  0.13574023  1
  Al  Al17  1  0.11206165  0.43198061  0.88510203  1
  Al  Al18  1  0.22315754  0.53712929  0.63531385  1
  Al  Al19  1  0.77747671  0.42944906  0.38549619  1
  Al  Al20  1  0.88821713  0.54023537  0.13497103  1
  Al  Al21  1  0.44476203  0.42714556  0.88416459  1
  Al  Al22  1  0.55638279  0.53712928  0.63531385  1
  Al  Al23  1  0.11004849  0.75895126  0.38933791  1
  Al  Al24  1  0.77774983  0.76116996  0.88473850  1
  Al  Al25  1  0.88780250  0.87212361  0.63523942  1
  Al  Al26  1  0.44766992  0.75895125  0.38933791  1
  Al  Al27  1  0.56036166  0.86953650  0.13622654  1
  Al  Al28  1  0.10938299  0.75446197  0.88258875  1
  Al  Al29  1  0.22612199  0.86442566  0.63510805  1
  Al  Al30  1  0.77825821  0.76015324  0.38616435  1
  Al  Al31  1  0.88677149  0.86953647  0.13622654  1
  Al  Al32  1  0.45282467  0.75446197  0.88258876  1
  Al  Al33  1  0.55674353  0.87212360  0.63523942  1
  Sc  Sc34  1  0.10793135  0.10080689  0.86594849  1
  Sc  Sc35  1  0.22258058  0.87150839  0.13264363  1
  N  N36  1  0.22140730  0.20413271  0.32977361  1
  N  N37  1  0.86463947  0.21773757  0.82138831  1
  N  N38  1  0.77689846  0.09294948  0.57493741  1
  N  N39  1  0.55591570  0.20483823  0.32540971  1
  N  N40  1  0.44234772  0.09288008  0.07787868  1
  N  N41  1  0.23429258  0.21773755  0.82138832  1
  N  N42  1  0.11069720  0.09527525  0.59142598  1
  N  N43  1  0.89112966  0.20413271  0.32977360  1
  N  N44  1  0.78144184  0.09288007  0.07787869  1
  N  N45  1  0.55580607  0.20505742  0.82740026  1
  N  N46  1  0.44682170  0.09294947  0.57493742  1
  N  N47  1  0.22282260  0.53821868  0.32679628  1
  N  N48  1  0.11054659  0.42675161  0.07696198  1
  N  N49  1  0.88927978  0.53811006  0.82750833  1
  N  N50  1  0.77728800  0.42931899  0.57499232  1
  N  N51  1  0.55562835  0.53821869  0.32679628  1
  N  N52  1  0.44502129  0.42662706  0.07659748  1
  N  N53  1  0.22374413  0.53723097  0.82541037  1
  N  N54  1  0.11006265  0.42931898  0.57499233  1
  N  N55  1  0.88884133  0.53898699  0.32580863  1
  N  N56  1  0.77937144  0.42675162  0.07696198  1
  N  N57  1  0.55569450  0.53723100  0.82541038  1
  N  N58  1  0.44516100  0.42634763  0.57664803  1
  N  N59  1  0.22174869  0.87317229  0.34215817  1
  N  N60  1  0.10266056  0.75095944  0.07252369  1
  N  N61  1  0.88757568  0.87321116  0.82619961  1
  N  N62  1  0.77825362  0.76016239  0.57700446  1
  N  N63  1  0.55618340  0.87101644  0.32713157  1
  N  N64  1  0.46304962  0.75095947  0.07252372  1
  N  N65  1  0.23188654  0.85289658  0.82955377  1
  N  N66  1  0.11026550  0.75907189  0.57929971  1
  N  N67  1  0.88946981  0.87101643  0.32713157  1
  N  N68  1  0.77795447  0.76076066  0.07592427  1
  N  N69  1  0.55588276  0.87321117  0.82619962  1
  N  N70  1  0.44733228  0.75907189  0.57929971  1
  O  O71  1  0.09799765  0.12067437  0.08170727  1
