# generated using pymatgen
data_Sc2Al34N35O
_symmetry_space_group_name_H-M   'P 1'
_cell_length_a   9.91036642
_cell_length_b   9.92162132
_cell_length_c   8.57028344
_cell_angle_alpha   90.00542552
_cell_angle_beta   90.00000003
_cell_angle_gamma   60.03752387
_symmetry_Int_Tables_number   1
_chemical_formula_structural   Sc2Al34N35O
_chemical_formula_sum   'Sc2 Al34 N35 O1'
_cell_volume   730.06623522
_cell_formula_units_Z   1
loop_
 _symmetry_equiv_pos_site_id
 _symmetry_equiv_pos_as_xyz
  1  'x, y, z'
loop_
 _atom_site_type_symbol
 _atom_site_label
 _atom_site_symmetry_multiplicity
 _atom_site_fract_x
 _atom_site_fract_y
 _atom_site_fract_z
 _atom_site_occupancy
  Al  Al0  1  0.10946002  0.09773294  0.36855030  1
  Al  Al1  1  0.22685423  0.21389611  0.10318896  1
  Al  Al2  1  0.77414125  0.09444832  0.84608572  1
  Al  Al3  1  0.88145929  0.20920213  0.59227102  1
  Al  Al4  1  0.44776302  0.09162741  0.34749313  1
  Al  Al5  1  0.55620310  0.20424688  0.09786179  1
  Al  Al6  1  0.22599159  0.20920213  0.59227097  1
  Al  Al7  1  0.77726260  0.09162736  0.34749314  1
  Al  Al8  1  0.87590278  0.21389598  0.10318894  1
  Al  Al9  1  0.44806337  0.09444842  0.84608575  1
  Al  Al10  1  0.55521001  0.20623303  0.59509327  1
  Al  Al11  1  0.10921999  0.43064446  0.34786346  1
  Al  Al12  1  0.22210850  0.53556902  0.09669075  1
  Al  Al13  1  0.77430045  0.43116400  0.84525763  1
  Al  Al14  1  0.88867134  0.53931041  0.59660876  1
  Al  Al15  1  0.44491839  0.42681639  0.34572663  1
  Al  Al16  1  0.55897566  0.53556898  0.09669072  1
  Al  Al17  1  0.11118860  0.43116403  0.84525759  1
  Al  Al18  1  0.22481806  0.53611192  0.59660108  1
  Al  Al19  1  0.77678867  0.43064440  0.34786344  1
  Al  Al20  1  0.88839688  0.53985933  0.09675140  1
  Al  Al21  1  0.44521351  0.42622610  0.84778520  1
  Al  Al22  1  0.55572316  0.53611194  0.59660110  1
  Al  Al23  1  0.10784404  0.75752063  0.35359038  1
  Al  Al24  1  0.77826502  0.76012301  0.84622627  1
  Al  Al25  1  0.88724961  0.87203810  0.59757571  1
  Al  Al26  1  0.45128844  0.75752064  0.35359037  1
  Al  Al27  1  0.55977967  0.87041901  0.09606042  1
  Al  Al28  1  0.11012628  0.75602272  0.84296712  1
  Al  Al29  1  0.22509025  0.86647263  0.59973680  1
  Al  Al30  1  0.77797933  0.76069443  0.34705983  1
  Al  Al31  1  0.88645448  0.87041893  0.09606042  1
  Al  Al32  1  0.45050401  0.75602279  0.84296711  1
  Al  Al33  1  0.55736539  0.87203816  0.59757572  1
  Sc  Sc34  1  0.10817678  0.10029951  0.84510445  1
  Sc  Sc35  1  0.22457799  0.86749719  0.10689903  1
  N  N36  1  0.22262903  0.20536347  0.35504751  1
  N  N37  1  0.87007932  0.21490989  0.86699668  1
  N  N38  1  0.77713809  0.09471617  0.60942852  1
  N  N39  1  0.55556694  0.20551917  0.36030200  1
  N  N40  1  0.44653713  0.09131105  0.11369308  1
  N  N41  1  0.23166378  0.21490996  0.86699672  1
  N  N42  1  0.10937253  0.09790792  0.59816629  1
  N  N43  1  0.88866052  0.20536344  0.35504751  1
  N  N44  1  0.77880489  0.09131096  0.11369307  1
  N  N45  1  0.55612106  0.20441093  0.86287148  1
  N  N46  1  0.44479872  0.09471623  0.60942853  1
  N  N47  1  0.22448798  0.53623847  0.36318103  1
  N  N48  1  0.10882673  0.43008221  0.11419917  1
  N  N49  1  0.88953845  0.53757620  0.86065687  1
  N  N50  1  0.77798976  0.42749250  0.60933231  1
  N  N51  1  0.55592670  0.53623848  0.36318103  1
  N  N52  1  0.44482299  0.42700717  0.11002628  1
  N  N53  1  0.22273364  0.53815807  0.86006275  1
  N  N54  1  0.11117084  0.42749252  0.60933227  1
  N  N55  1  0.88830636  0.54004033  0.36259432  1
  N  N56  1  0.77774425  0.43008209  0.11419912  1
  N  N57  1  0.55576137  0.53815811  0.86006273  1
  N  N58  1  0.44539313  0.42586688  0.61307507  1
  N  N59  1  0.22131253  0.87402806  0.36280048  1
  N  N60  1  0.10265897  0.75133000  0.11498271  1
  N  N61  1  0.88883239  0.87261845  0.85903765  1
  N  N62  1  0.77832876  0.75999557  0.61329566  1
  N  N63  1  0.55780407  0.87183587  0.36401111  1
  N  N64  1  0.46266419  0.75132997  0.11498272  1
  N  N65  1  0.22957299  0.85750707  0.85099085  1
  N  N66  1  0.11052045  0.75899304  0.60697654  1
  N  N67  1  0.88701321  0.87183582  0.36401110  1
  N  N68  1  0.77811141  0.76043025  0.10994969  1
  N  N69  1  0.55520218  0.87261853  0.85903766  1
  N  N70  1  0.44713962  0.75899307  0.60697654  1
  O  O71  1  0.10015310  0.11634686  0.10995648  1
