# generated using pymatgen
data_Sc2Al34N35O
_symmetry_space_group_name_H-M   'P 1'
_cell_length_a   9.42218881
_cell_length_b   9.43726852
_cell_length_c   10.01465565
_cell_angle_alpha   89.87996607
_cell_angle_beta   90.00000070
_cell_angle_gamma   60.05284747
_symmetry_Int_Tables_number   1
_chemical_formula_structural   Sc2Al34N35O
_chemical_formula_sum   'Sc2 Al34 N35 O1'
_cell_volume   771.60409717
_cell_formula_units_Z   1
loop_
 _symmetry_equiv_pos_site_id
 _symmetry_equiv_pos_as_xyz
  1  'x, y, z'
loop_
 _atom_site_type_symbol
 _atom_site_label
 _atom_site_symmetry_multiplicity
 _atom_site_fract_x
 _atom_site_fract_y
 _atom_site_fract_z
 _atom_site_occupancy
  Al  Al0  1  0.10766855  0.10119381  0.32885807  1
  Al  Al1  1  0.22567651  0.21543215  0.06362682  1
  Al  Al2  1  0.77469059  0.09438751  0.81167988  1
  Al  Al3  1  0.88275627  0.20808977  0.55502876  1
  Al  Al4  1  0.44731163  0.09277973  0.31109752  1
  Al  Al5  1  0.55601874  0.20449338  0.06089858  1
  Al  Al6  1  0.22568485  0.20808978  0.55502876  1
  Al  Al7  1  0.77643953  0.09277972  0.31109753  1
  Al  Al8  1  0.87542217  0.21543215  0.06362683  1
  Al  Al9  1  0.44745275  0.09438753  0.81167986  1
  Al  Al10  1  0.55564984  0.20523123  0.56128880  1
  Al  Al11  1  0.10997154  0.43097178  0.31083630  1
  Al  Al12  1  0.22197172  0.53583531  0.05980549  1
  Al  Al13  1  0.77492116  0.43008385  0.81133956  1
  Al  Al14  1  0.88900288  0.53852516  0.56137883  1
  Al  Al15  1  0.44476769  0.42699554  0.31132990  1
  Al  Al16  1  0.55872384  0.53583532  0.05980549  1
  Al  Al17  1  0.11152589  0.43008385  0.81133956  1
  Al  Al18  1  0.22358158  0.53676206  0.56174619  1
  Al  Al19  1  0.77558761  0.43097177  0.31083630  1
  Al  Al20  1  0.88797710  0.54057668  0.06101646  1
  Al  Al21  1  0.44494263  0.42664563  0.81150814  1
  Al  Al22  1  0.55618728  0.53676205  0.56174618  1
  Al  Al23  1  0.10709801  0.75626559  0.31302707  1
  Al  Al24  1  0.77821469  0.76010148  0.81029768  1
  Al  Al25  1  0.88804308  0.87198298  0.56171673  1
  Al  Al26  1  0.45316731  0.75626557  0.31302708  1
  Al  Al27  1  0.56036995  0.86965557  0.05950888  1
  Al  Al28  1  0.11200509  0.75664922  0.80827893  1
  Al  Al29  1  0.22497479  0.86658128  0.55187227  1
  Al  Al30  1  0.77763644  0.76125800  0.31132444  1
  Al  Al31  1  0.88650534  0.86965556  0.05950890  1
  Al  Al32  1  0.44787653  0.75664921  0.80827891  1
  Al  Al33  1  0.55650483  0.87198298  0.56171673  1
  Sc  Sc34  1  0.11056597  0.09539889  0.80173499  1
  Sc  Sc35  1  0.22218989  0.87215119  0.07579668  1
  N  N36  1  0.22470925  0.20847023  0.36514698  1
  N  N37  1  0.87367276  0.21275731  0.87688111  1
  N  N38  1  0.77824737  0.09419553  0.62021197  1
  N  N39  1  0.55572325  0.20508438  0.36990497  1
  N  N40  1  0.44502091  0.09145085  0.12046477  1
  N  N41  1  0.23010080  0.21275733  0.87688112  1
  N  N42  1  0.11157665  0.09337758  0.59113902  1
  N  N43  1  0.88335142  0.20847022  0.36514697  1
  N  N44  1  0.78005907  0.09145085  0.12046477  1
  N  N45  1  0.55582872  0.20487345  0.87074783  1
  N  N46  1  0.44408798  0.09419554  0.62021196  1
  N  N47  1  0.22376315  0.53685569  0.37170909  1
  N  N48  1  0.10895747  0.42976905  0.12116219  1
  N  N49  1  0.88915635  0.53821819  0.86974747  1
  N  N50  1  0.77896672  0.42601204  0.62012533  1
  N  N51  1  0.55591210  0.53685567  0.37170909  1
  N  N52  1  0.44496255  0.42660577  0.11936425  1
  N  N53  1  0.22277310  0.53806011  0.86912913  1
  N  N54  1  0.11155214  0.42601205  0.62012533  1
  N  N55  1  0.88871017  0.53911059  0.37023375  1
  N  N56  1  0.77780435  0.42976904  0.12116218  1
  N  N57  1  0.55569769  0.53806011  0.86912914  1
  N  N58  1  0.44518088  0.42616914  0.62060537  1
  N  N59  1  0.22274059  0.87104974  0.35497538  1
  N  N60  1  0.10102332  0.74960653  0.12494561  1
  N  N61  1  0.88957739  0.87145125  0.86832353  1
  N  N62  1  0.77831312  0.75990464  0.62017588  1
  N  N63  1  0.55651964  0.87281844  0.37160114  1
  N  N64  1  0.46590107  0.74960650  0.12494561  1
  N  N65  1  0.23003926  0.85645233  0.86734091  1
  N  N66  1  0.11188269  0.76016847  0.61612438  1
  N  N67  1  0.88719281  0.87281844  0.37160114  1
  N  N68  1  0.77778916  0.76095253  0.12009485  1
  N  N69  1  0.55550221  0.87145126  0.86832350  1
  N  N70  1  0.44447970  0.76016847  0.61612436  1
  O  O71  1  0.09673802  0.12305476  0.12747246  1
