# generated using pymatgen
data_Sc2Al34N35O
_symmetry_space_group_name_H-M   'P 1'
_cell_length_a   9.63902191
_cell_length_b   9.64934502
_cell_length_c   9.42302834
_cell_angle_alpha   90.00055770
_cell_angle_beta   90.00002244
_cell_angle_gamma   60.03545833
_symmetry_Int_Tables_number   1
_chemical_formula_structural   Sc2Al34N35O
_chemical_formula_sum   'Sc2 Al34 N35 O1'
_cell_volume   759.28880205
_cell_formula_units_Z   1
loop_
 _symmetry_equiv_pos_site_id
 _symmetry_equiv_pos_as_xyz
  1  'x, y, z'
loop_
 _atom_site_type_symbol
 _atom_site_label
 _atom_site_symmetry_multiplicity
 _atom_site_fract_x
 _atom_site_fract_y
 _atom_site_fract_z
 _atom_site_occupancy
  Al  Al0  1  0.10926011  0.09813262  0.36886676  1
  Al  Al1  1  0.22611325  0.21483805  0.08403193  1
  Al  Al2  1  0.77367148  0.09500922  0.82995172  1
  Al  Al3  1  0.87975551  0.20973715  0.57631289  1
  Al  Al4  1  0.44792068  0.09172237  0.33052817  1
  Al  Al5  1  0.55631477  0.20402352  0.08070962  1
  Al  Al6  1  0.22716044  0.20973714  0.57631286  1
  Al  Al7  1  0.77700989  0.09172238  0.33052817  1
  Al  Al8  1  0.87570175  0.21483805  0.08403187  1
  Al  Al9  1  0.44797226  0.09500928  0.82995172  1
  Al  Al10  1  0.55525571  0.20614170  0.57907189  1
  Al  Al11  1  0.10964397  0.43051496  0.33061502  1
  Al  Al12  1  0.22137273  0.53604786  0.07878996  1
  Al  Al13  1  0.77400132  0.43113049  0.82935672  1
  Al  Al14  1  0.88856342  0.53952634  0.58038561  1
  Al  Al15  1  0.44492178  0.42680945  0.32885244  1
  Al  Al16  1  0.55923258  0.53604782  0.07878996  1
  Al  Al17  1  0.11152124  0.43113046  0.82935672  1
  Al  Al18  1  0.22479028  0.53602509  0.58104493  1
  Al  Al19  1  0.77649407  0.43051498  0.33061503  1
  Al  Al20  1  0.88843357  0.53978602  0.07998074  1
  Al  Al21  1  0.44507643  0.42650013  0.83209698  1
  Al  Al22  1  0.55583780  0.53602507  0.58104494  1
  Al  Al23  1  0.10644482  0.75542176  0.33518010  1
  Al  Al24  1  0.77836205  0.75992895  0.83044330  1
  Al  Al25  1  0.88704576  0.87199111  0.58183331  1
  Al  Al26  1  0.45478648  0.75542175  0.33518009  1
  Al  Al27  1  0.55998534  0.86987023  0.07816387  1
  Al  Al28  1  0.11170049  0.75704582  0.82747241  1
  Al  Al29  1  0.22591163  0.86482993  0.57782296  1
  Al  Al30  1  0.77779636  0.76106031  0.32943648  1
  Al  Al31  1  0.88679758  0.86987021  0.07816389  1
  Al  Al32  1  0.44790677  0.75704580  0.82747242  1
  Al  Al33  1  0.55761628  0.87199114  0.58183334  1
  Sc  Sc34  1  0.10935917  0.09793455  0.83152076  1
  Sc  Sc35  1  0.22316204  0.87032917  0.10256508  1
  N  N36  1  0.22424627  0.20687684  0.37279164  1
  N  N37  1  0.86892698  0.21548974  0.88326191  1
  N  N38  1  0.77694071  0.09455959  0.62728956  1
  N  N39  1  0.55563972  0.20537372  0.37695669  1
  N  N40  1  0.44592337  0.09110776  0.12918246  1
  N  N41  1  0.23223646  0.21548971  0.88326194  1
  N  N42  1  0.11093209  0.09478874  0.60144427  1
  N  N43  1  0.88552995  0.20687690  0.37279169  1
  N  N44  1  0.77962175  0.09110777  0.12918245  1
  N  N45  1  0.55599300  0.20466722  0.87933830  1
  N  N46  1  0.44515260  0.09455962  0.62728956  1
  N  N47  1  0.22480091  0.53538536  0.38021125  1
  N  N48  1  0.10889376  0.43006618  0.12996861  1
  N  N49  1  0.88949053  0.53767219  0.87739052  1
  N  N50  1  0.77813172  0.42751687  0.62706765  1
  N  N51  1  0.55646697  0.53538534  0.38021126  1
  N  N52  1  0.44475376  0.42714542  0.12619657  1
  N  N53  1  0.22226751  0.53897959  0.87673011  1
  N  N54  1  0.11100442  0.42751685  0.62706765  1
  N  N55  1  0.88847763  0.53969798  0.37859624  1
  N  N56  1  0.77769305  0.43006618  0.12996861  1
  N  N57  1  0.55540614  0.53897957  0.87673010  1
  N  N58  1  0.44537487  0.42590323  0.62983903  1
  N  N59  1  0.22296535  0.87072253  0.36565025  1
  N  N60  1  0.10058396  0.74959203  0.13405630  1
  N  N61  1  0.88940600  0.87219481  0.87549556  1
  N  N62  1  0.77840066  0.75985168  0.62950518  1
  N  N63  1  0.55780495  0.87241067  0.38089496  1
  N  N64  1  0.46647705  0.74959197  0.13405631  1
  N  N65  1  0.23013675  0.85637982  0.87460716  1
  N  N66  1  0.11124634  0.75958459  0.62341349  1
  N  N67  1  0.88643764  0.87241067  0.38089493  1
  N  N68  1  0.77790071  0.76085156  0.12690850  1
  N  N69  1  0.55505245  0.87219483  0.87549553  1
  N  N70  1  0.44582208  0.75958458  0.62341349  1
  O  O71  1  0.09768583  0.12128120  0.11777753  1
