# generated using pymatgen
data_Sc2Al34N35O
_symmetry_space_group_name_H-M   'P 1'
_cell_length_a   9.42242078
_cell_length_b   9.43749336
_cell_length_c   10.01407619
_cell_angle_alpha   89.88290873
_cell_angle_beta   89.99999780
_cell_angle_gamma   60.05282989
_symmetry_Int_Tables_number   1
_chemical_formula_structural   Sc2Al34N35O
_chemical_formula_sum   'Sc2 Al34 N35 O1'
_cell_volume   771.59680210
_cell_formula_units_Z   1
loop_
 _symmetry_equiv_pos_site_id
 _symmetry_equiv_pos_as_xyz
  1  'x, y, z'
loop_
 _atom_site_type_symbol
 _atom_site_label
 _atom_site_symmetry_multiplicity
 _atom_site_fract_x
 _atom_site_fract_y
 _atom_site_fract_z
 _atom_site_occupancy
  Al  Al0  1  0.10770340  0.10119342  0.33687160  1
  Al  Al1  1  0.22570917  0.21542938  0.07161301  1
  Al  Al2  1  0.77472181  0.09439210  0.81966749  1
  Al  Al3  1  0.88278420  0.20809592  0.56302155  1
  Al  Al4  1  0.44734611  0.09277924  0.31908475  1
  Al  Al5  1  0.55605273  0.20449473  0.06888758  1
  Al  Al6  1  0.22572006  0.20809592  0.56302158  1
  Al  Al7  1  0.77647484  0.09277924  0.31908474  1
  Al  Al8  1  0.87546164  0.21542936  0.07161303  1
  Al  Al9  1  0.44748623  0.09439209  0.81966750  1
  Al  Al10  1  0.55568256  0.20523508  0.56927431  1
  Al  Al11  1  0.11000662  0.43096916  0.31882465  1
  Al  Al12  1  0.22200585  0.53583219  0.06779389  1
  Al  Al13  1  0.77495437  0.43008882  0.81932599  1
  Al  Al14  1  0.88903494  0.53853035  0.56936530  1
  Al  Al15  1  0.44480219  0.42699583  0.31931790  1
  Al  Al16  1  0.55876221  0.53583215  0.06779390  1
  Al  Al17  1  0.11155701  0.43008879  0.81932600  1
  Al  Al18  1  0.22361462  0.53676681  0.56973622  1
  Al  Al19  1  0.77562446  0.43096917  0.31882464  1
  Al  Al20  1  0.88801166  0.54057689  0.06900555  1
  Al  Al21  1  0.44497559  0.42664903  0.81949670  1
  Al  Al22  1  0.55621880  0.53676680  0.56973621  1
  Al  Al23  1  0.10712840  0.75626025  0.32101671  1
  Al  Al24  1  0.77824757  0.76010505  0.81828657  1
  Al  Al25  1  0.88807584  0.87198689  0.56970814  1
  Al  Al26  1  0.45321160  0.75626022  0.32101674  1
  Al  Al27  1  0.56040529  0.86965630  0.06749684  1
  Al  Al28  1  0.11204007  0.75665378  0.81627691  1
  Al  Al29  1  0.22501039  0.86657942  0.55985969  1
  Al  Al30  1  0.77767080  0.76125862  0.31931259  1
  Al  Al31  1  0.88653866  0.86965632  0.06749684  1
  Al  Al32  1  0.44790633  0.75665378  0.81627689  1
  Al  Al33  1  0.55653749  0.87198689  0.56970816  1
  Sc  Sc34  1  0.11060484  0.09539034  0.80973101  1
  Sc  Sc35  1  0.22222782  0.87214481  0.08381813  1
  N  N36  1  0.22474427  0.20847203  0.37313039  1
  N  N37  1  0.87370351  0.21276503  0.88485524  1
  N  N38  1  0.77827628  0.09420244  0.62819203  1
  N  N39  1  0.55575667  0.20508687  0.37788246  1
  N  N40  1  0.44505313  0.09145409  0.12844338  1
  N  N41  1  0.23013159  0.21276499  0.88485522  1
  N  N42  1  0.11160913  0.09338187  0.59911616  1
  N  N43  1  0.88338392  0.20847203  0.37313037  1
  N  N44  1  0.78009290  0.09145410  0.12844339  1
  N  N45  1  0.55586000  0.20488018  0.87872856  1
  N  N46  1  0.44412144  0.09420244  0.62819205  1
  N  N47  1  0.22379677  0.53685602  0.37969076  1
  N  N48  1  0.10899121  0.42976874  0.12914228  1
  N  N49  1  0.88918762  0.53822499  0.87772782  1
  N  N50  1  0.77899624  0.42602217  0.62810406  1
  N  N51  1  0.55594749  0.53685599  0.37969075  1
  N  N52  1  0.44499523  0.42660972  0.12734485  1
  N  N53  1  0.22280515  0.53806459  0.87710944  1
  N  N54  1  0.11158178  0.42602217  0.62810407  1
  N  N55  1  0.88874342  0.53911342  0.37821256  1
  N  N56  1  0.77784026  0.42976872  0.12914227  1
  N  N57  1  0.55573048  0.53806460  0.87710944  1
  N  N58  1  0.44521260  0.42617500  0.62858511  1
  N  N59  1  0.22277734  0.87104559  0.36294925  1
  N  N60  1  0.10105116  0.74960356  0.13292752  1
  N  N61  1  0.88960795  0.87145834  0.87630347  1
  N  N62  1  0.77834465  0.75991089  0.62815648  1
  N  N63  1  0.55655368  0.87282185  0.37958410  1
  N  N64  1  0.46594566  0.74960346  0.13292756  1
  N  N65  1  0.23007255  0.85645512  0.87534519  1
  N  N66  1  0.11191514  0.76017649  0.62410983  1
  N  N67  1  0.88722471  0.87282187  0.37958408  1
  N  N68  1  0.77782200  0.76095624  0.12807518  1
  N  N69  1  0.55553392  0.87145834  0.87630348  1
  N  N70  1  0.44450855  0.76017648  0.62410982  1
  O  O71  1  0.09677135  0.12305745  0.13545090  1
