# generated using pymatgen
data_Sc2Al34N35O
_symmetry_space_group_name_H-M   'P 1'
_cell_length_a   9.42780232
_cell_length_b   9.44065621
_cell_length_c   10.00686555
_cell_angle_alpha   90.06982743
_cell_angle_beta   89.99999905
_cell_angle_gamma   60.04502902
_symmetry_Int_Tables_number   1
_chemical_formula_structural   Sc2Al34N35O
_chemical_formula_sum   'Sc2 Al34 N35 O1'
_cell_volume   771.68098034
_cell_formula_units_Z   1
loop_
 _symmetry_equiv_pos_site_id
 _symmetry_equiv_pos_as_xyz
  1  'x, y, z'
loop_
 _atom_site_type_symbol
 _atom_site_label
 _atom_site_symmetry_multiplicity
 _atom_site_fract_x
 _atom_site_fract_y
 _atom_site_fract_z
 _atom_site_occupancy
  Al  Al0  1  0.11079534  0.09525103  0.41624734  1
  Al  Al1  1  0.22467697  0.21392669  0.16099058  1
  Al  Al2  1  0.77389429  0.09455024  0.90482560  1
  Al  Al3  1  0.87985826  0.20994668  0.65277138  1
  Al  Al4  1  0.44684593  0.09254611  0.40514385  1
  Al  Al5  1  0.55587485  0.20509198  0.15498780  1
  Al  Al6  1  0.22703679  0.20994667  0.65277136  1
  Al  Al7  1  0.77744965  0.09254615  0.40514387  1
  Al  Al8  1  0.87823799  0.21392672  0.16099058  1
  Al  Al9  1  0.44839724  0.09455024  0.90482559  1
  Al  Al10  1  0.55598310  0.20487550  0.65558011  1
  Al  Al11  1  0.10985034  0.42945784  0.40546330  1
  Al  Al12  1  0.22257901  0.53537328  0.15555232  1
  Al  Al13  1  0.77276267  0.43196222  0.90493669  1
  Al  Al14  1  0.88898314  0.53887539  0.65517804  1
  Al  Al15  1  0.44509745  0.42664679  0.40534487  1
  Al  Al16  1  0.55888946  0.53537324  0.15555232  1
  Al  Al17  1  0.11211683  0.43196225  0.90493668  1
  Al  Al18  1  0.22324755  0.53711784  0.65526988  1
  Al  Al19  1  0.77753351  0.42945783  0.40546329  1
  Al  Al20  1  0.88831311  0.54021546  0.15488971  1
  Al  Al21  1  0.44483905  0.42716360  0.90408730  1
  Al  Al22  1  0.55647629  0.53711781  0.65526989  1
  Al  Al23  1  0.11006083  0.75888750  0.40942621  1
  Al  Al24  1  0.77783069  0.76118033  0.90467872  1
  Al  Al25  1  0.88785856  0.87213114  0.65519985  1
  Al  Al26  1  0.44789345  0.75888744  0.40942619  1
  Al  Al27  1  0.56039569  0.86957702  0.15606794  1
  Al  Al28  1  0.10953904  0.75457000  0.90239723  1
  Al  Al29  1  0.22609515  0.86465144  0.65481194  1
  Al  Al30  1  0.77832952  0.76018268  0.40601181  1
  Al  Al31  1  0.88686903  0.86957703  0.15606793  1
  Al  Al32  1  0.45273270  0.75456995  0.90239726  1
  Al  Al33  1  0.55685202  0.87213113  0.65519985  1
  Sc  Sc34  1  0.10809129  0.10065918  0.88683971  1
  Sc  Sc35  1  0.22276469  0.87131239  0.15333718  1
  N  N36  1  0.22154806  0.20417725  0.34954115  1
  N  N37  1  0.86500639  0.21761160  0.84110848  1
  N  N38  1  0.77701330  0.09296477  0.59472644  1
  N  N39  1  0.55600277  0.20483615  0.34515247  1
  N  N40  1  0.44240512  0.09293467  0.09755455  1
  N  N41  1  0.23422377  0.21761163  0.84110848  1
  N  N42  1  0.11075447  0.09533278  0.61075670  1
  N  N43  1  0.89111642  0.20417724  0.34954117  1
  N  N44  1  0.78150189  0.09293465  0.09755456  1
  N  N45  1  0.55586418  0.20511333  0.84708021  1
  N  N46  1  0.44686365  0.09296474  0.59472644  1
  N  N47  1  0.22286515  0.53825977  0.34645207  1
  N  N48  1  0.11062265  0.42672318  0.09663073  1
  N  N49  1  0.88933942  0.53816291  0.84719881  1
  N  N50  1  0.77738349  0.42928847  0.59476422  1
  N  N51  1  0.55571678  0.53825973  0.34645208  1
  N  N52  1  0.44509679  0.42664808  0.09633038  1
  N  N53  1  0.22383414  0.53722741  0.84517226  1
  N  N54  1  0.11016972  0.42928847  0.59476422  1
  N  N55  1  0.88894194  0.53895785  0.34554517  1
  N  N56  1  0.77949594  0.42672315  0.09663074  1
  N  N57  1  0.55578015  0.53722739  0.84517225  1
  N  N58  1  0.44522079  0.42640008  0.59632691  1
  N  N59  1  0.22189650  0.87304878  0.36239821  1
  N  N60  1  0.10280194  0.75110162  0.09215162  1
  N  N61  1  0.88764619  0.87322163  0.84596037  1
  N  N62  1  0.77832303  0.76019567  0.59667508  1
  N  N63  1  0.55622553  0.87104072  0.34680726  1
  N  N64  1  0.46293819  0.75110163  0.09215164  1
  N  N65  1  0.23190536  0.85303099  0.84886208  1
  N  N66  1  0.11029144  0.75904495  0.59910462  1
  N  N67  1  0.88957549  0.87104073  0.34680726  1
  N  N68  1  0.77804319  0.76075545  0.09567559  1
  N  N69  1  0.55597389  0.87322163  0.84596036  1
  N  N70  1  0.44750535  0.75904492  0.59910462  1
  O  O71  1  0.09819693  0.12044779  0.10210982  1
