# generated using pymatgen
data_Sc2Al34N35O
_symmetry_space_group_name_H-M   'P 1'
_cell_length_a   9.42278585
_cell_length_b   9.43741115
_cell_length_c   10.01472592
_cell_angle_alpha   89.88188592
_cell_angle_beta   90.00045048
_cell_angle_gamma   60.05277747
_symmetry_Int_Tables_number   1
_chemical_formula_structural   Sc2Al34N35O
_chemical_formula_sum   'Sc2 Al34 N35 O1'
_cell_volume   771.66958650
_cell_formula_units_Z   1
loop_
 _symmetry_equiv_pos_site_id
 _symmetry_equiv_pos_as_xyz
  1  'x, y, z'
loop_
 _atom_site_type_symbol
 _atom_site_label
 _atom_site_symmetry_multiplicity
 _atom_site_fract_x
 _atom_site_fract_y
 _atom_site_fract_z
 _atom_site_occupancy
  Al  Al0  1  0.10765580  0.10112232  0.31391002  1
  Al  Al1  1  0.22560073  0.21535564  0.04861864  1
  Al  Al2  1  0.77455893  0.09446068  0.79668090  1
  Al  Al3  1  0.88267371  0.20811505  0.53999557  1
  Al  Al4  1  0.44729156  0.09272442  0.29607130  1
  Al  Al5  1  0.55593200  0.20449652  0.04590391  1
  Al  Al6  1  0.22564277  0.20812855  0.54000765  1
  Al  Al7  1  0.77638328  0.09272851  0.29609443  1
  Al  Al8  1  0.87537607  0.21537684  0.04862611  1
  Al  Al9  1  0.44733906  0.09445895  0.79667759  1
  Al  Al10  1  0.55556943  0.20527710  0.54628774  1
  Al  Al11  1  0.10995143  0.43089352  0.29582726  1
  Al  Al12  1  0.22191610  0.53575589  0.04480162  1
  Al  Al13  1  0.77483980  0.43012785  0.79632552  1
  Al  Al14  1  0.88895229  0.53854317  0.54636627  1
  Al  Al15  1  0.44472648  0.42696133  0.29635219  1
  Al  Al16  1  0.55871645  0.53577658  0.04479682  1
  Al  Al17  1  0.11142448  0.43011773  0.79633953  1
  Al  Al18  1  0.22349135  0.53681957  0.54676593  1
  Al  Al19  1  0.77557393  0.43089803  0.29584581  1
  Al  Al20  1  0.88790798  0.54054953  0.04602114  1
  Al  Al21  1  0.44484164  0.42670105  0.79648317  1
  Al  Al22  1  0.55612090  0.53680313  0.54676219  1
  Al  Al23  1  0.10704874  0.75619416  0.29802549  1
  Al  Al24  1  0.77812268  0.76014919  0.79528052  1
  Al  Al25  1  0.88795755  0.87202813  0.54672866  1
  Al  Al26  1  0.45317734  0.75619860  0.29803425  1
  Al  Al27  1  0.56034131  0.86961695  0.04449402  1
  Al  Al28  1  0.11190351  0.75670632  0.79331280  1
  Al  Al29  1  0.22490252  0.86660982  0.53687643  1
  Al  Al30  1  0.77761650  0.76119763  0.29633537  1
  Al  Al31  1  0.88644596  0.86961805  0.04450138  1
  Al  Al32  1  0.44776342  0.75671448  0.79331074  1
  Al  Al33  1  0.55643210  0.87201530  0.54672617  1
  Sc  Sc34  1  0.11045391  0.09543138  0.78671966  1
  Sc  Sc35  1  0.22218759  0.87204845  0.06088371  1
  N  N36  1  0.22470565  0.20840318  0.35012475  1
  N  N37  1  0.87357379  0.21279846  0.86187171  1
  N  N38  1  0.77814279  0.09424543  0.60521235  1
  N  N39  1  0.55568410  0.20503180  0.35490068  1
  N  N40  1  0.44494735  0.09142858  0.10543926  1
  N  N41  1  0.22998210  0.21278519  0.86186531  1
  N  N42  1  0.11150767  0.09342283  0.57610041  1
  N  N43  1  0.88333918  0.20838184  0.35012513  1
  N  N44  1  0.77997613  0.09142185  0.10545118  1
  N  N45  1  0.55571074  0.20493702  0.85575462  1
  N  N46  1  0.44402662  0.09424736  0.60521456  1
  N  N47  1  0.22372251  0.53679546  0.35672221  1
  N  N48  1  0.10889736  0.42969402  0.10615142  1
  N  N49  1  0.88906706  0.53826273  0.85474904  1
  N  N50  1  0.77890480  0.42604655  0.60510416  1
  N  N51  1  0.55590145  0.53679593  0.35672494  1
  N  N52  1  0.44489123  0.42659579  0.10437991  1
  N  N53  1  0.22267487  0.53808884  0.85411885  1
  N  N54  1  0.11148680  0.42605141  0.60512529  1
  N  N55  1  0.88870920  0.53903156  0.35522664  1
  N  N56  1  0.77778529  0.42970433  0.10616769  1
  N  N57  1  0.55562047  0.53809257  0.85410962  1
  N  N58  1  0.44509577  0.42622242  0.60559023  1
  N  N59  1  0.22272353  0.87096633  0.33996475  1
  N  N60  1  0.10095287  0.74953207  0.10994225  1
  N  N61  1  0.88946890  0.87151133  0.85331024  1
  N  N62  1  0.77825110  0.75993160  0.60516409  1
  N  N63  1  0.55650236  0.87277241  0.35660532  1
  N  N64  1  0.46592955  0.74952918  0.10994200  1
  N  N65  1  0.22992411  0.85651255  0.85240968  1
  N  N66  1  0.11178778  0.76023495  0.60115346  1
  N  N67  1  0.88715732  0.87277812  0.35661072  1
  N  N68  1  0.77775276  0.76091739  0.10510605  1
  N  N69  1  0.55542290  0.87150559  0.85330672  1
  N  N70  1  0.44438637  0.76021722  0.60114849  1
  O  O71  1  0.09669599  0.12295476  0.11247403  1
