# generated using pymatgen
data_Sc2Al34N35O
_symmetry_space_group_name_H-M   'P 1'
_cell_length_a   9.42802351
_cell_length_b   9.44086811
_cell_length_c   10.00730961
_cell_angle_alpha   90.06820087
_cell_angle_beta   89.99981917
_cell_angle_gamma   60.04498268
_symmetry_Int_Tables_number   1
_chemical_formula_structural   Sc2Al34N35O
_chemical_formula_sum   'Sc2 Al34 N35 O1'
_cell_volume   771.75032509
_cell_formula_units_Z   1
loop_
 _symmetry_equiv_pos_site_id
 _symmetry_equiv_pos_as_xyz
  1  'x, y, z'
loop_
 _atom_site_type_symbol
 _atom_site_label
 _atom_site_symmetry_multiplicity
 _atom_site_fract_x
 _atom_site_fract_y
 _atom_site_fract_z
 _atom_site_occupancy
  Al  Al0  1  0.11079193  0.09527848  0.42360878  1
  Al  Al1  1  0.22469442  0.21392070  0.16837112  1
  Al  Al2  1  0.77394808  0.09452289  0.91218600  1
  Al  Al3  1  0.87986446  0.20999706  0.66015714  1
  Al  Al4  1  0.44685391  0.09256627  0.41250402  1
  Al  Al5  1  0.55590816  0.20507998  0.16234693  1
  Al  Al6  1  0.22701417  0.20999983  0.66012278  1
  Al  Al7  1  0.77748613  0.09255471  0.41251062  1
  Al  Al8  1  0.87827857  0.21390620  0.16837260  1
  Al  Al9  1  0.44841590  0.09453811  0.91216576  1
  Al  Al10  1  0.55600526  0.20488320  0.66292706  1
  Al  Al11  1  0.10985232  0.42949643  0.41281547  1
  Al  Al12  1  0.22261322  0.53535677  0.16292184  1
  Al  Al13  1  0.77280930  0.43195038  0.91231037  1
  Al  Al14  1  0.88898757  0.53893783  0.66254430  1
  Al  Al15  1  0.44514725  0.42663987  0.41272212  1
  Al  Al16  1  0.55893055  0.53534552  0.16291219  1
  Al  Al17  1  0.11214694  0.43195606  0.91229253  1
  Al  Al18  1  0.22327393  0.53712814  0.66260759  1
  Al  Al19  1  0.77756572  0.42949124  0.41282447  1
  Al  Al20  1  0.88832876  0.54022791  0.16224121  1
  Al  Al21  1  0.44489568  0.42712315  0.91143830  1
  Al  Al22  1  0.55651567  0.53713539  0.66261421  1
  Al  Al23  1  0.11009990  0.75889948  0.41677903  1
  Al  Al24  1  0.77786793  0.76118355  0.91204958  1
  Al  Al25  1  0.88789321  0.87215148  0.66256414  1
  Al  Al26  1  0.44791715  0.75890314  0.41678070  1
  Al  Al27  1  0.56042549  0.86956741  0.16343381  1
  Al  Al28  1  0.10958911  0.75453864  0.90976641  1
  Al  Al29  1  0.22611776  0.86466341  0.66219659  1
  Al  Al30  1  0.77835248  0.76021887  0.41338380  1
  Al  Al31  1  0.88689438  0.86957786  0.16342560  1
  Al  Al32  1  0.45279906  0.75453765  0.90975429  1
  Al  Al33  1  0.55686197  0.87217197  0.66255893  1
  Sc  Sc34  1  0.10811561  0.10065534  0.89422902  1
  Sc  Sc35  1  0.22281676  0.87127483  0.16067795  1
  N  N36  1  0.22155445  0.20420867  0.35691552  1
  N  N37  1  0.86504537  0.21760202  0.84849174  1
  N  N38  1  0.77703628  0.09299732  0.60209520  1
  N  N39  1  0.55603097  0.20484073  0.35251065  1
  N  N40  1  0.44243160  0.09293093  0.10490697  1
  N  N41  1  0.23423832  0.21760579  0.84846791  1
  N  N42  1  0.11076366  0.09535367  0.61811962  1
  N  N43  1  0.89112326  0.20421145  0.35691084  1
  N  N44  1  0.78153549  0.09293213  0.10491800  1
  N  N45  1  0.55590898  0.20507293  0.85443924  1
  N  N46  1  0.44685308  0.09301363  0.60208294  1
  N  N47  1  0.22292077  0.53825367  0.35381833  1
  N  N48  1  0.11066091  0.42670077  0.10399497  1
  N  N49  1  0.88936971  0.53817045  0.85457048  1
  N  N50  1  0.77741689  0.42933427  0.60212439  1
  N  N51  1  0.55574474  0.53825945  0.35381197  1
  N  N52  1  0.44512861  0.42662960  0.10367873  1
  N  N53  1  0.22389225  0.53718416  0.85251695  1
  N  N54  1  0.11016231  0.42934003  0.60211684  1
  N  N55  1  0.88895287  0.53900281  0.35289219  1
  N  N56  1  0.77953844  0.42670755  0.10399904  1
  N  N57  1  0.55584029  0.53718652  0.85252214  1
  N  N58  1  0.44525778  0.42641197  0.60369183  1
  N  N59  1  0.22192139  0.87307109  0.36974558  1
  N  N60  1  0.10283267  0.75107223  0.09951474  1
  N  N61  1  0.88771405  0.87319300  0.85333082  1
  N  N62  1  0.77833209  0.76024832  0.60403812  1
  N  N63  1  0.55625199  0.87105706  0.35417555  1
  N  N64  1  0.46300766  0.75105921  0.09950754  1
  N  N65  1  0.23195739  0.85300089  0.85625722  1
  N  N66  1  0.11032685  0.75905728  0.60646045  1
  N  N67  1  0.88961339  0.87104758  0.35416584  1
  N  N68  1  0.77806873  0.76076780  0.10303405  1
  N  N69  1  0.55601074  0.87320376  0.85332022  1
  N  N70  1  0.44752573  0.75907043  0.60646518  1
  O  O71  1  0.09825794  0.12040354  0.10950560  1
