# generated using pymatgen
data_Sc2Al34N35O
_symmetry_space_group_name_H-M   'P 1'
_cell_length_a   9.87567102
_cell_length_b   9.88827899
_cell_length_c   8.67494438
_cell_angle_alpha   90.04201274
_cell_angle_beta   89.99999638
_cell_angle_gamma   60.04216614
_symmetry_Int_Tables_number   1
_chemical_formula_structural   Sc2Al34N35O
_chemical_formula_sum   'Sc2 Al34 N35 O1'
_cell_volume   733.95405303
_cell_formula_units_Z   1
loop_
 _symmetry_equiv_pos_site_id
 _symmetry_equiv_pos_as_xyz
  1  'x, y, z'
loop_
 _atom_site_type_symbol
 _atom_site_label
 _atom_site_symmetry_multiplicity
 _atom_site_fract_x
 _atom_site_fract_y
 _atom_site_fract_z
 _atom_site_occupancy
  Al  Al0  1  0.10910353  0.09844645  0.37769647  1
  Al  Al1  1  0.22528017  0.21285145  0.11505756  1
  Al  Al2  1  0.77422152  0.09306880  0.86643779  1
  Al  Al3  1  0.87883705  0.21054326  0.61338870  1
  Al  Al4  1  0.44611306  0.09309607  0.36303872  1
  Al  Al5  1  0.55549666  0.20566020  0.11486107  1
  Al  Al6  1  0.22727317  0.21054323  0.61338868  1
  Al  Al7  1  0.77744440  0.09309604  0.36303874  1
  Al  Al8  1  0.87852187  0.21285140  0.11505759  1
  Al  Al9  1  0.44936312  0.09306883  0.86643780  1
  Al  Al10  1  0.55591867  0.20481614  0.61503557  1
  Al  Al11  1  0.10953627  0.42891136  0.36404453  1
  Al  Al12  1  0.22332462  0.53495973  0.11695994  1
  Al  Al13  1  0.77315515  0.43254033  0.86597639  1
  Al  Al14  1  0.88925564  0.53814227  0.61473651  1
  Al  Al15  1  0.44536169  0.42593024  0.36623119  1
  Al  Al16  1  0.55836929  0.53495969  0.11695997  1
  Al  Al17  1  0.11095809  0.43254031  0.86597636  1
  Al  Al18  1  0.22355634  0.53675039  0.61318401  1
  Al  Al19  1  0.77820597  0.42891135  0.36404453  1
  Al  Al20  1  0.88777043  0.54111274  0.11531449  1
  Al  Al21  1  0.44481855  0.42701650  0.86333546  1
  Al  Al22  1  0.55634684  0.53675040  0.61318400  1
  Al  Al23  1  0.10883276  0.75851870  0.36645273  1
  Al  Al24  1  0.77783123  0.76099107  0.86194469  1
  Al  Al25  1  0.88773803  0.87280676  0.61332140  1
  Al  Al26  1  0.44930205  0.75851873  0.36645272  1
  Al  Al27  1  0.56097097  0.86960214  0.11671053  1
  Al  Al28  1  0.10931625  0.75502889  0.85990617  1
  Al  Al29  1  0.22568411  0.86528537  0.60692679  1
  Al  Al30  1  0.77835753  0.75993852  0.36856229  1
  Al  Al31  1  0.88608047  0.86960209  0.11671052  1
  Al  Al32  1  0.45230839  0.75502890  0.85990618  1
  Al  Al33  1  0.55610875  0.87280678  0.61332138  1
  Sc  Sc34  1  0.10871998  0.09921349  0.84541923  1
  Sc  Sc35  1  0.22380400  0.86904555  0.10763173  1
  N  N36  1  0.22144087  0.20448366  0.34203973  1
  N  N37  1  0.86853878  0.21553273  0.84616970  1
  N  N38  1  0.77673117  0.09422964  0.59122047  1
  N  N39  1  0.55567450  0.20530452  0.34232535  1
  N  N40  1  0.44529003  0.09181025  0.09676687  1
  N  N41  1  0.23258192  0.21553271  0.84616971  1
  N  N42  1  0.10934263  0.09796819  0.59790545  1
  N  N43  1  0.89072898  0.20448365  0.34203974  1
  N  N44  1  0.77955326  0.09181020  0.09676686  1
  N  N45  1  0.55608200  0.20448944  0.84568364  1
  N  N46  1  0.44569267  0.09422966  0.59122047  1
  N  N47  1  0.22371629  0.53713180  0.34608102  1
  N  N48  1  0.10960844  0.42905116  0.09606843  1
  N  N49  1  0.88943894  0.53777570  0.84423861  1
  N  N50  1  0.77776948  0.42845991  0.59161518  1
  N  N51  1  0.55580549  0.53713182  0.34608103  1
  N  N52  1  0.44473558  0.42718244  0.09356212  1
  N  N53  1  0.22353817  0.53719386  0.84206897  1
  N  N54  1  0.11042419  0.42845991  0.59161520  1
  N  N55  1  0.88838180  0.53988998  0.34389457  1
  N  N56  1  0.77799403  0.42905111  0.09606846  1
  N  N57  1  0.55592151  0.53719389  0.84206897  1
  N  N58  1  0.44551668  0.42562024  0.59479212  1
  N  N59  1  0.22074688  0.87515978  0.35717184  1
  N  N60  1  0.10280913  0.75102816  0.09501481  1
  N  N61  1  0.88799371  0.87315066  0.84217698  1
  N  N62  1  0.77837854  0.75989649  0.59624133  1
  N  N63  1  0.55742421  0.87134965  0.34629123  1
  N  N64  1  0.46281629  0.75102815  0.09501482  1
  N  N65  1  0.23035633  0.85594084  0.84579950  1
  N  N66  1  0.11037242  0.75914255  0.59529576  1
  N  N67  1  0.88787969  0.87134964  0.34629121  1
  N  N68  1  0.77802455  0.76060445  0.09165547  1
  N  N69  1  0.55550913  0.87315070  0.84217698  1
  N  N70  1  0.44713861  0.75914255  0.59529577  1
  O  O71  1  0.09949588  0.11766172  0.09553636  1
