# generated using pymatgen
data_Sc2Al34N35O
_symmetry_space_group_name_H-M   'P 1'
_cell_length_a   9.48134107
_cell_length_b   9.49541739
_cell_length_c   9.86180507
_cell_angle_alpha   90.06412594
_cell_angle_beta   89.99998161
_cell_angle_gamma   60.04897937
_symmetry_Int_Tables_number   1
_chemical_formula_structural   Sc2Al34N35O
_chemical_formula_sum   'Sc2 Al34 N35 O1'
_cell_volume   769.28036323
_cell_formula_units_Z   1
loop_
 _symmetry_equiv_pos_site_id
 _symmetry_equiv_pos_as_xyz
  1  'x, y, z'
loop_
 _atom_site_type_symbol
 _atom_site_label
 _atom_site_symmetry_multiplicity
 _atom_site_fract_x
 _atom_site_fract_y
 _atom_site_fract_z
 _atom_site_occupancy
  Al  Al0  1  0.11101132  0.09463092  0.39400591  1
  Al  Al1  1  0.22393625  0.21341527  0.13717635  1
  Al  Al2  1  0.77378352  0.09427078  0.88280881  1
  Al  Al3  1  0.87773151  0.21090548  0.63000571  1
  Al  Al4  1  0.44666348  0.09263489  0.38186134  1
  Al  Al5  1  0.55571595  0.20522168  0.13222866  1
  Al  Al6  1  0.22801651  0.21090550  0.63000571  1
  Al  Al7  1  0.77735520  0.09263487  0.38186135  1
  Al  Al8  1  0.87930200  0.21341528  0.13717635  1
  Al  Al9  1  0.44859928  0.09427084  0.88280881  1
  Al  Al10  1  0.55599931  0.20465491  0.63328231  1
  Al  Al11  1  0.10953510  0.42947869  0.38237215  1
  Al  Al12  1  0.22282364  0.53494395  0.13364117  1
  Al  Al13  1  0.77241645  0.43207314  0.88290245  1
  Al  Al14  1  0.88894777  0.53875797  0.63281051  1
  Al  Al15  1  0.44513046  0.42639264  0.38304749  1
  Al  Al16  1  0.55888589  0.53494400  0.13364115  1
  Al  Al17  1  0.11216395  0.43207316  0.88290246  1
  Al  Al18  1  0.22310360  0.53722531  0.63218875  1
  Al  Al19  1  0.77763977  0.42947869  0.38237214  1
  Al  Al20  1  0.88809938  0.54045474  0.13216319  1
  Al  Al21  1  0.44477356  0.42710645  0.88133528  1
  Al  Al22  1  0.55632461  0.53722531  0.63218876  1
  Al  Al23  1  0.11041449  0.75949203  0.38532499  1
  Al  Al24  1  0.77772387  0.76120576  0.88171022  1
  Al  Al25  1  0.88786866  0.87223455  0.63211390  1
  Al  Al26  1  0.44674700  0.75949205  0.38532498  1
  Al  Al27  1  0.56069526  0.86935788  0.13393961  1
  Al  Al28  1  0.10879610  0.75375074  0.88033647  1
  Al  Al29  1  0.22678930  0.86307485  0.63345247  1
  Al  Al30  1  0.77830350  0.76004651  0.38388941  1
  Al  Al31  1  0.88660035  0.86935782  0.13393962  1
  Al  Al32  1  0.45410664  0.75375078  0.88033645  1
  Al  Al33  1  0.55655028  0.87223457  0.63211389  1
  Sc  Sc34  1  0.10753711  0.10157935  0.85683603  1
  Sc  Sc35  1  0.22218279  0.87228778  0.12401490  1
  N  N36  1  0.22102746  0.20397552  0.32880157  1
  N  N37  1  0.86324859  0.21835590  0.82104838  1
  N  N38  1  0.77661551  0.09301840  0.57383823  1
  N  N39  1  0.55582867  0.20499614  0.32457107  1
  N  N40  1  0.44257884  0.09260312  0.07757218  1
  N  N41  1  0.23504897  0.21835594  0.82104836  1
  N  N42  1  0.11080637  0.09504090  0.59309732  1
  N  N43  1  0.89165050  0.20397551  0.32880156  1
  N  N44  1  0.78147178  0.09260306  0.07757218  1
  N  N45  1  0.55594697  0.20475957  0.82705177  1
  N  N46  1  0.44701975  0.09301841  0.57383823  1
  N  N47  1  0.22303149  0.53805515  0.32660807  1
  N  N48  1  0.11055029  0.42696161  0.07669914  1
  N  N49  1  0.88939280  0.53786785  0.82703724  1
  N  N50  1  0.77722317  0.42956412  0.57402751  1
  N  N51  1  0.55556681  0.53805517  0.32660806  1
  N  N52  1  0.44497964  0.42669439  0.07583614  1
  N  N53  1  0.22369271  0.53718661  0.82441414  1
  N  N54  1  0.10986635  0.42956414  0.57402751  1
  N  N55  1  0.88867812  0.53929721  0.32506914  1
  N  N56  1  0.77914175  0.42696160  0.07669915  1
  N  N57  1  0.55577413  0.53718664  0.82441416  1
  N  N58  1  0.44528321  0.42608726  0.57623898  1
  N  N59  1  0.22128440  0.87408465  0.33796091  1
  N  N60  1  0.10212867  0.75004416  0.07248091  1
  N  N61  1  0.88757533  0.87326662  0.82519644  1
  N  N62  1  0.77831201  0.76002962  0.57672095  1
  N  N63  1  0.55644673  0.87097965  0.32682696  1
  N  N64  1  0.46448072  0.75004424  0.07248091  1
  N  N65  1  0.23218714  0.85227910  0.83202559  1
  N  N66  1  0.11056852  0.75933042  0.57811219  1
  N  N67  1  0.88922706  0.87097963  0.32682696  1
  N  N68  1  0.77789587  0.76086185  0.07499003  1
  N  N69  1  0.55581142  0.87326667  0.82519645  1
  N  N70  1  0.44675468  0.75933043  0.57811220  1
  O  O71  1  0.09736901  0.12191567  0.07708523  1
