# generated using pymatgen
data_Sc2Al34N35O
_symmetry_space_group_name_H-M   'P 1'
_cell_length_a   9.74498154
_cell_length_b   9.75818358
_cell_length_c   9.08749695
_cell_angle_alpha   90.05470839
_cell_angle_beta   89.99998518
_cell_angle_gamma   60.04473196
_symmetry_Int_Tables_number   1
_chemical_formula_structural   Sc2Al34N35O
_chemical_formula_sum   'Sc2 Al34 N35 O1'
_cell_volume   748.72137602
_cell_formula_units_Z   1
loop_
 _symmetry_equiv_pos_site_id
 _symmetry_equiv_pos_as_xyz
  1  'x, y, z'
loop_
 _atom_site_type_symbol
 _atom_site_label
 _atom_site_symmetry_multiplicity
 _atom_site_fract_x
 _atom_site_fract_y
 _atom_site_fract_z
 _atom_site_occupancy
  Al  Al0  1  0.10985469  0.09694412  0.38577900  1
  Al  Al1  1  0.22418497  0.21264199  0.12510309  1
  Al  Al2  1  0.77414665  0.09330085  0.87555769  1
  Al  Al3  1  0.87685387  0.21144209  0.62213527  1
  Al  Al4  1  0.44619269  0.09314533  0.37150324  1
  Al  Al5  1  0.55538504  0.20588348  0.12303871  1
  Al  Al6  1  0.22835754  0.21144209  0.62213524  1
  Al  Al7  1  0.77731551  0.09314531  0.37150326  1
  Al  Al8  1  0.87982653  0.21264198  0.12510309  1
  Al  Al9  1  0.44920603  0.09330088  0.87555770  1
  Al  Al10  1  0.55609739  0.20445874  0.62466358  1
  Al  Al11  1  0.10936421  0.42902266  0.37254725  1
  Al  Al12  1  0.22331407  0.53484353  0.12598250  1
  Al  Al13  1  0.77272603  0.43240071  0.87520659  1
  Al  Al14  1  0.88928052  0.53809248  0.62404823  1
  Al  Al15  1  0.44540839  0.42583684  0.37504828  1
  Al  Al16  1  0.55849598  0.53484353  0.12598250  1
  Al  Al17  1  0.11152681  0.43240071  0.87520658  1
  Al  Al18  1  0.22326456  0.53687055  0.62225641  1
  Al  Al19  1  0.77826671  0.42902265  0.37254724  1
  Al  Al20  1  0.88769510  0.54126335  0.12348474  1
  Al  Al21  1  0.44473984  0.42717391  0.87202422  1
  Al  Al22  1  0.55651847  0.53687055  0.62225641  1
  Al  Al23  1  0.10958098  0.75919371  0.37520048  1
  Al  Al24  1  0.77768247  0.76128855  0.87090568  1
  Al  Al25  1  0.88764767  0.87293759  0.62227987  1
  Al  Al26  1  0.44787884  0.75919372  0.37520045  1
  Al  Al27  1  0.56129339  0.86917078  0.12586333  1
  Al  Al28  1  0.10874889  0.75407129  0.87016572  1
  Al  Al29  1  0.22631201  0.86402956  0.61734417  1
  Al  Al30  1  0.77844354  0.75976644  0.37707926  1
  Al  Al31  1  0.88618932  0.86917074  0.12586334  1
  Al  Al32  1  0.45383335  0.75407129  0.87016574  1
  Al  Al33  1  0.55606828  0.87293760  0.62227986  1
  Sc  Sc34  1  0.10824537  0.10016279  0.84592388  1
  Sc  Sc35  1  0.22302842  0.87059663  0.11016982  1
  N  N36  1  0.22090254  0.20405555  0.33538537  1
  N  N37  1  0.86591438  0.21682428  0.83453846  1
  N  N38  1  0.77638739  0.09389976  0.58209577  1
  N  N39  1  0.55561435  0.20542482  0.33323210  1
  N  N40  1  0.44428276  0.09196565  0.08808016  1
  N  N41  1  0.23391486  0.21682425  0.83453847  1
  N  N42  1  0.10987916  0.09689519  0.59783909  1
  N  N43  1  0.89169540  0.20405556  0.33538536  1
  N  N44  1  0.78040514  0.09196562  0.08808014  1
  N  N45  1  0.55618038  0.20429282  0.83711149  1
  N  N46  1  0.44636642  0.09389976  0.58209575  1
  N  N47  1  0.22357926  0.53747279  0.33714521  1
  N  N48  1  0.11005538  0.42829886  0.08715945  1
  N  N49  1  0.88954201  0.53756946  0.83613402  1
  N  N50  1  0.77761379  0.42904922  0.58261233  1
  N  N51  1  0.55560155  0.53747281  0.33714519  1
  N  N52  1  0.44468315  0.42728735  0.08461531  1
  N  N53  1  0.22360132  0.53692257  0.83301885  1
  N  N54  1  0.10999053  0.42904924  0.58261233  1
  N  N55  1  0.88833273  0.53998810  0.33453609  1
  N  N56  1  0.77829938  0.42829883  0.08715944  1
  N  N57  1  0.55612960  0.53692262  0.83301886  1
  N  N58  1  0.44555987  0.42553386  0.58613392  1
  N  N59  1  0.22070028  0.87525298  0.34819834  1
  N  N60  1  0.10215625  0.75016916  0.08422602  1
  N  N61  1  0.88766138  0.87352028  0.83347694  1
  N  N62  1  0.77843112  0.75979134  0.58759850  1
  N  N63  1  0.55734536  0.87101052  0.33724970  1
  N  N64  1  0.46432809  0.75016917  0.08422605  1
  N  N65  1  0.23122388  0.85420579  0.84270610  1
  N  N66  1  0.11036382  0.75922158  0.58712261  1
  N  N67  1  0.88829764  0.87101051  0.33724971  1
  N  N68  1  0.77789629  0.76086087  0.08274930  1
  N  N69  1  0.55547184  0.87352029  0.83347696  1
  N  N70  1  0.44706821  0.75922156  0.58712259  1
  O  O71  1  0.09828975  0.12007401  0.08489398  1
