# generated using pymatgen
data_Sc2Al34N35O
_symmetry_space_group_name_H-M   'P 1'
_cell_length_a   9.58629912
_cell_length_b   9.59685777
_cell_length_c   9.57869177
_cell_angle_alpha   89.99786743
_cell_angle_beta   90.00002421
_cell_angle_gamma   60.03646859
_symmetry_Int_Tables_number   1
_chemical_formula_structural   Sc2Al34N35O
_chemical_formula_sum   'Sc2 Al34 N35 O1'
_cell_volume   763.44251619
_cell_formula_units_Z   1
loop_
 _symmetry_equiv_pos_site_id
 _symmetry_equiv_pos_as_xyz
  1  'x, y, z'
loop_
 _atom_site_type_symbol
 _atom_site_label
 _atom_site_symmetry_multiplicity
 _atom_site_fract_x
 _atom_site_fract_y
 _atom_site_fract_z
 _atom_site_occupancy
  Al  Al0  1  0.10907813  0.09849659  0.36703811  1
  Al  Al1  1  0.22581078  0.21490656  0.08135464  1
  Al  Al2  1  0.77369604  0.09491128  0.82852324  1
  Al  Al3  1  0.87963641  0.20973667  0.57474137  1
  Al  Al4  1  0.44773495  0.09194683  0.32863942  1
  Al  Al5  1  0.55622688  0.20419930  0.07891129  1
  Al  Al6  1  0.22728002  0.20973665  0.57474136  1
  Al  Al7  1  0.77697115  0.09194685  0.32863941  1
  Al  Al8  1  0.87593570  0.21490658  0.08135461  1
  Al  Al9  1  0.44804564  0.09491132  0.82852325  1
  Al  Al10  1  0.55536808  0.20591696  0.57759326  1
  Al  Al11  1  0.10984135  0.43031041  0.32863813  1
  Al  Al12  1  0.22150950  0.53597021  0.07715114  1
  Al  Al13  1  0.77397676  0.43122361  0.82797482  1
  Al  Al14  1  0.88863704  0.53937910  0.57862947  1
  Al  Al15  1  0.44493629  0.42678042  0.32756466  1
  Al  Al16  1  0.55917345  0.53597017  0.07715114  1
  Al  Al17  1  0.11145266  0.43122358  0.82797482  1
  Al  Al18  1  0.22449362  0.53626257  0.57941195  1
  Al  Al19  1  0.77650124  0.43031044  0.32863814  1
  Al  Al20  1  0.88838260  0.53988796  0.07842379  1
  Al  Al21  1  0.44501299  0.42662701  0.83010397  1
  Al  Al22  1  0.55589698  0.53626254  0.57941195  1
  Al  Al23  1  0.10636231  0.75518451  0.33260118  1
  Al  Al24  1  0.77833469  0.75998367  0.82855898  1
  Al  Al25  1  0.88727960  0.87196811  0.58002938  1
  Al  Al26  1  0.45510625  0.75518448  0.33260118  1
  Al  Al27  1  0.56013954  0.86981564  0.07659869  1
  Al  Al28  1  0.11191579  0.75719550  0.82633716  1
  Al  Al29  1  0.22616178  0.86432962  0.57420637  1
  Al  Al30  1  0.77779808  0.76105686  0.32798467  1
  Al  Al31  1  0.88669797  0.86981564  0.07659871  1
  Al  Al32  1  0.44754178  0.75719547  0.82633716  1
  Al  Al33  1  0.55740545  0.87196812  0.58002940  1
  Sc  Sc34  1  0.10977622  0.09710042  0.82740700  1
  Sc  Sc35  1  0.22279475  0.87106379  0.10087643  1
  N  N36  1  0.22465335  0.20731904  0.37532470  1
  N  N37  1  0.86957636  0.21517963  0.88473348  1
  N  N38  1  0.77702251  0.09441394  0.62941486  1
  N  N39  1  0.55572118  0.20521080  0.37885742  1
  N  N40  1  0.44554263  0.09130106  0.13065011  1
  N  N41  1  0.23189719  0.21517958  0.88473349  1
  N  N42  1  0.11122231  0.09420830  0.60152360  1
  N  N43  1  0.88468069  0.20731910  0.37532473  1
  N  N44  1  0.77980916  0.09130108  0.13065011  1
  N  N45  1  0.55589088  0.20487145  0.88102907  1
  N  N46  1  0.44521647  0.09441395  0.62941486  1
  N  N47  1  0.22458274  0.53552913  0.38193944  1
  N  N48  1  0.10905163  0.42984764  0.13143754  1
  N  N49  1  0.88938220  0.53788887  0.87930914  1
  N  N50  1  0.77816258  0.42751871  0.62920485  1
  N  N51  1  0.55654138  0.53552910  0.38193945  1
  N  N52  1  0.44476987  0.42711318  0.12832497  1
  N  N53  1  0.22238892  0.53892814  0.87864570  1
  N  N54  1  0.11097171  0.42751869  0.62920485  1
  N  N55  1  0.88860638  0.53944050  0.38017471  1
  N  N56  1  0.77775370  0.42984765  0.13143755  1
  N  N57  1  0.55533617  0.53892812  0.87864569  1
  N  N58  1  0.44533358  0.42598580  0.63126136  1
  N  N59  1  0.22328339  0.87008648  0.36637180  1
  N  N60  1  0.10038200  0.74938926  0.13566237  1
  N  N61  1  0.88937909  0.87209650  0.87749664  1
  N  N62  1  0.77839041  0.75987218  0.63092998  1
  N  N63  1  0.55755198  0.87251105  0.38245470  1
  N  N64  1  0.46688179  0.74938919  0.13566239  1
  N  N65  1  0.23011270  0.85642793  0.87808817  1
  N  N66  1  0.11142076  0.75977599  0.62578184  1
  N  N67  1  0.88659024  0.87251106  0.38245467  1
  N  N68  1  0.77787134  0.76091030  0.12902683  1
  N  N69  1  0.55517770  0.87209651  0.87749661  1
  N  N70  1  0.44545625  0.75977598  0.62578184  1
  O  O71  1  0.09719997  0.12225290  0.12154699  1
