# generated using pymatgen
data_Sc2Al34N35O
_symmetry_space_group_name_H-M   'P 1'
_cell_length_a   9.42219892
_cell_length_b   9.43727680
_cell_length_c   10.01465235
_cell_angle_alpha   89.88013892
_cell_angle_beta   90.00000044
_cell_angle_gamma   60.05284113
_symmetry_Int_Tables_number   1
_chemical_formula_structural   Sc2Al34N35O
_chemical_formula_sum   'Sc2 Al34 N35 O1'
_cell_volume   771.60530537
_cell_formula_units_Z   1
loop_
 _symmetry_equiv_pos_site_id
 _symmetry_equiv_pos_as_xyz
  1  'x, y, z'
loop_
 _atom_site_type_symbol
 _atom_site_label
 _atom_site_symmetry_multiplicity
 _atom_site_fract_x
 _atom_site_fract_y
 _atom_site_fract_z
 _atom_site_occupancy
  Al  Al0  1  0.10768472  0.10119574  0.33279042  1
  Al  Al1  1  0.22569439  0.21543396  0.06756712  1
  Al  Al2  1  0.77470634  0.09438872  0.81562914  1
  Al  Al3  1  0.88277493  0.20809015  0.55897232  1
  Al  Al4  1  0.44732808  0.09278089  0.31504843  1
  Al  Al5  1  0.55603549  0.20449416  0.06485234  1
  Al  Al6  1  0.22570006  0.20809015  0.55897232  1
  Al  Al7  1  0.77645619  0.09278088  0.31504842  1
  Al  Al8  1  0.87543678  0.21543394  0.06756711  1
  Al  Al9  1  0.44747005  0.09438873  0.81562914  1
  Al  Al10  1  0.55566619  0.20523277  0.56524191  1
  Al  Al11  1  0.10998825  0.43097258  0.31478766  1
  Al  Al12  1  0.22198833  0.53583541  0.06375604  1
  Al  Al13  1  0.77493723  0.43008604  0.81528955  1
  Al  Al14  1  0.88901925  0.53852668  0.56533153  1
  Al  Al15  1  0.44478427  0.42699665  0.31528269  1
  Al  Al16  1  0.55874140  0.53583544  0.06375605  1
  Al  Al17  1  0.11154188  0.43008604  0.81528953  1
  Al  Al18  1  0.22359813  0.53676316  0.56569576  1
  Al  Al19  1  0.77560438  0.43097256  0.31478764  1
  Al  Al20  1  0.88799388  0.54057739  0.06497031  1
  Al  Al21  1  0.44495913  0.42664689  0.81546061  1
  Al  Al22  1  0.55620391  0.53676315  0.56569576  1
  Al  Al23  1  0.10711390  0.75626650  0.31697011  1
  Al  Al24  1  0.77823128  0.76010258  0.81425084  1
  Al  Al25  1  0.88805924  0.87198451  0.56566651  1
  Al  Al26  1  0.45318476  0.75626650  0.31697011  1
  Al  Al27  1  0.56038697  0.86965694  0.06345797  1
  Al  Al28  1  0.11202208  0.75665021  0.81222204  1
  Al  Al29  1  0.22499025  0.86658463  0.55581341  1
  Al  Al30  1  0.77765285  0.76125946  0.31527735  1
  Al  Al31  1  0.88652120  0.86965695  0.06345797  1
  Al  Al32  1  0.44789283  0.75665019  0.81222203  1
  Al  Al33  1  0.55652140  0.87198451  0.56566652  1
  Sc  Sc34  1  0.11058304  0.09539922  0.80568055  1
  Sc  Sc35  1  0.22220785  0.87214942  0.07974095  1
  N  N36  1  0.22472456  0.20847036  0.36909113  1
  N  N37  1  0.87368879  0.21275889  0.88082366  1
  N  N38  1  0.77826441  0.09419751  0.62415994  1
  N  N39  1  0.55573978  0.20508560  0.37385589  1
  N  N40  1  0.44503638  0.09145226  0.12441342  1
  N  N41  1  0.23011744  0.21275888  0.88082366  1
  N  N42  1  0.11159343  0.09337827  0.59508542  1
  N  N43  1  0.88337026  0.20847035  0.36909109  1
  N  N44  1  0.78007645  0.09145227  0.12441342  1
  N  N45  1  0.55584525  0.20487459  0.87469917  1
  N  N46  1  0.44410321  0.09419751  0.62415996  1
  N  N47  1  0.22377907  0.53685787  0.37565751  1
  N  N48  1  0.10897511  0.42976836  0.12511144  1
  N  N49  1  0.88917299  0.53821919  0.87369887  1
  N  N50  1  0.77898343  0.42601276  0.62407356  1
  N  N51  1  0.55592828  0.53685785  0.37565747  1
  N  N52  1  0.44497888  0.42660737  0.12331510  1
  N  N53  1  0.22278895  0.53806220  0.87307772  1
  N  N54  1  0.11156897  0.42601275  0.62407358  1
  N  N55  1  0.88872668  0.53911183  0.37418437  1
  N  N56  1  0.77782168  0.42976837  0.12511143  1
  N  N57  1  0.55571399  0.53806222  0.87307771  1
  N  N58  1  0.44519702  0.42617114  0.62455584  1
  N  N59  1  0.22275641  0.87105237  0.35891426  1
  N  N60  1  0.10103931  0.74960743  0.12888995  1
  N  N61  1  0.88959467  0.87145267  0.87227103  1
  N  N62  1  0.77832936  0.75990642  0.62412680  1
  N  N63  1  0.55653555  0.87281957  0.37554973  1
  N  N64  1  0.46591834  0.74960746  0.12888995  1
  N  N65  1  0.23005626  0.85645262  0.87128470  1
  N  N66  1  0.11189973  0.76017062  0.62006781  1
  N  N67  1  0.88721005  0.87281957  0.37554975  1
  N  N68  1  0.77780547  0.76095418  0.12404552  1
  N  N69  1  0.55551778  0.87145269  0.87227101  1
  N  N70  1  0.44449478  0.76017062  0.62006781  1
  O  O71  1  0.09675480  0.12305551  0.13141038  1
