# generated using pymatgen
data_Sc2Al34N35O
_symmetry_space_group_name_H-M   'P 1'
_cell_length_a   9.42220264
_cell_length_b   9.43727687
_cell_length_c   10.01464998
_cell_angle_alpha   89.87967686
_cell_angle_beta   90.00000226
_cell_angle_gamma   60.05283230
_symmetry_Int_Tables_number   1
_chemical_formula_structural   Sc2Al34N35O
_chemical_formula_sum   'Sc2 Al34 N35 O1'
_cell_volume   771.60534726
_cell_formula_units_Z   1
loop_
 _symmetry_equiv_pos_site_id
 _symmetry_equiv_pos_as_xyz
  1  'x, y, z'
loop_
 _atom_site_type_symbol
 _atom_site_label
 _atom_site_symmetry_multiplicity
 _atom_site_fract_x
 _atom_site_fract_y
 _atom_site_fract_z
 _atom_site_occupancy
  Al  Al0  1  0.10765236  0.10119264  0.32497639  1
  Al  Al1  1  0.22566142  0.21543192  0.05975090  1
  Al  Al2  1  0.77467399  0.09438573  0.80781236  1
  Al  Al3  1  0.88274204  0.20808715  0.55115497  1
  Al  Al4  1  0.44729557  0.09277848  0.30723167  1
  Al  Al5  1  0.55600279  0.20449179  0.05703514  1
  Al  Al6  1  0.22566817  0.20808715  0.55115500  1
  Al  Al7  1  0.77642332  0.09277846  0.30723168  1
  Al  Al8  1  0.87540397  0.21543190  0.05975092  1
  Al  Al9  1  0.44743756  0.09438577  0.80781239  1
  Al  Al10  1  0.55563403  0.20522931  0.55742512  1
  Al  Al11  1  0.10995541  0.43097027  0.30697070  1
  Al  Al12  1  0.22195593  0.53583331  0.05594051  1
  Al  Al13  1  0.77490416  0.43008352  0.80747297  1
  Al  Al14  1  0.88898703  0.53852329  0.55751489  1
  Al  Al15  1  0.44475175  0.42699383  0.30746609  1
  Al  Al16  1  0.55870810  0.53583329  0.05594047  1
  Al  Al17  1  0.11150967  0.43008351  0.80747299  1
  Al  Al18  1  0.22356559  0.53676020  0.55787842  1
  Al  Al19  1  0.77557165  0.43097027  0.30697068  1
  Al  Al20  1  0.88796119  0.54057492  0.05715332  1
  Al  Al21  1  0.44492641  0.42664452  0.80764356  1
  Al  Al22  1  0.55617157  0.53676016  0.55787841  1
  Al  Al23  1  0.10708184  0.75626448  0.30915324  1
  Al  Al24  1  0.77819859  0.76010013  0.80643486  1
  Al  Al25  1  0.88802725  0.87198087  0.55784920  1
  Al  Al26  1  0.45315103  0.75626445  0.30915327  1
  Al  Al27  1  0.56035421  0.86965481  0.05564286  1
  Al  Al28  1  0.11198900  0.75664767  0.80440716  1
  Al  Al29  1  0.22495826  0.86658081  0.54799956  1
  Al  Al30  1  0.77762043  0.76125644  0.30746080  1
  Al  Al31  1  0.88648828  0.86965480  0.05564289  1
  Al  Al32  1  0.44786063  0.75664767  0.80440712  1
  Al  Al33  1  0.55648921  0.87198087  0.55784921  1
  Sc  Sc34  1  0.11054945  0.09539819  0.79786334  1
  Sc  Sc35  1  0.22217400  0.87214949  0.07192289  1
  N  N36  1  0.22469238  0.20846762  0.36127467  1
  N  N37  1  0.87365617  0.21275584  0.87300803  1
  N  N38  1  0.77823261  0.09419350  0.61634344  1
  N  N39  1  0.55570748  0.20508243  0.36603985  1
  N  N40  1  0.44500379  0.09144993  0.11659745  1
  N  N41  1  0.23008523  0.21275579  0.87300800  1
  N  N42  1  0.11156104  0.09337523  0.58726873  1
  N  N43  1  0.88333736  0.20846761  0.36127465  1
  N  N44  1  0.78004360  0.09144991  0.11659748  1
  N  N45  1  0.55581289  0.20487158  0.86688246  1
  N  N46  1  0.44407124  0.09419350  0.61634348  1
  N  N47  1  0.22374655  0.53685504  0.36784067  1
  N  N48  1  0.10894237  0.42976611  0.11729521  1
  N  N49  1  0.88914072  0.53821592  0.86588252  1
  N  N50  1  0.77895120  0.42600899  0.61625730  1
  N  N51  1  0.55589577  0.53685502  0.36784066  1
  N  N52  1  0.44494653  0.42660424  0.11549933  1
  N  N53  1  0.22275682  0.53805920  0.86526251  1
  N  N54  1  0.11153713  0.42600901  0.61625731  1
  N  N55  1  0.88869441  0.53910851  0.36636840  1
  N  N56  1  0.77778883  0.42976610  0.11729520  1
  N  N57  1  0.55568134  0.53805920  0.86526247  1
  N  N58  1  0.44516477  0.42616776  0.61673923  1
  N  N59  1  0.22272405  0.87104929  0.35110075  1
  N  N60  1  0.10100748  0.74960558  0.12107372  1
  N  N61  1  0.88956198  0.87144975  0.86445617  1
  N  N62  1  0.77829721  0.75990290  0.61631080  1
  N  N63  1  0.55650308  0.87281631  0.36773290  1
  N  N64  1  0.46588437  0.74960550  0.12107374  1
  N  N65  1  0.23002307  0.85645120  0.86346772  1
  N  N66  1  0.11186727  0.76016667  0.61225286  1
  N  N67  1  0.88717795  0.87281630  0.36773289  1
  N  N68  1  0.77777315  0.76095098  0.11622997  1
  N  N69  1  0.55548559  0.87144977  0.86445614  1
  N  N70  1  0.44446338  0.76016664  0.61225283  1
  O  O71  1  0.09672178  0.12305371  0.12359594  1
