# generated using pymatgen
data_Sc2Al34N35O
_symmetry_space_group_name_H-M   'P 1'
_cell_length_a   9.42780080
_cell_length_b   9.44066040
_cell_length_c   10.00685291
_cell_angle_alpha   90.06989830
_cell_angle_beta   90.00000179
_cell_angle_gamma   60.04504579
_symmetry_Int_Tables_number   1
_chemical_formula_structural   Sc2Al34N35O
_chemical_formula_sum   'Sc2 Al34 N35 O1'
_cell_volume   771.68035146
_cell_formula_units_Z   1
loop_
 _symmetry_equiv_pos_site_id
 _symmetry_equiv_pos_as_xyz
  1  'x, y, z'
loop_
 _atom_site_type_symbol
 _atom_site_label
 _atom_site_symmetry_multiplicity
 _atom_site_fract_x
 _atom_site_fract_y
 _atom_site_fract_z
 _atom_site_occupancy
  Al  Al0  1  0.11076420  0.09524739  0.40864165  1
  Al  Al1  1  0.22464535  0.21392318  0.15338487  1
  Al  Al2  1  0.77386292  0.09454669  0.89722030  1
  Al  Al3  1  0.87982647  0.20994334  0.64516667  1
  Al  Al4  1  0.44681480  0.09254199  0.39753925  1
  Al  Al5  1  0.55584383  0.20508811  0.14738391  1
  Al  Al6  1  0.22700598  0.20994335  0.64516667  1
  Al  Al7  1  0.77741898  0.09254201  0.39753926  1
  Al  Al8  1  0.87820723  0.21392316  0.15338488  1
  Al  Al9  1  0.44836621  0.09454669  0.89722030  1
  Al  Al10  1  0.55595197  0.20487184  0.64797438  1
  Al  Al11  1  0.10981946  0.42945395  0.39785868  1
  Al  Al12  1  0.22254785  0.53536954  0.14794724  1
  Al  Al13  1  0.77273166  0.43195879  0.89733182  1
  Al  Al14  1  0.88895195  0.53887185  0.64757252  1
  Al  Al15  1  0.44506629  0.42664316  0.39774008  1
  Al  Al16  1  0.55885841  0.53536950  0.14794724  1
  Al  Al17  1  0.11208533  0.43195884  0.89733182  1
  Al  Al18  1  0.22321648  0.53711431  0.64766517  1
  Al  Al19  1  0.77750234  0.42945394  0.39785868  1
  Al  Al20  1  0.88828205  0.54021164  0.14728556  1
  Al  Al21  1  0.44480806  0.42715965  0.89648297  1
  Al  Al22  1  0.55644497  0.53711427  0.64766518  1
  Al  Al23  1  0.11002964  0.75888359  0.40181952  1
  Al  Al24  1  0.77779980  0.76117617  0.89707389  1
  Al  Al25  1  0.88782779  0.87212691  0.64759469  1
  Al  Al26  1  0.44786259  0.75888354  0.40181952  1
  Al  Al27  1  0.56036435  0.86957373  0.14846192  1
  Al  Al28  1  0.10950823  0.75456619  0.89479265  1
  Al  Al29  1  0.22606451  0.86464676  0.64720566  1
  Al  Al30  1  0.77829831  0.76017916  0.39840581  1
  Al  Al31  1  0.88683775  0.86957372  0.14846191  1
  Al  Al32  1  0.45270138  0.75456616  0.89479266  1
  Al  Al33  1  0.55682107  0.87212690  0.64759469  1
  Sc  Sc34  1  0.10806045  0.10065496  0.87923062  1
  Sc  Sc35  1  0.22273269  0.87131044  0.14573113  1
  N  N36  1  0.22151700  0.20417336  0.34193528  1
  N  N37  1  0.86497414  0.21760841  0.83350356  1
  N  N38  1  0.77698242  0.09296058  0.58712139  1
  N  N39  1  0.55597177  0.20483220  0.33754777  1
  N  N40  1  0.44237427  0.09293124  0.08994892  1
  N  N41  1  0.23419325  0.21760843  0.83350356  1
  N  N42  1  0.11072339  0.09532902  0.60315180  1
  N  N43  1  0.89108542  0.20417335  0.34193529  1
  N  N44  1  0.78147026  0.09293123  0.08994893  1
  N  N45  1  0.55583300  0.20510979  0.83947461  1
  N  N46  1  0.44683280  0.09296056  0.58712138  1
  N  N47  1  0.22283428  0.53825565  0.33884617  1
  N  N48  1  0.11059126  0.42672006  0.08902551  1
  N  N49  1  0.88930818  0.53815942  0.83959329  1
  N  N50  1  0.77735212  0.42928474  0.58715916  1
  N  N51  1  0.55568583  0.53825562  0.33884617  1
  N  N52  1  0.44506594  0.42664388  0.08872559  1
  N  N53  1  0.22380328  0.53722368  0.83756783  1
  N  N54  1  0.11013889  0.42928474  0.58715914  1
  N  N55  1  0.88891088  0.53895398  0.33794015  1
  N  N56  1  0.77946448  0.42672003  0.08902552  1
  N  N57  1  0.55574884  0.53722364  0.83756785  1
  N  N58  1  0.44518971  0.42639634  0.58872171  1
  N  N59  1  0.22186527  0.87304527  0.35479191  1
  N  N60  1  0.10277100  0.75109783  0.08454661  1
  N  N61  1  0.88761511  0.87321779  0.83835560  1
  N  N62  1  0.77829184  0.76019209  0.58906906  1
  N  N63  1  0.55619440  0.87103719  0.33920063  1
  N  N64  1  0.46290701  0.75109781  0.08454663  1
  N  N65  1  0.23187480  0.85302619  0.84125594  1
  N  N66  1  0.11026032  0.75904086  0.59149816  1
  N  N67  1  0.88954416  0.87103720  0.33920063  1
  N  N68  1  0.77801215  0.76075151  0.08807032  1
  N  N69  1  0.55594286  0.87321779  0.83835561  1
  N  N70  1  0.44747463  0.75904082  0.59149817  1
  O  O71  1  0.09816554  0.12044468  0.09450072  1
