# generated using pymatgen
data_Sc2Al34N35O
_symmetry_space_group_name_H-M   'P 1'
_cell_length_a   9.87060751
_cell_length_b   9.88183773
_cell_length_c   8.69513795
_cell_angle_alpha   90.00415839
_cell_angle_beta   90.00000429
_cell_angle_gamma   60.03760390
_symmetry_Int_Tables_number   1
_chemical_formula_structural   Sc2Al34N35O
_chemical_formula_sum   'Sc2 Al34 N35 O1'
_cell_volume   734.77292836
_cell_formula_units_Z   1
loop_
 _symmetry_equiv_pos_site_id
 _symmetry_equiv_pos_as_xyz
  1  'x, y, z'
loop_
 _atom_site_type_symbol
 _atom_site_label
 _atom_site_symmetry_multiplicity
 _atom_site_fract_x
 _atom_site_fract_y
 _atom_site_fract_z
 _atom_site_occupancy
  Al  Al0  1  0.10960618  0.09744060  0.36915358  1
  Al  Al1  1  0.22676970  0.21402098  0.10043660  1
  Al  Al2  1  0.77405003  0.09474960  0.84221400  1
  Al  Al3  1  0.88129704  0.20925140  0.58834060  1
  Al  Al4  1  0.44804624  0.09140212  0.34391259  1
  Al  Al5  1  0.55634350  0.20396607  0.09412038  1
  Al  Al6  1  0.22610461  0.20925139  0.58834054  1
  Al  Al7  1  0.77720467  0.09140209  0.34391261  1
  Al  Al8  1  0.87586240  0.21402089  0.10043653  1
  Al  Al9  1  0.44785332  0.09474970  0.84221403  1
  Al  Al10  1  0.55510218  0.20644871  0.59124771  1
  Al  Al11  1  0.10915132  0.43090526  0.34428848  1
  Al  Al12  1  0.22176186  0.53576951  0.09244710  1
  Al  Al13  1  0.77436932  0.43095015  0.84135754  1
  Al  Al14  1  0.88856267  0.53952776  0.59307238  1
  Al  Al15  1  0.44487797  0.42689722  0.34136363  1
  Al  Al16  1  0.55912180  0.53576948  0.09244706  1
  Al  Al17  1  0.11133360  0.43095016  0.84135751  1
  Al  Al18  1  0.22509945  0.53586497  0.59313452  1
  Al  Al19  1  0.77659652  0.43090522  0.34428846  1
  Al  Al20  1  0.88846966  0.53971379  0.09277454  1
  Al  Al21  1  0.44525638  0.42614034  0.84470186  1
  Al  Al22  1  0.55568871  0.53586500  0.59313455  1
  Al  Al23  1  0.10762672  0.75722608  0.35063654  1
  Al  Al24  1  0.77832450  0.76000407  0.84295788  1
  Al  Al25  1  0.88699741  0.87200508  0.59425286  1
  Al  Al26  1  0.45180030  0.75722609  0.35063651  1
  Al  Al27  1  0.55963266  0.87038723  0.09169994  1
  Al  Al28  1  0.11036078  0.75615787  0.83899261  1
  Al  Al29  1  0.22506540  0.86652236  0.59725895  1
  Al  Al30  1  0.77791519  0.76082273  0.34261851  1
  Al  Al31  1  0.88663326  0.87038717  0.09169995  1
  Al  Al32  1  0.45013435  0.75615796  0.83899264  1
  Al  Al33  1  0.55765061  0.87200513  0.59425288  1
  Sc  Sc34  1  0.10814447  0.10036412  0.84395175  1
  Sc  Sc35  1  0.22444268  0.86776774  0.10668356  1
  N  N36  1  0.22276587  0.20546914  0.35778804  1
  N  N37  1  0.86964956  0.21513709  0.87107740  1
  N  N38  1  0.77707174  0.09484407  0.61308773  1
  N  N39  1  0.55549497  0.20566312  0.36383848  1
  N  N40  1  0.44667646  0.09107173  0.11736219  1
  N  N41  1  0.23186638  0.21513714  0.87107745  1
  N  N42  1  0.10954164  0.09756969  0.59885899  1
  N  N43  1  0.88841801  0.20546914  0.35778807  1
  N  N44  1  0.77890485  0.09107167  0.11736218  1
  N  N45  1  0.55618506  0.20428297  0.86668455  1
  N  N46  1  0.44473716  0.09484412  0.61308774  1
  N  N47  1  0.22479264  0.53589658  0.36708243  1
  N  N48  1  0.10868255  0.43030000  0.11799955  1
  N  N49  1  0.88961616  0.53742082  0.86421716  1
  N  N50  1  0.77807006  0.42738047  0.61291520  1
  N  N51  1  0.55596396  0.53589659  0.36708245  1
  N  N52  1  0.44479001  0.42707309  0.11312563  1
  N  N53  1  0.22246756  0.53842400  0.86364062  1
  N  N54  1  0.11120255  0.42738048  0.61291516  1
  N  N55  1  0.88823213  0.54018884  0.36635337  1
  N  N56  1  0.77767058  0.43029992  0.11799951  1
  N  N57  1  0.55576155  0.53842404  0.86364059  1
  N  N58  1  0.44543098  0.42579114  0.61732434  1
  N  N59  1  0.22150725  0.87363866  0.36319352  1
  N  N60  1  0.10232797  0.75108994  0.11959877  1
  N  N61  1  0.88904854  0.87258996  0.86240062  1
  N  N62  1  0.77836283  0.75992743  0.61734788  1
  N  N63  1  0.55802364  0.87189972  0.36805963  1
  N  N64  1  0.46323517  0.75108994  0.11959874  1
  N  N65  1  0.22965721  0.85733866  0.85393196  1
  N  N66  1  0.11059650  0.75901318  0.60963862  1
  N  N67  1  0.88672981  0.87189969  0.36805962  1
  N  N68  1  0.77806856  0.76051593  0.11335175  1
  N  N69  1  0.55501458  0.87259003  0.86240061  1
  N  N70  1  0.44704342  0.75901320  0.60963863  1
  O  O71  1  0.09985847  0.11693600  0.11041221  1
