# generated using pymatgen
data_Sc2Al34N35O
_symmetry_space_group_name_H-M   'P 1'
_cell_length_a   9.94810051
_cell_length_b   9.95900373
_cell_length_c   8.45840287
_cell_angle_alpha   90.00791329
_cell_angle_beta   89.99999782
_cell_angle_gamma   60.03620307
_symmetry_Int_Tables_number   1
_chemical_formula_structural   Sc2Al34N35O
_chemical_formula_sum   'Sc2 Al34 N35 O1'
_cell_volume   725.99456570
_cell_formula_units_Z   1
loop_
 _symmetry_equiv_pos_site_id
 _symmetry_equiv_pos_as_xyz
  1  'x, y, z'
loop_
 _atom_site_type_symbol
 _atom_site_label
 _atom_site_symmetry_multiplicity
 _atom_site_fract_x
 _atom_site_fract_y
 _atom_site_fract_z
 _atom_site_occupancy
  Al  Al0  1  0.10918305  0.09828692  0.36792537  1
  Al  Al1  1  0.22697625  0.21381322  0.10542676  1
  Al  Al2  1  0.77421007  0.09403318  0.85058146  1
  Al  Al3  1  0.88139847  0.20925901  0.59696556  1
  Al  Al4  1  0.44735679  0.09199276  0.35136065  1
  Al  Al5  1  0.55599013  0.20467285  0.10199889  1
  Al  Al6  1  0.22599553  0.20925902  0.59696551  1
  Al  Al7  1  0.77730352  0.09199267  0.35136065  1
  Al  Al8  1  0.87586371  0.21381306  0.10542676  1
  Al  Al9  1  0.44840971  0.09403329  0.85058146  1
  Al  Al10  1  0.55537468  0.20590374  0.59968761  1
  Al  Al11  1  0.10935443  0.43022564  0.35172921  1
  Al  Al12  1  0.22253391  0.53535067  0.10154800  1
  Al  Al13  1  0.77414014  0.43150591  0.84992443  1
  Al  Al14  1  0.88882363  0.53900584  0.60067714  1
  Al  Al15  1  0.44499049  0.42667219  0.35090445  1
  Al  Al16  1  0.55876862  0.53535065  0.10154798  1
  Al  Al17  1  0.11100700  0.43150596  0.84992438  1
  Al  Al18  1  0.22441157  0.53642610  0.60052723  1
  Al  Al19  1  0.77707307  0.43022556  0.35172919  1
  Al  Al20  1  0.88827981  0.54009347  0.10134177  1
  Al  Al21  1  0.44512207  0.42640899  0.85122654  1
  Al  Al22  1  0.55581547  0.53642612  0.60052724  1
  Al  Al23  1  0.10800115  0.75776070  0.35627963  1
  Al  Al24  1  0.77818284  0.76028734  0.84997146  1
  Al  Al25  1  0.88754093  0.87211615  0.60124178  1
  Al  Al26  1  0.45089123  0.75776071  0.35627962  1
  Al  Al27  1  0.56003707  0.87037015  0.10108919  1
  Al  Al28  1  0.10986169  0.75583293  0.84738852  1
  Al  Al29  1  0.22517307  0.86630697  0.60148799  1
  Al  Al30  1  0.77805994  0.76053319  0.35226333  1
  Al  Al31  1  0.88624592  0.87037003  0.10108917  1
  Al  Al32  1  0.45095839  0.75583299  0.84738850  1
  Al  Al33  1  0.55699599  0.87211623  0.60124178  1
  Sc  Sc34  1  0.10834512  0.09996289  0.84588951  1
  Sc  Sc35  1  0.22470557  0.86724199  0.10693817  1
  N  N36  1  0.22255511  0.20533668  0.35245286  1
  N  N37  1  0.87046535  0.21467671  0.86223750  1
  N  N38  1  0.77719360  0.09450396  0.60553686  1
  N  N39  1  0.55567411  0.20530482  0.35641482  1
  N  N40  1  0.44635886  0.09161476  0.10941752  1
  N  N41  1  0.23151091  0.21467681  0.86223750  1
  N  N42  1  0.10922386  0.09820529  0.59745901  1
  N  N43  1  0.88876124  0.20533662  0.35245284  1
  N  N44  1  0.77867953  0.09161463  0.10941750  1
  N  N45  1  0.55601678  0.20461949  0.85846461  1
  N  N46  1  0.44495548  0.09450404  0.60553686  1
  N  N47  1  0.22409667  0.53660179  0.35877881  1
  N  N48  1  0.10903254  0.42981320  0.10967509  1
  N  N49  1  0.88941405  0.53782494  0.85672872  1
  N  N50  1  0.77786642  0.42770887  0.60553123  1
  N  N51  1  0.55595467  0.53660180  0.35877880  1
  N  N52  1  0.44485433  0.42694455  0.10664480  1
  N  N53  1  0.22308588  0.53783222  0.85608244  1
  N  N54  1  0.11107785  0.42770889  0.60553121  1
  N  N55  1  0.88843386  0.53978532  0.35821553  1
  N  N56  1  0.77780751  0.42981305  0.10967505  1
  N  N57  1  0.55573496  0.53783225  0.85608243  1
  N  N58  1  0.44533248  0.42598823  0.60813300  1
  N  N59  1  0.22115886  0.87433536  0.36236076  1
  N  N60  1  0.10291337  0.75148450  0.10985222  1
  N  N61  1  0.88855324  0.87260972  0.85540514  1
  N  N62  1  0.77828949  0.76007412  0.60858260  1
  N  N63  1  0.55751954  0.87182377  0.35936154  1
  N  N64  1  0.46225528  0.75148450  0.10985222  1
  N  N65  1  0.22954763  0.85755774  0.84867773  1
  N  N66  1  0.11041128  0.75898106  0.60445354  1
  N  N67  1  0.88730980  0.87182369  0.35936153  1
  N  N68  1  0.77815255  0.76034796  0.10619055  1
  N  N69  1  0.55549000  0.87260982  0.85540515  1
  N  N70  1  0.44726079  0.75898109  0.60445355  1
  O  O71  1  0.10039514  0.11586292  0.10945753  1
