# generated using pymatgen
data_Sc2Al34N35O
_symmetry_space_group_name_H-M   'P 1'
_cell_length_a   9.53771554
_cell_length_b   9.55187432
_cell_length_c   9.70506582
_cell_angle_alpha   90.06156455
_cell_angle_beta   89.99997784
_cell_angle_gamma   60.04896383
_symmetry_Int_Tables_number   1
_chemical_formula_structural   Sc2Al34N35O
_chemical_formula_sum   'Sc2 Al34 N35 O1'
_cell_volume   766.08298003
_cell_formula_units_Z   1
loop_
 _symmetry_equiv_pos_site_id
 _symmetry_equiv_pos_as_xyz
  1  'x, y, z'
loop_
 _atom_site_type_symbol
 _atom_site_label
 _atom_site_symmetry_multiplicity
 _atom_site_fract_x
 _atom_site_fract_y
 _atom_site_fract_z
 _atom_site_occupancy
  Al  Al0  1  0.11101527  0.09462304  0.39289976  1
  Al  Al1  1  0.22369909  0.21309354  0.13517679  1
  Al  Al2  1  0.77383359  0.09407297  0.88198795  1
  Al  Al3  1  0.87674630  0.21138926  0.62881907  1
  Al  Al4  1  0.44657754  0.09274663  0.38014069  1
  Al  Al5  1  0.55561516  0.20542327  0.13081277  1
  Al  Al6  1  0.22851793  0.21138928  0.62881907  1
  Al  Al7  1  0.77732941  0.09274661  0.38014070  1
  Al  Al8  1  0.87986088  0.21309355  0.13517679  1
  Al  Al9  1  0.44874703  0.09407304  0.88198795  1
  Al  Al10  1  0.55604723  0.20455906  0.63218391  1
  Al  Al11  1  0.10940635  0.42945563  0.38079852  1
  Al  Al12  1  0.22296314  0.53479584  0.13277772  1
  Al  Al13  1  0.77241778  0.43210365  0.88200914  1
  Al  Al14  1  0.88900292  0.53864768  0.63167362  1
  Al  Al15  1  0.44520047  0.42625264  0.38196484  1
  Al  Al16  1  0.55889449  0.53479589  0.13277770  1
  Al  Al17  1  0.11213213  0.43210367  0.88200914  1
  Al  Al18  1  0.22310727  0.53720183  0.63060197  1
  Al  Al19  1  0.77779158  0.42945564  0.38079851  1
  Al  Al20  1  0.88799440  0.54066470  0.13083386  1
  Al  Al21  1  0.44477795  0.42709770  0.87997353  1
  Al  Al22  1  0.55634443  0.53720183  0.63060198  1
  Al  Al23  1  0.11048912  0.75975152  0.38334444  1
  Al  Al24  1  0.77769557  0.76126236  0.88005867  1
  Al  Al25  1  0.88782087  0.87240840  0.63055229  1
  Al  Al26  1  0.44641289  0.75975154  0.38334444  1
  Al  Al27  1  0.56093101  0.86925231  0.13294721  1
  Al  Al28  1  0.10847306  0.75340910  0.87914850  1
  Al  Al29  1  0.22704625  0.86256096  0.63202154  1
  Al  Al30  1  0.77834504  0.75996343  0.38303031  1
  Al  Al31  1  0.88647016  0.86925224  0.13294722  1
  Al  Al32  1  0.45477135  0.75340914  0.87914848  1
  Al  Al33  1  0.55642421  0.87240843  0.63055229  1
  Sc  Sc34  1  0.10747633  0.10170097  0.85226639  1
  Sc  Sc35  1  0.22219111  0.87227107  0.11902497  1
  N  N36  1  0.22084049  0.20391987  0.32995281  1
  N  N37  1  0.86310872  0.21836438  0.82320662  1
  N  N38  1  0.77643436  0.09317477  0.57502160  1
  N  N39  1  0.55575682  0.20513983  0.32588507  1
  N  N40  1  0.44286993  0.09243676  0.07937052  1
  N  N41  1  0.23518033  0.21836440  0.82320659  1
  N  N42  1  0.11075830  0.09513705  0.59528555  1
  N  N43  1  0.89189311  0.20391986  0.32995280  1
  N  N44  1  0.78134708  0.09243670  0.07937053  1
  N  N45  1  0.55604306  0.20456738  0.82877724  1
  N  N46  1  0.44704456  0.09317477  0.57502159  1
  N  N47  1  0.22316936  0.53794954  0.32846275  1
  N  N48  1  0.11050684  0.42717773  0.07850699  1
  N  N49  1  0.88945235  0.53774874  0.82859589  1
  N  N50  1  0.77724955  0.42962604  0.57532011  1
  N  N51  1  0.55553455  0.53794956  0.32846274  1
  N  N52  1  0.44489298  0.42686774  0.07721153  1
  N  N53  1  0.22367683  0.53707276  0.82565602  1
  N  N54  1  0.10977808  0.42962607  0.57532010  1
  N  N55  1  0.88856262  0.53952820  0.32652705  1
  N  N56  1  0.77896911  0.42717772  0.07850698  1
  N  N57  1  0.55590386  0.53707280  0.82565605  1
  N  N58  1  0.44537145  0.42591082  0.57789241  1
  N  N59  1  0.22100945  0.87463453  0.33783023  1
  N  N60  1  0.10182689  0.74963919  0.07447503  1
  N  N61  1  0.88755198  0.87336031  0.82640054  1
  N  N62  1  0.77835366  0.75994633  0.57856035  1
  N  N63  1  0.55667262  0.87096253  0.32861459  1
  N  N64  1  0.46518747  0.74963928  0.07447503  1
  N  N65  1  0.23217486  0.85230363  0.83545512  1
  N  N66  1  0.11065369  0.75943690  0.57937894  1
  N  N67  1  0.88901829  0.87096251  0.32861461  1
  N  N68  1  0.77786434  0.76092492  0.07615347  1
  N  N69  1  0.55574106  0.87336036  0.82640055  1
  N  N70  1  0.44656307  0.75943691  0.57937895  1
  O  O71  1  0.09720850  0.12223671  0.07685185  1
