# generated using pymatgen
data_Sc2Al34N35O
_symmetry_space_group_name_H-M   'P 1'
_cell_length_a   9.95261065
_cell_length_b   9.96424754
_cell_length_c   8.44396905
_cell_angle_alpha   90.02471221
_cell_angle_beta   90.00000215
_cell_angle_gamma   60.03864708
_symmetry_Int_Tables_number   1
_chemical_formula_structural   Sc2Al34N35O
_chemical_formula_sum   'Sc2 Al34 N35 O1'
_cell_volume   725.48381950
_cell_formula_units_Z   1
loop_
 _symmetry_equiv_pos_site_id
 _symmetry_equiv_pos_as_xyz
  1  'x, y, z'
loop_
 _atom_site_type_symbol
 _atom_site_label
 _atom_site_symmetry_multiplicity
 _atom_site_fract_x
 _atom_site_fract_y
 _atom_site_fract_z
 _atom_site_occupancy
  Al  Al0  1  0.10891485  0.09882378  0.37041143  1
  Al  Al1  1  0.22650940  0.21346700  0.10837537  1
  Al  Al2  1  0.77419769  0.09342966  0.85722353  1
  Al  Al3  1  0.88055176  0.20971960  0.60442278  1
  Al  Al4  1  0.44658709  0.09259342  0.35638500  1
  Al  Al5  1  0.55572167  0.20521025  0.10765088  1
  Al  Al6  1  0.22638215  0.20971958  0.60442274  1
  Al  Al7  1  0.77747300  0.09259336  0.35638500  1
  Al  Al8  1  0.87667729  0.21346686  0.10837539  1
  Al  Al9  1  0.44902605  0.09342972  0.85722351  1
  Al  Al10  1  0.55563916  0.20537525  0.60614317  1
  Al  Al11  1  0.10954956  0.42943513  0.35700218  1
  Al  Al12  1  0.22302606  0.53511185  0.10820545  1
  Al  Al13  1  0.77370608  0.43215264  0.85678159  1
  Al  Al14  1  0.88901382  0.53862600  0.60652991  1
  Al  Al15  1  0.44515285  0.42634789  0.35770263  1
  Al  Al16  1  0.55851584  0.53511180  0.10820547  1
  Al  Al17  1  0.11079479  0.43215267  0.85678155  1
  Al  Al18  1  0.22393052  0.53670707  0.60579025  1
  Al  Al19  1  0.77766892  0.42943507  0.35700218  1
  Al  Al20  1  0.88805832  0.54053702  0.10762657  1
  Al  Al21  1  0.44498550  0.42668258  0.85617526  1
  Al  Al22  1  0.55601608  0.53670707  0.60579025  1
  Al  Al23  1  0.10830073  0.75807945  0.35987951  1
  Al  Al24  1  0.77802824  0.76059700  0.85513266  1
  Al  Al25  1  0.88776519  0.87236643  0.60616785  1
  Al  Al26  1  0.45027334  0.75807945  0.35987952  1
  Al  Al27  1  0.56042186  0.87012282  0.10789051  1
  Al  Al28  1  0.10959598  0.75548159  0.85265987  1
  Al  Al29  1  0.22538453  0.86588458  0.60326668  1
  Al  Al30  1  0.77818418  0.76028517  0.35942549  1
  Al  Al31  1  0.88610895  0.87012273  0.10789048  1
  Al  Al32  1  0.45157594  0.75548160  0.85265986  1
  Al  Al33  1  0.55652198  0.87236647  0.60616784  1
  Sc  Sc34  1  0.10867578  0.09930194  0.84599016  1
  Sc  Sc35  1  0.22449630  0.86766108  0.10694249  1
  N  N36  1  0.22215694  0.20509328  0.34855100  1
  N  N37  1  0.87018735  0.21476499  0.85535146  1
  N  N38  1  0.77707433  0.09427196  0.59994774  1
  N  N39  1  0.55576653  0.20512048  0.35078925  1
  N  N40  1  0.44590972  0.09185724  0.10382270  1
  N  N41  1  0.23170114  0.21476505  0.85535145  1
  N  N42  1  0.10915873  0.09833596  0.59736807  1
  N  N43  1  0.88940334  0.20509323  0.34855098  1
  N  N44  1  0.77888658  0.09185714  0.10382270  1
  N  N45  1  0.55595523  0.20474307  0.85293078  1
  N  N46  1  0.44530716  0.09427201  0.59994774  1
  N  N47  1  0.22374355  0.53692229  0.35331340  1
  N  N48  1  0.10932334  0.42943193  0.10361268  1
  N  N49  1  0.88929037  0.53807284  0.85150632  1
  N  N50  1  0.77773188  0.42812842  0.60009260  1
  N  N51  1  0.55598781  0.53692228  0.35331341  1
  N  N52  1  0.44484467  0.42696429  0.10167395  1
  N  N53  1  0.22346011  0.53747644  0.85047480  1
  N  N54  1  0.11079331  0.42812843  0.60009260  1
  N  N55  1  0.88852143  0.53961076  0.35219903  1
  N  N56  1  0.77789843  0.42943182  0.10361270  1
  N  N57  1  0.55571706  0.53747644  0.85047480  1
  N  N58  1  0.44536248  0.42592866  0.60213222  1
  N  N59  1  0.22093118  0.87479124  0.36112055  1
  N  N60  1  0.10307373  0.75144584  0.10352673  1
  N  N61  1  0.88825900  0.87269075  0.85023903  1
  N  N62  1  0.77828092  0.76009172  0.60293957  1
  N  N63  1  0.55727324  0.87174588  0.35362303  1
  N  N64  1  0.46213402  0.75144581  0.10352673  1
  N  N65  1  0.22979448  0.85706460  0.84697333  1
  N  N66  1  0.11034323  0.75902352  0.60113822  1
  N  N67  1  0.88763449  0.87174584  0.35362303  1
  N  N68  1  0.77813457  0.76038435  0.10056344  1
  N  N69  1  0.55570377  0.87269081  0.85023903  1
  N  N70  1  0.44728681  0.75902353  0.60113822  1
  O  O71  1  0.10027799  0.11609767  0.10518405  1
