# generated using pymatgen
data_Sc2Al34N35O
_symmetry_space_group_name_H-M   'P 1'
_cell_length_a   9.79097461
_cell_length_b   9.80398869
_cell_length_c   8.94311147
_cell_angle_alpha   90.05137023
_cell_angle_beta   89.99998896
_cell_angle_gamma   60.04388327
_symmetry_Int_Tables_number   1
_chemical_formula_structural   Sc2Al34N35O
_chemical_formula_sum   'Sc2 Al34 N35 O1'
_cell_volume   743.77168863
_cell_formula_units_Z   1
loop_
 _symmetry_equiv_pos_site_id
 _symmetry_equiv_pos_as_xyz
  1  'x, y, z'
loop_
 _atom_site_type_symbol
 _atom_site_label
 _atom_site_symmetry_multiplicity
 _atom_site_fract_x
 _atom_site_fract_y
 _atom_site_fract_z
 _atom_site_occupancy
  Al  Al0  1  0.10954097  0.09757155  0.38336477  1
  Al  Al1  1  0.22448838  0.21265184  0.12194186  1
  Al  Al2  1  0.77419337  0.09315796  0.87305144  1
  Al  Al3  1  0.87740617  0.21120047  0.61970912  1
  Al  Al4  1  0.44611999  0.09319052  0.36888251  1
  Al  Al5  1  0.55539147  0.20587058  0.12058099  1
  Al  Al6  1  0.22804686  0.21120045  0.61970911  1
  Al  Al7  1  0.77734303  0.09319051  0.36888254  1
  Al  Al8  1  0.87951323  0.21265182  0.12194187  1
  Al  Al9  1  0.44930218  0.09315799  0.87305145  1
  Al  Al10  1  0.55606378  0.20452594  0.62192067  1
  Al  Al11  1  0.10941544  0.42892818  0.36996248  1
  Al  Al12  1  0.22335906  0.53487707  0.12344746  1
  Al  Al13  1  0.77283725  0.43248769  0.87263767  1
  Al  Al14  1  0.88930951  0.53803447  0.62133850  1
  Al  Al15  1  0.44542251  0.42580862  0.37256085  1
  Al  Al16  1  0.55841747  0.53487704  0.12344747  1
  Al  Al17  1  0.11132863  0.43248766  0.87263765  1
  Al  Al18  1  0.22333656  0.53681419  0.61953944  1
  Al  Al19  1  0.77830998  0.42892816  0.36996248  1
  Al  Al20  1  0.88768052  0.54129250  0.12108546  1
  Al  Al21  1  0.44474685  0.42715991  0.86940805  1
  Al  Al22  1  0.55650281  0.53681419  0.61953945  1
  Al  Al23  1  0.10930728  0.75894914  0.37259247  1
  Al  Al24  1  0.77771390  0.76122572  0.86809472  1
  Al  Al25  1  0.88766530  0.87295901  0.61958378  1
  Al  Al26  1  0.44839713  0.75894915  0.37259245  1
  Al  Al27  1  0.56125309  0.86926352  0.12327879  1
  Al  Al28  1  0.10894192  0.75440231  0.86702898  1
  Al  Al29  1  0.22606616  0.86452128  0.61326351  1
  Al  Al30  1  0.77843664  0.75978027  0.37477425  1
  Al  Al31  1  0.88613691  0.86926347  0.12327879  1
  Al  Al32  1  0.45330932  0.75440231  0.86702898  1
  Al  Al33  1  0.55602921  0.87295902  0.61958377  1
  Sc  Sc34  1  0.10845503  0.09974348  0.84553060  1
  Sc  Sc35  1  0.22328048  0.87009256  0.10909352  1
  N  N36  1  0.22103653  0.20415903  0.33723885  1
  N  N37  1  0.86679564  0.21637784  0.83810212  1
  N  N38  1  0.77647400  0.09404539  0.58465896  1
  N  N39  1  0.55561580  0.20542189  0.33582420  1
  N  N40  1  0.44464140  0.09188418  0.09074816  1
  N  N41  1  0.23348000  0.21637779  0.83810213  1
  N  N42  1  0.10966001  0.09733348  0.59795702  1
  N  N43  1  0.89145790  0.20415904  0.33723884  1
  N  N44  1  0.78012796  0.09188415  0.09074814  1
  N  N45  1  0.55616667  0.20432021  0.83969989  1
  N  N46  1  0.44613420  0.09404538  0.58465895  1
  N  N47  1  0.22364784  0.53735167  0.33984798  1
  N  N48  1  0.10990841  0.42857703  0.08985361  1
  N  N49  1  0.88953001  0.53759343  0.83853512  1
  N  N50  1  0.77769198  0.42884393  0.58517031  1
  N  N51  1  0.55565410  0.53735170  0.33984797  1
  N  N52  1  0.44468033  0.42729302  0.08717874  1
  N  N53  1  0.22357987  0.53697644  0.83560370  1
  N  N54  1  0.11011762  0.42884394  0.58517033  1
  N  N55  1  0.88832387  0.54000585  0.33726450  1
  N  N56  1  0.77816824  0.42857697  0.08985359  1
  N  N57  1  0.55609713  0.53697649  0.83560371  1
  N  N58  1  0.44556732  0.42551895  0.58874174  1
  N  N59  1  0.22069812  0.87525728  0.35153027  1
  N  N60  1  0.10237362  0.75045760  0.08743801  1
  N  N61  1  0.88774698  0.87345564  0.83596283  1
  N  N62  1  0.77842691  0.75979979  0.59030931  1
  N  N63  1  0.55742488  0.87108753  0.33997905  1
  N  N64  1  0.46382237  0.75045757  0.08743803  1
  N  N65  1  0.23093194  0.85478966  0.84392352  1
  N  N66  1  0.11034019  0.75917993  0.58965468  1
  N  N67  1  0.88814107  0.87108753  0.33997906  1
  N  N68  1  0.77793074  0.76079201  0.08520411  1
  N  N69  1  0.55545088  0.87345565  0.83596284  1
  N  N70  1  0.44713353  0.75917990  0.58965466  1
  O  O71  1  0.09869296  0.11926756  0.08806799  1
