# generated using pymatgen
data_Sc2Al34N35O
_symmetry_space_group_name_H-M   'P 1'
_cell_length_a   9.64583679
_cell_length_b   9.65953666
_cell_length_c   9.39054812
_cell_angle_alpha   90.05904782
_cell_angle_beta   89.99997898
_cell_angle_gamma   60.04685022
_symmetry_Int_Tables_number   1
_chemical_formula_structural   Sc2Al34N35O
_chemical_formula_sum   'Sc2 Al34 N35 O1'
_cell_volume   758.09268380
_cell_formula_units_Z   1
loop_
 _symmetry_equiv_pos_site_id
 _symmetry_equiv_pos_as_xyz
  1  'x, y, z'
loop_
 _atom_site_type_symbol
 _atom_site_label
 _atom_site_symmetry_multiplicity
 _atom_site_fract_x
 _atom_site_fract_y
 _atom_site_fract_z
 _atom_site_occupancy
  Al  Al0  1  0.11054462  0.09556431  0.38983453  1
  Al  Al1  1  0.22376364  0.21276022  0.13064782  1
  Al  Al2  1  0.77399881  0.09367575  0.87938827  1
  Al  Al3  1  0.87626480  0.21166857  0.62594331  1
  Al  Al4  1  0.44638697  0.09296245  0.37617666  1
  Al  Al5  1  0.55545436  0.20574483  0.12731192  1
  Al  Al6  1  0.22872010  0.21166857  0.62594330  1
  Al  Al7  1  0.77730414  0.09296243  0.37617668  1
  Al  Al8  1  0.88012962  0.21276021  0.13064782  1
  Al  Al9  1  0.44897899  0.09367581  0.87938827  1
  Al  Al10  1  0.55610120  0.20445109  0.62903179  1
  Al  Al11  1  0.10932173  0.42926522  0.37706305  1
  Al  Al12  1  0.22315693  0.53478278  0.12998155  1
  Al  Al13  1  0.77255052  0.43221725  0.87921485  1
  Al  Al14  1  0.88915270  0.53834811  0.62844931  1
  Al  Al15  1  0.44532240  0.42600879  0.37901765  1
  Al  Al16  1  0.55871380  0.53478280  0.12998154  1
  Al  Al17  1  0.11188579  0.43221727  0.87921485  1
  Al  Al18  1  0.22316638  0.53703319  0.62687159  1
  Al  Al19  1  0.77806662  0.42926522  0.37706304  1
  Al  Al20  1  0.88781054  0.54103241  0.12755622  1
  Al  Al21  1  0.44475836  0.42713687  0.87648201  1
  Al  Al22  1  0.55645397  0.53703318  0.62687159  1
  Al  Al23  1  0.11014734  0.75964620  0.37958007  1
  Al  Al24  1  0.77766534  0.76132283  0.87592895  1
  Al  Al25  1  0.88768742  0.87274042  0.62686437  1
  Al  Al26  1  0.44686002  0.75964621  0.37958006  1
  Al  Al27  1  0.56120665  0.86913508  0.12998139  1
  Al  Al28  1  0.10843854  0.75351278  0.87538602  1
  Al  Al29  1  0.22683065  0.86299219  0.62578579  1
  Al  Al30  1  0.77841241  0.75982873  0.38057943  1
  Al  Al31  1  0.88631175  0.86913503  0.12998140  1
  Al  Al32  1  0.45470223  0.75351279  0.87538601  1
  Al  Al33  1  0.55622565  0.87274044  0.62686437  1
  Sc  Sc34  1  0.10777909  0.10109544  0.84777843  1
  Sc  Sc35  1  0.22254839  0.87155655  0.11332134  1
  N  N36  1  0.22076419  0.20393318  0.33240759  1
  N  N37  1  0.86424438  0.21770776  0.82832955  1
  N  N38  1  0.77631522  0.09354534  0.57803876  1
  N  N39  1  0.55565968  0.20533410  0.32905996  1
  N  N40  1  0.44354860  0.09218244  0.08336348  1
  N  N41  1  0.23470128  0.21770778  0.82832954  1
  N  N42  1  0.11037443  0.09590475  0.59718324  1
  N  N43  1  0.89195609  0.20393316  0.33240759  1
  N  N44  1  0.78092267  0.09218239  0.08336348  1
  N  N45  1  0.55615002  0.20435344  0.83258993  1
  N  N46  1  0.44679307  0.09354535  0.57803875  1
  N  N47  1  0.22339215  0.53772364  0.33245074  1
  N  N48  1  0.11031901  0.42771354  0.08246423  1
  N  N49  1  0.88951793  0.53761761  0.83201947  1
  N  N50  1  0.77741820  0.42942594  0.57848602  1
  N  N51  1  0.55553767  0.53772366  0.33245073  1
  N  N52  1  0.44475004  0.42715360  0.08044877  1
  N  N53  1  0.22364551  0.53692517  0.82882802  1
  N  N54  1  0.10980952  0.42942598  0.57848601  1
  N  N55  1  0.88841211  0.53982923  0.33003343  1
  N  N56  1  0.77862112  0.42771351  0.08246422  1
  N  N57  1  0.55608281  0.53692519  0.82882804  1
  N  N58  1  0.44549308  0.42566755  0.58162328  1
  N  N59  1  0.22077024  0.87511298  0.34174089  1
  N  N60  1  0.10181754  0.74969423  0.07884392  1
  N  N61  1  0.88756243  0.87350473  0.82944938  1
  N  N62  1  0.77840839  0.75983687  0.58271718  1
  N  N63  1  0.55706140  0.87094528  0.33254487  1
  N  N64  1  0.46514180  0.74969429  0.07884393  1
  N  N65  1  0.23177688  0.85309964  0.83974456  1
  N  N66  1  0.11051884  0.75936591  0.58276652  1
  N  N67  1  0.88864679  0.87094526  0.33254488  1
  N  N68  1  0.77785678  0.76094004  0.07894933  1
  N  N69  1  0.55558623  0.87350477  0.82944939  1
  N  N70  1  0.44676890  0.75936591  0.58276654  1
  O  O71  1  0.09757194  0.12150977  0.07975833  1
