# generated using pymatgen
data_Sc2Al34N35O
_symmetry_space_group_name_H-M   'P 1'
_cell_length_a   9.73791907
_cell_length_b   9.74844451
_cell_length_c   9.11787544
_cell_angle_alpha   90.00233768
_cell_angle_beta   90.00001584
_cell_angle_gamma   60.03576485
_symmetry_Int_Tables_number   1
_chemical_formula_structural   Sc2Al34N35O
_chemical_formula_sum   'Sc2 Al34 N35 O1'
_cell_volume   749.86342938
_cell_formula_units_Z   1
loop_
 _symmetry_equiv_pos_site_id
 _symmetry_equiv_pos_as_xyz
  1  'x, y, z'
loop_
 _atom_site_type_symbol
 _atom_site_label
 _atom_site_symmetry_multiplicity
 _atom_site_fract_x
 _atom_site_fract_y
 _atom_site_fract_z
 _atom_site_occupancy
  Al  Al0  1  0.10954692  0.09755903  0.37001903  1
  Al  Al1  1  0.22650380  0.21455122  0.09045442  1
  Al  Al2  1  0.77378067  0.09511047  0.83368630  1
  Al  Al3  1  0.88034055  0.20957518  0.57990544  1
  Al  Al4  1  0.44821919  0.09137013  0.33502093  1
  Al  Al5  1  0.55643771  0.20377764  0.08510085  1
  Al  Al6  1  0.22673735  0.20957517  0.57990540  1
  Al  Al7  1  0.77706365  0.09137013  0.33502093  1
  Al  Al8  1  0.87559801  0.21455120  0.09045432  1
  Al  Al9  1  0.44776180  0.09511056  0.83368632  1
  Al  Al10  1  0.55508826  0.20647659  0.58284296  1
  Al  Al11  1  0.10930567  0.43092101  0.33527030  1
  Al  Al12  1  0.22127707  0.53609284  0.08299486  1
  Al  Al13  1  0.77421047  0.43087798  0.83297441  1
  Al  Al14  1  0.88847894  0.53969527  0.58461756  1
  Al  Al15  1  0.44488028  0.42689250  0.33239789  1
  Al  Al16  1  0.55928326  0.53609280  0.08299484  1
  Al  Al17  1  0.11156461  0.43087796  0.83297441  1
  Al  Al18  1  0.22520707  0.53569693  0.58499387  1
  Al  Al19  1  0.77642635  0.43092101  0.33527029  1
  Al  Al20  1  0.88849818  0.53965679  0.08392351  1
  Al  Al21  1  0.44519808  0.42625689  0.83662711  1
  Al  Al22  1  0.55574915  0.53569693  0.58499389  1
  Al  Al23  1  0.10685517  0.75612206  0.34107987  1
  Al  Al24  1  0.77838775  0.75987756  0.83480558  1
  Al  Al25  1  0.88676377  0.87201088  0.58605636  1
  Al  Al26  1  0.45367586  0.75612206  0.34107987  1
  Al  Al27  1  0.55969926  0.87006556  0.08223687  1
  Al  Al28  1  0.11114886  0.75665084  0.83060348  1
  Al  Al29  1  0.22539043  0.86587233  0.58605628  1
  Al  Al30  1  0.77780987  0.76103332  0.33328969  1
  Al  Al31  1  0.88688835  0.87006552  0.08223689  1
  Al  Al32  1  0.44885335  0.75665087  0.83060349  1
  Al  Al33  1  0.55787849  0.87201092  0.58605639  1
  Sc  Sc34  1  0.10864734  0.09935827  0.83802073  1
  Sc  Sc35  1  0.22380991  0.86903342  0.10487797  1
  N  N36  1  0.22351487  0.20614651  0.36693015  1
  N  N37  1  0.86867772  0.21561066  0.87976303  1
  N  N38  1  0.77693172  0.09481482  0.62239993  1
  N  N39  1  0.55550624  0.20564064  0.37253224  1
  N  N40  1  0.44652218  0.09085615  0.12551475  1
  N  N41  1  0.23236474  0.21561065  0.87976310  1
  N  N42  1  0.11029922  0.09605450  0.60073374  1
  N  N43  1  0.88699165  0.20614656  0.36693022  1
  N  N44  1  0.77927460  0.09085613  0.12551475  1
  N  N45  1  0.55615594  0.20434129  0.87527889  1
  N  N46  1  0.44490638  0.09481487  0.62239994  1
  N  N47  1  0.22506738  0.53533302  0.37601455  1
  N  N48  1  0.10863714  0.43041403  0.12628738  1
  N  N49  1  0.88963212  0.53738897  0.87292373  1
  N  N50  1  0.77814173  0.42738947  0.62215674  1
  N  N51  1  0.55625280  0.53533303  0.37601456  1
  N  N52  1  0.44474449  0.42716403  0.12144138  1
  N  N53  1  0.22215151  0.53890931  0.87230594  1
  N  N54  1  0.11112184  0.42738945  0.62215672  1
  N  N55  1  0.88827716  0.54009885  0.37475125  1
  N  N56  1  0.77760186  0.43041400  0.12628737  1
  N  N57  1  0.55559237  0.53890932  0.87230593  1
  N  N58  1  0.44543634  0.42578034  0.62618860  1
  N  N59  1  0.22231987  0.87201348  0.36451215  1
  N  N60  1  0.10121497  0.75016550  0.12981903  1
  N  N61  1  0.88938710  0.87238147  0.87093988  1
  N  N62  1  0.77840778  0.75983747  0.62589318  1
  N  N63  1  0.55813574  0.87219892  0.37695809  1
  N  N64  1  0.46527263  0.75016545  0.12981903  1
  N  N65  1  0.22998985  0.85667353  0.86610468  1
  N  N66  1  0.11091399  0.75924915  0.61810195  1
  N  N67  1  0.88631857  0.87219891  0.37695806  1
  N  N68  1  0.77795947  0.76073408  0.12210749  1
  N  N69  1  0.55488463  0.87238152  0.87093986  1
  N  N70  1  0.44648990  0.75924916  0.61810196  1
  O  O71  1  0.09866182  0.11932919  0.11327823  1
