# generated using pymatgen
data_Sc2Al34N35O
_symmetry_space_group_name_H-M   'P 1'
_cell_length_a   9.47563639
_cell_length_b   9.48852228
_cell_length_c   9.88058534
_cell_angle_alpha   89.96744763
_cell_angle_beta   90.00001973
_cell_angle_gamma   60.04497709
_symmetry_Int_Tables_number   1
_chemical_formula_structural   Sc2Al34N35O
_chemical_formula_sum   'Sc2 Al34 N35 O1'
_cell_volume   769.69175254
_cell_formula_units_Z   1
loop_
 _symmetry_equiv_pos_site_id
 _symmetry_equiv_pos_as_xyz
  1  'x, y, z'
loop_
 _atom_site_type_symbol
 _atom_site_label
 _atom_site_symmetry_multiplicity
 _atom_site_fract_x
 _atom_site_fract_y
 _atom_site_fract_z
 _atom_site_occupancy
  Al  Al0  1  0.10833280  0.09998736  0.35403499  1
  Al  Al1  1  0.22535252  0.21501368  0.07813992  1
  Al  Al2  1  0.77419620  0.09468469  0.82647877  1
  Al  Al3  1  0.88097007  0.20901140  0.57112715  1
  Al  Al4  1  0.44749538  0.09242035  0.32581270  1
  Al  Al5  1  0.55606733  0.20451835  0.07603688  1
  Al  Al6  1  0.22667163  0.20901139  0.57112717  1
  Al  Al7  1  0.77673722  0.09242038  0.32581269  1
  Al  Al8  1  0.87628682  0.21501370  0.07813992  1
  Al  Al9  1  0.44777209  0.09468466  0.82647876  1
  Al  Al10  1  0.55560767  0.20543774  0.57563637  1
  Al  Al11  1  0.11013762  0.43037068  0.32563575  1
  Al  Al12  1  0.22188076  0.53577110  0.07469203  1
  Al  Al13  1  0.77446256  0.43082671  0.82602216  1
  Al  Al14  1  0.88888492  0.53888330  0.57605120  1
  Al  Al15  1  0.44491798  0.42681705  0.32587078  1
  Al  Al16  1  0.55900126  0.53577106  0.07469204  1
  Al  Al17  1  0.11136377  0.43082668  0.82602216  1
  Al  Al18  1  0.22384773  0.53671699  0.57684058  1
  Al  Al19  1  0.77614472  0.43037071  0.32563576  1
  Al  Al20  1  0.88817229  0.54030855  0.07598459  1
  Al  Al21  1  0.44493333  0.42678633  0.82676591  1
  Al  Al22  1  0.55608840  0.53671697  0.57684058  1
  Al  Al23  1  0.10668231  0.75534910  0.32851057  1
  Al  Al24  1  0.77825352  0.76014603  0.82545440  1
  Al  Al25  1  0.88785021  0.87198081  0.57704803  1
  Al  Al26  1  0.45462167  0.75534905  0.32851059  1
  Al  Al27  1  0.56039234  0.86974027  0.07429668  1
  Al  Al28  1  0.11210551  0.75716462  0.82413028  1
  Al  Al29  1  0.22585513  0.86494287  0.56807692  1
  Al  Al30  1  0.77778410  0.76108484  0.32597149  1
  Al  Al31  1  0.88652049  0.86974031  0.07429669  1
  Al  Al32  1  0.44738294  0.75716459  0.82413026  1
  Al  Al33  1  0.55682213  0.87198080  0.57704804  1
  Sc  Sc34  1  0.11056140  0.09553004  0.81848769  1
  Sc  Sc35  1  0.22230865  0.87203601  0.09514172  1
  N  N36  1  0.22519451  0.20822859  0.37873471  1
  N  N37  1  0.87237109  0.21375302  0.88845342  1
  N  N38  1  0.77762409  0.09427413  0.63301309  1
  N  N39  1  0.55584078  0.20497157  0.38227651  1
  N  N40  1  0.44497468  0.09156376  0.13319384  1
  N  N41  1  0.23052904  0.21375296  0.88845340  1
  N  N42  1  0.11159066  0.09347162  0.60268424  1
  N  N43  1  0.88323003  0.20822862  0.37873471  1
  N  N44  1  0.78011440  0.09156381  0.13319384  1
  N  N45  1  0.55574881  0.20515552  0.88380002  1
  N  N46  1  0.44475473  0.09427413  0.63301309  1
  N  N47  1  0.22407309  0.53617122  0.38477099  1
  N  N48  1  0.10915928  0.42960127  0.13394907  1
  N  N49  1  0.88914856  0.53835610  0.88256040  1
  N  N50  1  0.77855578  0.42689944  0.63283948  1
  N  N51  1  0.55640891  0.53617118  0.38477100  1
  N  N52  1  0.44487201  0.42690890  0.13202267  1
  N  N53  1  0.22267348  0.53852914  0.88192175  1
  N  N54  1  0.11119778  0.42689943  0.63283949  1
  N  N55  1  0.88882102  0.53901119  0.38292692  1
  N  N56  1  0.77789242  0.42960129  0.13394907  1
  N  N57  1  0.55545057  0.53852913  0.88192175  1
  N  N58  1  0.44524668  0.42615961  0.63361232  1
  N  N59  1  0.22347027  0.86971270  0.36802773  1
  N  N60  1  0.10050026  0.74928580  0.13815671  1
  N  N61  1  0.88938376  0.87183976  0.88098936  1
  N  N62  1  0.77836002  0.75993298  0.63324919  1
  N  N63  1  0.55692731  0.87269870  0.38488012  1
  N  N64  1  0.46686704  0.74928570  0.13815675  1
  N  N65  1  0.22989694  0.85685942  0.88216738  1
  N  N66  1  0.11178286  0.76017463  0.62944374  1
  N  N67  1  0.88702721  0.87269873  0.38488010  1
  N  N68  1  0.77781660  0.76101981  0.13270849  1
  N  N69  1  0.55542974  0.87183973  0.88098935  1
  N  N70  1  0.44469552  0.76017461  0.62944372  1
  O  O71  1  0.09662826  0.12339634  0.13545524  1
