# generated using pymatgen
data_Sc2Al34N35O
_symmetry_space_group_name_H-M   'P 1'
_cell_length_a   9.82855010
_cell_length_b   9.83959697
_cell_length_c   8.82934725
_cell_angle_alpha   90.00333301
_cell_angle_beta   90.00000826
_cell_angle_gamma   60.03715989
_symmetry_Int_Tables_number   1
_chemical_formula_structural   Sc2Al34N35O
_chemical_formula_sum   'Sc2 Al34 N35 O1'
_cell_volume   739.75599417
_cell_formula_units_Z   1
loop_
 _symmetry_equiv_pos_site_id
 _symmetry_equiv_pos_as_xyz
  1  'x, y, z'
loop_
 _atom_site_type_symbol
 _atom_site_label
 _atom_site_symmetry_multiplicity
 _atom_site_fract_x
 _atom_site_fract_y
 _atom_site_fract_z
 _atom_site_occupancy
  Al  Al0  1  0.10966047  0.09733197  0.36963932  1
  Al  Al1  1  0.22669743  0.21418374  0.09729105  1
  Al  Al2  1  0.77395693  0.09495682  0.83889374  1
  Al  Al3  1  0.88102323  0.20934634  0.58499452  1
  Al  Al4  1  0.44821514  0.09129064  0.34063212  1
  Al  Al5  1  0.55642485  0.20380336  0.09075095  1
  Al  Al6  1  0.22628348  0.20934632  0.58499447  1
  Al  Al7  1  0.77714723  0.09129062  0.34063212  1
  Al  Al8  1  0.87577187  0.21418368  0.09729095  1
  Al  Al9  1  0.44773920  0.09495692  0.83889378  1
  Al  Al10  1  0.55505038  0.20655231  0.58798216  1
  Al  Al11  1  0.10914320  0.43103214  0.34098981  1
  Al  Al12  1  0.22150519  0.53593105  0.08878531  1
  Al  Al13  1  0.77436875  0.43083566  0.83806490  1
  Al  Al14  1  0.88849803  0.53965705  0.58992585  1
  Al  Al15  1  0.44486207  0.42692898  0.33774905  1
  Al  Al16  1  0.55921693  0.53593101  0.08878528  1
  Al  Al17  1  0.11144867  0.43083566  0.83806489  1
  Al  Al18  1  0.22525445  0.53570861  0.59006792  1
  Al  Al19  1  0.77647774  0.43103211  0.34098979  1
  Al  Al20  1  0.88850566  0.53964180  0.08934433  1
  Al  Al21  1  0.44526328  0.42612653  0.84183532  1
  Al  Al22  1  0.55569007  0.53570863  0.59006795  1
  Al  Al23  1  0.10737930  0.75688482  0.34749300  1
  Al  Al24  1  0.77836313  0.75992680  0.83999854  1
  Al  Al25  1  0.88682520  0.87199935  0.59123728  1
  Al  Al26  1  0.45238899  0.75688483  0.34749300  1
  Al  Al27  1  0.55958007  0.87030226  0.08798713  1
  Al  Al28  1  0.11060185  0.75629553  0.83560043  1
  Al  Al29  1  0.22510086  0.86645145  0.59406493  1
  Al  Al30  1  0.77786567  0.76092175  0.33890082  1
  Al  Al31  1  0.88677083  0.87030222  0.08798715  1
  Al  Al32  1  0.44975565  0.75629560  0.83560044  1
  Al  Al33  1  0.55782857  0.87199940  0.59123731  1
  Sc  Sc34  1  0.10821685  0.10021932  0.84241885  1
  Sc  Sc35  1  0.22427529  0.86810261  0.10627967  1
  N  N36  1  0.22296150  0.20563661  0.36073283  1
  N  N37  1  0.86923486  0.21534460  0.87455572  1
  N  N38  1  0.77701381  0.09489840  0.61647987  1
  N  N39  1  0.55546353  0.20572602  0.36705066  1
  N  N40  1  0.44673389  0.09091056  0.12051849  1
  N  N41  1  0.23207360  0.21534462  0.87455579  1
  N  N42  1  0.10975100  0.09715097  0.59953396  1
  N  N43  1  0.88805490  0.20563663  0.36073289  1
  N  N44  1  0.77900855  0.09091051  0.12051848  1
  N  N45  1  0.55621125  0.20423060  0.86997771  1
  N  N46  1  0.44474075  0.09489845  0.61647988  1
  N  N47  1  0.22499200  0.53562142  0.37049350  1
  N  N48  1  0.10859944  0.43043823  0.12123067  1
  N  N49  1  0.88965605  0.53734106  0.86743194  1
  N  N50  1  0.77811878  0.42733329  0.61625944  1
  N  N51  1  0.55603976  0.53562142  0.37049351  1
  N  N52  1  0.44476562  0.42712184  0.11605168  1
  N  N53  1  0.22228417  0.53863741  0.86685438  1
  N  N54  1  0.11120099  0.42733329  0.61625942  1
  N  N55  1  0.88820459  0.54024393  0.36959536  1
  N  N56  1  0.77761543  0.43043816  0.12123064  1
  N  N57  1  0.55573156  0.53863744  0.86685435  1
  N  N58  1  0.44544950  0.42575406  0.62087369  1
  N  N59  1  0.22174482  0.87316354  0.36359758  1
  N  N60  1  0.10196245  0.75080136  0.12361341  1
  N  N61  1  0.88921090  0.87253726  0.86550142  1
  N  N62  1  0.77838697  0.75987914  0.62074570  1
  N  N63  1  0.55815456  0.87198879  0.37152744  1
  N  N64  1  0.46388932  0.75080133  0.12361341  1
  N  N65  1  0.22976141  0.85713031  0.85752161  1
  N  N66  1  0.11067709  0.75905461  0.61242585  1
  N  N67  1  0.88650984  0.87198877  0.37152741  1
  N  N68  1  0.77802858  0.76059590  0.11649489  1
  N  N69  1  0.55490496  0.87253732  0.86550140  1
  N  N70  1  0.44692138  0.75905463  0.61242585  1
  O  O71  1  0.09950950  0.11763385  0.11104385  1
