# generated using pymatgen
data_Sc2Al34N35O
_symmetry_space_group_name_H-M   'P 1'
_cell_length_a   9.42780645
_cell_length_b   9.44065195
_cell_length_c   10.00688313
_cell_angle_alpha   90.06983097
_cell_angle_beta   89.99999952
_cell_angle_gamma   60.04500041
_symmetry_Int_Tables_number   1
_chemical_formula_structural   Sc2Al34N35O
_chemical_formula_sum   'Sc2 Al34 N35 O1'
_cell_volume   771.68210374
_cell_formula_units_Z   1
loop_
 _symmetry_equiv_pos_site_id
 _symmetry_equiv_pos_as_xyz
  1  'x, y, z'
loop_
 _atom_site_type_symbol
 _atom_site_label
 _atom_site_symmetry_multiplicity
 _atom_site_fract_x
 _atom_site_fract_y
 _atom_site_fract_z
 _atom_site_occupancy
  Al  Al0  1  0.11077904  0.09525114  0.41251056  1
  Al  Al1  1  0.22466091  0.21392448  0.15724623  1
  Al  Al2  1  0.77387838  0.09454825  0.90107336  1
  Al  Al3  1  0.87984119  0.20994582  0.64902884  1
  Al  Al4  1  0.44683059  0.09254400  0.40139244  1
  Al  Al5  1  0.55585967  0.20508984  0.15123482  1
  Al  Al6  1  0.22702224  0.20994582  0.64902883  1
  Al  Al7  1  0.77743462  0.09254402  0.40139244  1
  Al  Al8  1  0.87822381  0.21392446  0.15724623  1
  Al  Al9  1  0.44838266  0.09454823  0.90107336  1
  Al  Al10  1  0.55596761  0.20487398  0.65182410  1
  Al  Al11  1  0.10983540  0.42945604  0.40171124  1
  Al  Al12  1  0.22256325  0.53537163  0.15179927  1
  Al  Al13  1  0.77274782  0.43196055  0.90118445  1
  Al  Al14  1  0.88896775  0.53887368  0.65142259  1
  Al  Al15  1  0.44508174  0.42664570  0.40159002  1
  Al  Al16  1  0.55887436  0.53537159  0.15179927  1
  Al  Al17  1  0.11210086  0.43196059  0.90118446  1
  Al  Al18  1  0.22323248  0.53711523  0.65151902  1
  Al  Al19  1  0.77751776  0.42945603  0.40171125  1
  Al  Al20  1  0.88829804  0.54021313  0.15113645  1
  Al  Al21  1  0.44482392  0.42716136  0.90033505  1
  Al  Al22  1  0.55646148  0.53711520  0.65151903  1
  Al  Al23  1  0.11004411  0.75888451  0.40568430  1
  Al  Al24  1  0.77781564  0.76117793  0.90092459  1
  Al  Al25  1  0.88784253  0.87212914  0.65144857  1
  Al  Al26  1  0.44788065  0.75888446  0.40568430  1
  Al  Al27  1  0.56037989  0.86957610  0.15231458  1
  Al  Al28  1  0.10952528  0.75456871  0.89865376  1
  Al  Al29  1  0.22608061  0.86464803  0.65106314  1
  Al  Al30  1  0.77831388  0.76018146  0.40225579  1
  Al  Al31  1  0.88685329  0.86957609  0.15231457  1
  Al  Al32  1  0.45271526  0.75456867  0.89865376  1
  Al  Al33  1  0.55683755  0.87212913  0.65144857  1
  Sc  Sc34  1  0.10807806  0.10065321  0.88309095  1
  Sc  Sc35  1  0.22274852  0.87131225  0.14960560  1
  N  N36  1  0.22153198  0.20417433  0.34579514  1
  N  N37  1  0.86499121  0.21760927  0.83736312  1
  N  N38  1  0.77699893  0.09296296  0.59097569  1
  N  N39  1  0.55598755  0.20483409  0.34139976  1
  N  N40  1  0.44238895  0.09293397  0.09380373  1
  N  N41  1  0.23420879  0.21760931  0.83736311  1
  N  N42  1  0.11073846  0.09533232  0.60701746  1
  N  N43  1  0.89110292  0.20417432  0.34579515  1
  N  N44  1  0.78148628  0.09293397  0.09380374  1
  N  N45  1  0.55584882  0.20511161  0.84332637  1
  N  N46  1  0.44684735  0.09296293  0.59097568  1
  N  N47  1  0.22284907  0.53825908  0.34269986  1
  N  N48  1  0.11060760  0.42672067  0.09287985  1
  N  N49  1  0.88932419  0.53816084  0.84344528  1
  N  N50  1  0.77736812  0.42928568  0.59101307  1
  N  N51  1  0.55570107  0.53825905  0.34269986  1
  N  N52  1  0.44508144  0.42664631  0.09257843  1
  N  N53  1  0.22381857  0.53722611  0.84142297  1
  N  N54  1  0.11015539  0.42928568  0.59101306  1
  N  N55  1  0.88892686  0.53895548  0.34179216  1
  N  N56  1  0.77948097  0.42672063  0.09287985  1
  N  N57  1  0.55576458  0.53722607  0.84142298  1
  N  N58  1  0.44520494  0.42639930  0.59257350  1
  N  N59  1  0.22188092  0.87304743  0.35866453  1
  N  N60  1  0.10278835  0.75110244  0.08840610  1
  N  N61  1  0.88763198  0.87321911  0.84221066  1
  N  N62  1  0.77830736  0.76019450  0.59292082  1
  N  N63  1  0.55620912  0.87103886  0.34305494  1
  N  N64  1  0.46291851  0.75110240  0.08840610  1
  N  N65  1  0.23189140  0.85302645  0.84511235  1
  N  N66  1  0.11027523  0.75904218  0.59535938  1
  N  N67  1  0.88956124  0.87103887  0.34305493  1
  N  N68  1  0.77802789  0.76075349  0.09192239  1
  N  N69  1  0.55595813  0.87321910  0.84221067  1
  N  N70  1  0.44749184  0.75904214  0.59535938  1
  O  O71  1  0.09818297  0.12044322  0.09836332  1
