# generated using pymatgen
data_Sc2Al34N35O
_symmetry_space_group_name_H-M   'P 1'
_cell_length_a   9.68952849
_cell_length_b   9.69987991
_cell_length_c   9.26905678
_cell_angle_alpha   90.00173010
_cell_angle_beta   90.00001937
_cell_angle_gamma   60.03536245
_symmetry_Int_Tables_number   1
_chemical_formula_structural   Sc2Al34N35O
_chemical_formula_sum   'Sc2 Al34 N35 O1'
_cell_volume   754.72688305
_cell_formula_units_Z   1
loop_
 _symmetry_equiv_pos_site_id
 _symmetry_equiv_pos_as_xyz
  1  'x, y, z'
loop_
 _atom_site_type_symbol
 _atom_site_label
 _atom_site_symmetry_multiplicity
 _atom_site_fract_x
 _atom_site_fract_y
 _atom_site_fract_z
 _atom_site_occupancy
  Al  Al0  1  0.10941690  0.09781905  0.36972059  1
  Al  Al1  1  0.22634195  0.21471438  0.08711583  1
  Al  Al2  1  0.77371047  0.09508180  0.83166520  1
  Al  Al3  1  0.88001508  0.20967275  0.57798695  1
  Al  Al4  1  0.44809329  0.09152332  0.33265160  1
  Al  Al5  1  0.55638782  0.20387743  0.08276579  1
  Al  Al6  1  0.22696526  0.20967274  0.57798691  1
  Al  Al7  1  0.77703634  0.09152333  0.33265159  1
  Al  Al8  1  0.87559672  0.21471437  0.08711575  1
  Al  Al9  1  0.44786068  0.09508188  0.83166521  1
  Al  Al10  1  0.55515987  0.20633337  0.58081713  1
  Al  Al11  1  0.10945983  0.43073503  0.33282344  1
  Al  Al12  1  0.22129077  0.53609284  0.08072713  1
  Al  Al13  1  0.77409594  0.43099529  0.83101538  1
  Al  Al14  1  0.88851079  0.53963159  0.58238218  1
  Al  Al15  1  0.44490123  0.42685058  0.33044684  1
  Al  Al16  1  0.55926955  0.53609280  0.08072712  1
  Al  Al17  1  0.11156183  0.43099527  0.83101538  1
  Al  Al18  1  0.22503459  0.53582822  0.58290053  1
  Al  Al19  1  0.77645814  0.43073505  0.33282344  1
  Al  Al20  1  0.88847104  0.53971108  0.08180051  1
  Al  Al21  1  0.44514039  0.42637224  0.83427675  1
  Al  Al22  1  0.55579035  0.53582821  0.58290055  1
  Al  Al23  1  0.10662182  0.75574864  0.33802748  1
  Al  Al24  1  0.77838017  0.75989271  0.83252760  1
  Al  Al25  1  0.88686812  0.87200726  0.58383970  1
  Al  Al26  1  0.45428261  0.75574863  0.33802747  1
  Al  Al27  1  0.55983192  0.86995579  0.08002994  1
  Al  Al28  1  0.11143557  0.75685458  0.82885960  1
  Al  Al29  1  0.22563475  0.86538371  0.58182588  1
  Al  Al30  1  0.77779940  0.76105424  0.33118919  1
  Al  Al31  1  0.88686545  0.86995575  0.08002997  1
  Al  Al32  1  0.44836292  0.75685458  0.82885962  1
  Al  Al33  1  0.55777777  0.87200729  0.58383973  1
  Sc  Sc34  1  0.10897642  0.09870009  0.83505551  1
  Sc  Sc35  1  0.22350674  0.86963976  0.10385758  1
  N  N36  1  0.22386197  0.20648488  0.36995494  1
  N  N37  1  0.86866269  0.21561578  0.88165863  1
  N  N38  1  0.77691860  0.09470060  0.62495749  1
  N  N39  1  0.55556549  0.20552216  0.37485742  1
  N  N40  1  0.44626114  0.09095167  0.12748379  1
  N  N41  1  0.23237468  0.21561576  0.88165868  1
  N  N42  1  0.11061546  0.09542201  0.60117359  1
  N  N43  1  0.88630620  0.20648494  0.36995500  1
  N  N44  1  0.77944010  0.09095166  0.12748378  1
  N  N45  1  0.55608428  0.20448463  0.87743179  1
  N  N46  1  0.44503372  0.09470064  0.62495749  1
  N  N47  1  0.22496793  0.53531971  0.37824781  1
  N  N48  1  0.10874624  0.43026780  0.12826571  1
  N  N49  1  0.88957479  0.53750366  0.87526729  1
  N  N50  1  0.77813333  0.42745815  0.62472320  1
  N  N51  1  0.55636558  0.53531970  0.37824782  1
  N  N52  1  0.44474560  0.42716178  0.12389860  1
  N  N53  1  0.22218428  0.53897028  0.87462461  1
  N  N54  1  0.11106155  0.42745813  0.62472319  1
  N  N55  1  0.88836507  0.53992308  0.37680335  1
  N  N56  1  0.77763896  0.43026779  0.12826571  1
  N  N57  1  0.55549865  0.53897027  0.87462459  1
  N  N58  1  0.44541001  0.42583299  0.62817058  1
  N  N59  1  0.22263862  0.87137600  0.36504175  1
  N  N60  1  0.10087337  0.74986028  0.13213535  1
  N  N61  1  0.88941220  0.87228987  0.87331465  1
  N  N62  1  0.77840696  0.75983909  0.62784504  1
  N  N63  1  0.55800314  0.87230622  0.37907654  1
  N  N64  1  0.46591941  0.74986023  0.13213534  1
  N  N65  1  0.23008524  0.85648280  0.87052042  1
  N  N66  1  0.11107305  0.75940440  0.62083378  1
  N  N67  1  0.88634387  0.87230622  0.37907651  1
  N  N68  1  0.77792958  0.76079383  0.12460249  1
  N  N69  1  0.55495116  0.87228991  0.87331463  1
  N  N70  1  0.44617557  0.75940439  0.62083379  1
  O  O71  1  0.09818281  0.12028724  0.11514280  1
