# generated using pymatgen
data_Sc2Al34N35O
_symmetry_space_group_name_H-M   'P 1'
_cell_length_a   9.42574101
_cell_length_b   9.44069603
_cell_length_c   10.00574969
_cell_angle_alpha   89.89699466
_cell_angle_beta   90.00000341
_cell_angle_gamma   60.05240446
_symmetry_Int_Tables_number   1
_chemical_formula_structural   Sc2Al34N35O
_chemical_formula_sum   'Sc2 Al34 N35 O1'
_cell_volume   771.48580636
_cell_formula_units_Z   1
loop_
 _symmetry_equiv_pos_site_id
 _symmetry_equiv_pos_as_xyz
  1  'x, y, z'
loop_
 _atom_site_type_symbol
 _atom_site_label
 _atom_site_symmetry_multiplicity
 _atom_site_fract_x
 _atom_site_fract_y
 _atom_site_fract_z
 _atom_site_occupancy
  Al  Al0  1  0.10775044  0.10113548  0.34160224  1
  Al  Al1  1  0.22569544  0.21538530  0.07579641  1
  Al  Al2  1  0.77469683  0.09443088  0.82388092  1
  Al  Al3  1  0.88269267  0.20815497  0.56730924  1
  Al  Al4  1  0.44737799  0.09274203  0.32328494  1
  Al  Al5  1  0.55606796  0.20450042  0.07312331  1
  Al  Al6  1  0.22578871  0.20815496  0.56730924  1
  Al  Al7  1  0.77651631  0.09274205  0.32328494  1
  Al  Al8  1  0.87555561  0.21538529  0.07579641  1
  Al  Al9  1  0.44750863  0.09443087  0.82388090  1
  Al  Al10  1  0.55569248  0.20525140  0.57344894  1
  Al  Al11  1  0.11004603  0.43090676  0.32303187  1
  Al  Al12  1  0.22201831  0.53580586  0.07200483  1
  Al  Al13  1  0.77494373  0.43015070  0.82352711  1
  Al  Al14  1  0.88903928  0.53855783  0.57355864  1
  Al  Al15  1  0.44483138  0.42697359  0.32352110  1
  Al  Al16  1  0.55881221  0.53580583  0.07200483  1
  Al  Al17  1  0.11154193  0.43015070  0.82352711  1
  Al  Al18  1  0.22363710  0.53677867  0.57397953  1
  Al  Al19  1  0.77568359  0.43090676  0.32303187  1
  Al  Al20  1  0.88803662  0.54056314  0.07323175  1
  Al  Al21  1  0.44498233  0.42667167  0.82372942  1
  Al  Al22  1  0.55622061  0.53677865  0.57397952  1
  Al  Al23  1  0.10710655  0.75616331  0.32526539  1
  Al  Al24  1  0.77825635  0.76012366  0.82251325  1
  Al  Al25  1  0.88808056  0.87199626  0.57396709  1
  Al  Al26  1  0.45336654  0.75616328  0.32526541  1
  Al  Al27  1  0.56042969  0.86965768  0.07169929  1
  Al  Al28  1  0.11206707  0.75671084  0.82059369  1
  Al  Al29  1  0.22507528  0.86648581  0.56410150  1
  Al  Al30  1  0.77769964  0.76123710  0.32351985  1
  Al  Al31  1  0.88654901  0.86965770  0.07169930  1
  Al  Al32  1  0.44785846  0.75671081  0.82059366  1
  Al  Al33  1  0.55655956  0.87199625  0.57396710  1
  Sc  Sc34  1  0.11064704  0.09534227  0.81402673  1
  Sc  Sc35  1  0.22226666  0.87210321  0.08844494  1
  N  N36  1  0.22480451  0.20845499  0.37728225  1
  N  N37  1  0.87366254  0.21283820  0.88886118  1
  N  N38  1  0.77823872  0.09422865  0.63229084  1
  N  N39  1  0.55578295  0.20507046  0.38193710  1
  N  N40  1  0.44505319  0.09146514  0.13252038  1
  N  N41  1  0.23013565  0.21283821  0.88886118  1
  N  N42  1  0.11162486  0.09338660  0.60311755  1
  N  N43  1  0.88337689  0.20845501  0.37728224  1
  N  N44  1  0.78011793  0.09146517  0.13252039  1
  N  N45  1  0.55585465  0.20492706  0.88284141  1
  N  N46  1  0.44416894  0.09422864  0.63229084  1
  N  N47  1  0.22383052  0.53680133  0.38381009  1
  N  N48  1  0.10901953  0.42974298  0.13322686  1
  N  N49  1  0.88918449  0.53826741  0.88182626  1
  N  N50  1  0.77897679  0.42609853  0.63219207  1
  N  N51  1  0.55600458  0.53680131  0.38381009  1
  N  N52  1  0.44499964  0.42663703  0.13143639  1
  N  N53  1  0.22280515  0.53810724  0.88119942  1
  N  N54  1  0.11156103  0.42609851  0.63219207  1
  N  N55  1  0.88877019  0.53909604  0.38228667  1
  N  N56  1  0.77787382  0.42974298  0.13322686  1
  N  N57  1  0.55572401  0.53810722  0.88119941  1
  N  N58  1  0.44522435  0.42618763  0.63268507  1
  N  N59  1  0.22285256  0.87093132  0.36699757  1
  N  N60  1  0.10100668  0.74955357  0.13704925  1
  N  N61  1  0.88959370  0.87150880  0.88038561  1
  N  N62  1  0.77835505  0.75992623  0.63226089  1
  N  N63  1  0.55659503  0.87281241  0.38371747  1
  N  N64  1  0.46607619  0.74955350  0.13704926  1
  N  N65  1  0.23006696  0.85650249  0.87969788  1
  N  N66  1  0.11192703  0.76020789  0.62826018  1
  N  N67  1  0.88722896  0.87281243  0.38371747  1
  N  N68  1  0.77783260  0.76097115  0.13216185  1
  N  N69  1  0.55553390  0.87150879  0.88038560  1
  N  N70  1  0.44450142  0.76020788  0.62826015  1
  O  O71  1  0.09677204  0.12309223  0.13944182  1
