# generated using pymatgen
data_Sc2Al34N35O
_symmetry_space_group_name_H-M   'P 1'
_cell_length_a   9.69658966
_cell_length_b   9.71001968
_cell_length_c   9.23702935
_cell_angle_alpha   90.05725811
_cell_angle_beta   89.99998174
_cell_angle_gamma   60.04570422
_symmetry_Int_Tables_number   1
_chemical_formula_structural   Sc2Al34N35O
_chemical_formula_sum   'Sc2 Al34 N35 O1'
_cell_volume   753.53186492
_cell_formula_units_Z   1
loop_
 _symmetry_equiv_pos_site_id
 _symmetry_equiv_pos_as_xyz
  1  'x, y, z'
loop_
 _atom_site_type_symbol
 _atom_site_label
 _atom_site_symmetry_multiplicity
 _atom_site_fract_x
 _atom_site_fract_y
 _atom_site_fract_z
 _atom_site_occupancy
  Al  Al0  1  0.11020263  0.09624828  0.38793195  1
  Al  Al1  1  0.22394110  0.21267897  0.12800870  1
  Al  Al2  1  0.77408002  0.09347904  0.87764540  1
  Al  Al3  1  0.87645928  0.21160412  0.62418620  1
  Al  Al4  1  0.44628601  0.09306340  0.37393206  1
  Al  Al5  1  0.55540676  0.20584003  0.12527479  1
  Al  Al6  1  0.22859008  0.21160413  0.62418619  1
  Al  Al7  1  0.77730415  0.09306337  0.37393208  1
  Al  Al8  1  0.88003342  0.21267896  0.12800870  1
  Al  Al9  1  0.44909448  0.09347909  0.87764542  1
  Al  Al10  1  0.55610838  0.20443674  0.62701556  1
  Al  Al11  1  0.10933123  0.42914111  0.37490774  1
  Al  Al12  1  0.22324298  0.53481153  0.12814164  1
  Al  Al13  1  0.77263309  0.43230491  0.87737689  1
  Al  Al14  1  0.88922479  0.53820394  0.62640594  1
  Al  Al15  1  0.44537269  0.42590822  0.37717933  1
  Al  Al16  1  0.55859903  0.53481155  0.12814163  1
  Al  Al17  1  0.11171557  0.43230493  0.87737689  1
  Al  Al18  1  0.22320956  0.53694507  0.62469008  1
  Al  Al19  1  0.77818125  0.42914110  0.37490773  1
  Al  Al20  1  0.88774101  0.54117151  0.12562945  1
  Al  Al21  1  0.44474575  0.42716209  0.87437713  1
  Al  Al22  1  0.55649893  0.53694506  0.62469008  1
  Al  Al23  1  0.10987061  0.75943802  0.37751051  1
  Al  Al24  1  0.77766732  0.76131887  0.87352169  1
  Al  Al25  1  0.88765335  0.87286166  0.62469825  1
  Al  Al26  1  0.44734492  0.75943804  0.37751049  1
  Al  Al27  1  0.56127481  0.86913002  0.12807839  1
  Al  Al28  1  0.10857255  0.75376260  0.87295334  1
  Al  Al29  1  0.22657837  0.86349678  0.62165715  1
  Al  Al30  1  0.77843415  0.75978524  0.37898596  1
  Al  Al31  1  0.88624865  0.86912997  0.12807840  1
  Al  Al32  1  0.45431839  0.75376261  0.87295335  1
  Al  Al33  1  0.55613849  0.87286169  0.62469824  1
  Sc  Sc34  1  0.10801046  0.10063267  0.84663880  1
  Sc  Sc35  1  0.22278203  0.87108931  0.11154678  1
  N  N36  1  0.22081114  0.20398139  0.33379988  1
  N  N37  1  0.86505289  0.21727349  0.83128790  1
  N  N38  1  0.77633278  0.09372979  0.57991264  1
  N  N39  1  0.55562984  0.20539380  0.33099752  1
  N  N40  1  0.44391453  0.09206775  0.08562293  1
  N  N41  1  0.23432708  0.21727349  0.83128789  1
  N  N42  1  0.11012499  0.09640359  0.59759925  1
  N  N43  1  0.89186095  0.20398138  0.33379987  1
  N  N44  1  0.78067137  0.09206770  0.08562292  1
  N  N45  1  0.55617447  0.20430457  0.83475039  1
  N  N46  1  0.44659103  0.09372980  0.57991262  1
  N  N47  1  0.22349197  0.53759859  0.33469050  1
  N  N48  1  0.11019370  0.42800697  0.08470517  1
  N  N49  1  0.88953646  0.53758056  0.83397440  1
  N  N50  1  0.77751913  0.42924847  0.58040576  1
  N  N51  1  0.55556295  0.53759861  0.33469049  1
  N  N52  1  0.44470652  0.42724063  0.08239186  1
  N  N53  1  0.22362387  0.53690570  0.83077896  1
  N  N54  1  0.10988602  0.42924851  0.58040575  1
  N  N55  1  0.88836321  0.53992705  0.33214137  1
  N  N56  1  0.77845297  0.42800694  0.08470516  1
  N  N57  1  0.55612394  0.53690573  0.83077897  1
  N  N58  1  0.44553402  0.42558563  0.58376978  1
  N  N59  1  0.22072209  0.87520931  0.34482631  1
  N  N60  1  0.10196322  0.74990571  0.08137786  1
  N  N61  1  0.88760053  0.87353327  0.83132375  1
  N  N62  1  0.77842424  0.75980513  0.58506663  1
  N  N63  1  0.55722085  0.87096465  0.33478220  1
  N  N64  1  0.46478459  0.74990576  0.08137788  1
  N  N65  1  0.23150912  0.85363520  0.84131927  1
  N  N66  1  0.11042700  0.75928799  0.58482474  1
  N  N67  1  0.88846799  0.87096464  0.33478220  1
  N  N68  1  0.77787149  0.76091055  0.08069168  1
  N  N69  1  0.55551962  0.87353330  0.83132376  1
  N  N70  1  0.44693865  0.75928798  0.58482474  1
  O  O71  1  0.09790790  0.12083781  0.08210930  1
