# generated using pymatgen
data_Sc2Al34N35O
_symmetry_space_group_name_H-M   'P 1'
_cell_length_a   9.91442799
_cell_length_b   9.92677377
_cell_length_c   8.55422507
_cell_angle_alpha   90.03559337
_cell_angle_beta   89.99999998
_cell_angle_gamma   60.04114036
_symmetry_Int_Tables_number   1
_chemical_formula_structural   Sc2Al34N35O
_chemical_formula_sum   'Sc2 Al34 N35 O1'
_cell_volume   729.40186720
_cell_formula_units_Z   1
loop_
 _symmetry_equiv_pos_site_id
 _symmetry_equiv_pos_as_xyz
  1  'x, y, z'
loop_
 _atom_site_type_symbol
 _atom_site_label
 _atom_site_symmetry_multiplicity
 _atom_site_fract_x
 _atom_site_fract_y
 _atom_site_fract_z
 _atom_site_occupancy
  Al  Al0  1  0.10898508  0.09868331  0.37438035  1
  Al  Al1  1  0.22579671  0.21308060  0.11154779  1
  Al  Al2  1  0.77421045  0.09316849  0.86217269  1
  Al  Al3  1  0.87965420  0.21015674  0.60932840  1
  Al  Al4  1  0.44623824  0.09291557  0.35979844  1
  Al  Al5  1  0.55559555  0.20546244  0.11148536  1
  Al  Al6  1  0.22684255  0.21015671  0.60932837  1
  Al  Al7  1  0.77749970  0.09291553  0.35979845  1
  Al  Al8  1  0.87777627  0.21308051  0.11154782  1
  Al  Al9  1  0.44927446  0.09316854  0.86217268  1
  Al  Al10  1  0.55580300  0.20504748  0.61081276  1
  Al  Al11  1  0.10957849  0.42905371  0.36066333  1
  Al  Al12  1  0.22322226  0.53502242  0.11286809  1
  Al  Al13  1  0.77338495  0.43244241  0.86172265  1
  Al  Al14  1  0.88916152  0.53833053  0.61081227  1
  Al  Al15  1  0.44528008  0.42609343  0.36225211  1
  Al  Al16  1  0.55840899  0.53502237  0.11286812  1
  Al  Al17  1  0.11082617  0.43244242  0.86172261  1
  Al  Al18  1  0.22371578  0.53673399  0.60955418  1
  Al  Al19  1  0.77802140  0.42905368  0.36066333  1
  Al  Al20  1  0.88788401  0.54088559  0.11178775  1
  Al  Al21  1  0.44488952  0.42687453  0.85986034  1
  Al  Al22  1  0.55620383  0.53673399  0.60955418  1
  Al  Al23  1  0.10859926  0.75831468  0.36307352  1
  Al  Al24  1  0.77791880  0.76081590  0.85861488  1
  Al  Al25  1  0.88777119  0.87262553  0.60978734  1
  Al  Al26  1  0.44973955  0.75831470  0.36307351  1
  Al  Al27  1  0.56072472  0.86983892  0.11259219  1
  Al  Al28  1  0.10947887  0.75528553  0.85615094  1
  Al  Al29  1  0.22553581  0.86558196  0.60478454  1
  Al  Al30  1  0.77828138  0.76009080  0.36442765  1
  Al  Al31  1  0.88608996  0.86983886  0.11259217  1
  Al  Al32  1  0.45188910  0.75528554  0.85615094  1
  Al  Al33  1  0.55625685  0.87262555  0.60978732  1
  Sc  Sc34  1  0.10875028  0.09915290  0.84560676  1
  Sc  Sc35  1  0.22409622  0.86846117  0.10718315  1
  N  N36  1  0.22173062  0.20472901  0.34508623  1
  N  N37  1  0.86937101  0.21514584  0.85062214  1
  N  N38  1  0.77689495  0.09426197  0.59533002  1
  N  N39  1  0.55572657  0.20520039  0.34632386  1
  N  N40  1  0.44557811  0.09182126  0.10015661  1
  N  N41  1  0.23213660  0.21514585  0.85062214  1
  N  N42  1  0.10924116  0.09817111  0.59773428  1
  N  N43  1  0.89019390  0.20472898  0.34508622  1
  N  N44  1  0.77925417  0.09182118  0.10015660  1
  N  N45  1  0.55601860  0.20461627  0.84915459  1
  N  N46  1  0.44549654  0.09426199  0.59533003  1
  N  N47  1  0.22372468  0.53702700  0.34961375  1
  N  N48  1  0.10946483  0.42924177  0.09965786  1
  N  N49  1  0.88936120  0.53793117  0.84765018  1
  N  N50  1  0.77776149  0.42829295  0.59561120  1
  N  N51  1  0.55590191  0.53702700  0.34961377  1
  N  N52  1  0.44478900  0.42707559  0.09745375  1
  N  N53  1  0.22350954  0.53734526  0.84605491  1
  N  N54  1  0.11059913  0.42829295  0.59561120  1
  N  N55  1  0.88844762  0.53975834  0.34785112  1
  N  N56  1  0.77794706  0.42924169  0.09965789  1
  N  N57  1  0.55579877  0.53734526  0.84605491  1
  N  N58  1  0.44545609  0.42574141  0.59829476  1
  N  N59  1  0.22080662  0.87504029  0.35934005  1
  N  N60  1  0.10298877  0.75127153  0.09927888  1
  N  N61  1  0.88814271  0.87292123  0.84599871  1
  N  N62  1  0.77833343  0.75998670  0.59947386  1
  N  N63  1  0.55734871  0.87153770  0.34986805  1
  N  N64  1  0.46239326  0.75127151  0.09927888  1
  N  N65  1  0.23007942  0.85649466  0.84646885  1
  N  N66  1  0.11038443  0.75910703  0.59826197  1
  N  N67  1  0.88776716  0.87153769  0.34986804  1
  N  N68  1  0.77807842  0.76049670  0.09580951  1
  N  N69  1  0.55558957  0.87292127  0.84599870  1
  N  N70  1  0.44716208  0.75910705  0.59826198  1
  O  O71  1  0.09987607  0.11690140  0.09991152  1
