# generated using pymatgen
data_TaZn2N3
_symmetry_space_group_name_H-M   'P 1'
_cell_length_a   5.54444468
_cell_length_b   5.85198445
_cell_length_c   9.95764903
_cell_angle_alpha   89.97767719
_cell_angle_beta   90.69144909
_cell_angle_gamma   89.95019327
_symmetry_Int_Tables_number   1
_chemical_formula_structural   TaZn2N3
_chemical_formula_sum   'Ta4 Zn8 N12'
_cell_volume   323.06224614
_cell_formula_units_Z   4
loop_
 _symmetry_equiv_pos_site_id
 _symmetry_equiv_pos_as_xyz
  1  'x, y, z'
loop_
 _atom_site_type_symbol
 _atom_site_label
 _atom_site_symmetry_multiplicity
 _atom_site_fract_x
 _atom_site_fract_y
 _atom_site_fract_z
 _atom_site_occupancy
  Ta  Ta0  1  0.88862652  0.33162289  0.00304074  1
  Ta  Ta1  1  0.38796912  0.67040958  0.00388883  1
  Ta  Ta2  1  0.02744170  0.82949658  0.49983845  1
  Ta  Ta3  1  0.52771674  0.16908173  0.49979025  1
  Zn  Zn4  1  0.04030630  0.84571311  0.81912604  1
  Zn  Zn5  1  0.89317143  0.84045056  0.16779732  1
  Zn  Zn6  1  0.54089148  0.15429615  0.81870799  1
  Zn  Zn7  1  0.40839697  0.16148076  0.16902387  1
  Zn  Zn8  1  0.04605164  0.34025266  0.67269523  1
  Zn  Zn9  1  0.02899291  0.33953960  0.33286615  1
  Zn  Zn10  1  0.54655446  0.65869823  0.67359124  1
  Zn  Zn11  1  0.52847866  0.65941331  0.33558436  1
  N  N12  1  0.00489291  0.16325951  0.15753489  1
  N  N13  1  0.93032211  0.16678358  0.83551260  1
  N  N14  1  0.02531283  0.64890104  0.00573630  1
  N  N15  1  0.43038311  0.83346150  0.83603778  1
  N  N16  1  0.50993444  0.83660471  0.15847227  1
  N  N17  1  0.52468404  0.35326705  0.00438281  1
  N  N18  1  0.90963444  0.66301402  0.34492194  1
  N  N19  1  0.91753590  0.66671090  0.65929948  1
  N  N20  1  0.41758877  0.33280857  0.65865343  1
  N  N21  1  0.40964158  0.33585516  0.34450421  1
  N  N22  1  0.89146905  0.14923752  0.49920729  1
  N  N23  1  0.39161050  0.84964138  0.49978652  1
