# generated using pymatgen
data_TaZn2N3
_symmetry_space_group_name_H-M   'P 1'
_cell_length_a   5.48580522
_cell_length_b   5.83498426
_cell_length_c   9.95631765
_cell_angle_alpha   89.99986181
_cell_angle_beta   89.99987887
_cell_angle_gamma   89.46611876
_symmetry_Int_Tables_number   1
_chemical_formula_structural   TaZn2N3
_chemical_formula_sum   'Ta4 Zn8 N12'
_cell_volume   318.68378187
_cell_formula_units_Z   4
loop_
 _symmetry_equiv_pos_site_id
 _symmetry_equiv_pos_as_xyz
  1  'x, y, z'
loop_
 _atom_site_type_symbol
 _atom_site_label
 _atom_site_symmetry_multiplicity
 _atom_site_fract_x
 _atom_site_fract_y
 _atom_site_fract_z
 _atom_site_occupancy
  Ta  Ta0  1  0.02871942  0.31959303  0.00000060  1
  Ta  Ta1  1  0.50425712  0.66855086  0.00000076  1
  Ta  Ta2  1  0.02404671  0.83133611  0.49999922  1
  Ta  Ta3  1  0.52309571  0.17152289  0.49999925  1
  Zn  Zn4  1  0.02460377  0.83708055  0.82590017  1
  Zn  Zn5  1  0.02460396  0.83708073  0.17410004  1
  Zn  Zn6  1  0.53861823  0.16397448  0.82498175  1
  Zn  Zn7  1  0.53861814  0.16397441  0.17501845  1
  Zn  Zn8  1  0.03462973  0.33937290  0.67159213  1
  Zn  Zn9  1  0.03462982  0.33937289  0.32840769  1
  Zn  Zn10  1  0.53451478  0.66173354  0.67006229  1
  Zn  Zn11  1  0.53451475  0.66173352  0.32993730  1
  N  N12  1  0.91149340  0.16933964  0.16290010  1
  N  N13  1  0.91149338  0.16933967  0.83710005  1
  N  N14  1  0.92332092  0.64895808  1.00000019  1
  N  N15  1  0.41654822  0.83456595  0.83818573  1
  N  N16  1  0.41654792  0.83456604  0.16181443  1
  N  N17  1  0.39678450  0.33668207  1.00000017  1
  N  N18  1  0.90999211  0.66941491  0.34169941  1
  N  N19  1  0.90999201  0.66941481  0.65830057  1
  N  N20  1  0.41022215  0.33431679  0.65893453  1
  N  N21  1  0.41022217  0.33431679  0.34106550  1
  N  N22  1  0.88971025  0.15380546  0.49999983  1
  N  N23  1  0.39059358  0.84995405  0.49999982  1
