# generated using pymatgen
data_TaZn2N3
_symmetry_space_group_name_H-M   'P 1'
_cell_length_a   9.92930693
_cell_length_b   5.79817847
_cell_length_c   5.46874227
_cell_angle_alpha   90.00000217
_cell_angle_beta   89.99998290
_cell_angle_gamma   89.99999197
_symmetry_Int_Tables_number   1
_chemical_formula_structural   TaZn2N3
_chemical_formula_sum   'Ta4 Zn8 N12'
_cell_volume   314.84584811
_cell_formula_units_Z   4
loop_
 _symmetry_equiv_pos_site_id
 _symmetry_equiv_pos_as_xyz
  1  'x, y, z'
loop_
 _atom_site_type_symbol
 _atom_site_label
 _atom_site_symmetry_multiplicity
 _atom_site_fract_x
 _atom_site_fract_y
 _atom_site_fract_z
 _atom_site_occupancy
  Ta  Ta0  1  -0.99999997  0.32948814  0.01279336  1
  Ta  Ta1  1  0.00000002  0.67051197  0.51279336  1
  Ta  Ta2  1  -0.50000002  0.82948812  0.01279336  1
  Ta  Ta3  1  -0.50000004  0.17051194  0.51279337  1
  Zn  Zn4  1  -0.82749790  0.83825532  0.02319745  1
  Zn  Zn5  1  -0.17250210  0.83825546  0.02319752  1
  Zn  Zn6  1  -0.82749788  0.16174468  0.52319746  1
  Zn  Zn7  1  -0.17250206  0.16174475  0.52319751  1
  Zn  Zn8  1  -0.67250214  0.33825543  0.02319743  1
  Zn  Zn9  1  -0.32749795  0.33825531  0.02319756  1
  Zn  Zn10  1  -0.67250211  0.66174477  0.52319739  1
  Zn  Zn11  1  -0.32749792  0.66174464  0.52319758  1
  N  N12  1  -0.16007888  0.16914418  0.89880881  1
  N  N13  1  -0.83992115  0.16914420  0.89880884  1
  N  N14  1  -1.00000001  0.65372223  0.88056058  1
  N  N15  1  -0.83992119  0.83085585  0.39880880  1
  N  N16  1  -0.16007893  0.83085595  0.39880883  1
  N  N17  1  -1.00000002  0.34627789  0.38056058  1
  N  N18  1  -0.33992106  0.66914411  0.89880885  1
  N  N19  1  -0.66007879  0.66914424  0.89880879  1
  N  N20  1  -0.66007882  0.33085585  0.39880884  1
  N  N21  1  -0.33992110  0.33085591  0.39880882  1
  N  N22  1  -0.49999996  0.15372219  0.88056058  1
  N  N23  1  -0.49999997  0.84627787  0.38056057  1
