# generated using pymatgen
data_TaZn2N3
_symmetry_space_group_name_H-M   'P 1'
_cell_length_a   9.93580870
_cell_length_b   5.85406128
_cell_length_c   5.55790248
_cell_angle_alpha   89.95055027
_cell_angle_beta   89.39614548
_cell_angle_gamma   89.83592048
_symmetry_Int_Tables_number   1
_chemical_formula_structural   TaZn2N3
_chemical_formula_sum   'Ta4 Zn8 N12'
_cell_volume   323.25507760
_cell_formula_units_Z   4
loop_
 _symmetry_equiv_pos_site_id
 _symmetry_equiv_pos_as_xyz
  1  'x, y, z'
loop_
 _atom_site_type_symbol
 _atom_site_label
 _atom_site_symmetry_multiplicity
 _atom_site_fract_x
 _atom_site_fract_y
 _atom_site_fract_z
 _atom_site_occupancy
  Ta  Ta0  1  -0.00065670  0.32597522  0.90090819  1
  Ta  Ta1  1  -0.00372634  0.66372926  0.39679592  1
  Ta  Ta2  1  -0.49981462  0.83274108  0.02848643  1
  Ta  Ta3  1  -0.49925322  0.17098004  0.52781395  1
  Zn  Zn4  1  -0.82393218  0.83479939  0.02525006  1
  Zn  Zn5  1  -0.16695638  0.84152758  0.89418842  1
  Zn  Zn6  1  -0.83157496  0.16647747  0.41818259  1
  Zn  Zn7  1  -0.16639570  0.15572456  0.39675777  1
  Zn  Zn8  1  -0.66483506  0.34409672  0.03616864  1
  Zn  Zn9  1  -0.33305685  0.34282834  0.03086343  1
  Zn  Zn10  1  -0.67189177  0.66187062  0.54481083  1
  Zn  Zn11  1  -0.33485795  0.65861431  0.52962799  1
  N  N12  1  -0.15742980  0.16175734  0.01720998  1
  N  N13  1  -0.84099248  0.17266897  0.01155213  1
  N  N14  1  -0.00731788  0.64535383  0.03225314  1
  N  N15  1  -0.83874273  0.82772655  0.44336251  1
  N  N16  1  -0.15751747  0.83498973  0.51691332  1
  N  N17  1  -0.00055780  0.34527649  0.53688398  1
  N  N18  1  -0.34505588  0.66547251  0.91096737  1
  N  N19  1  -0.65888948  0.67009883  0.91573692  1
  N  N20  1  -0.65560348  0.33807135  0.41776452  1
  N  N21  1  -0.34275966  0.33553874  0.41156922  1
  N  N22  1  -0.49872825  0.15227418  0.89223257  1
  N  N23  1  -0.49945332  0.85140701  0.39140067  1
