# generated using pymatgen
data_TaZn2N3
_symmetry_space_group_name_H-M   'P 1'
_cell_length_a   5.50919604
_cell_length_b   5.87147174
_cell_length_c   10.02029768
_cell_angle_alpha   90.00000959
_cell_angle_beta   90.00001289
_cell_angle_gamma   89.69529985
_symmetry_Int_Tables_number   1
_chemical_formula_structural   TaZn2N3
_chemical_formula_sum   'Ta4 Zn8 N12'
_cell_volume   324.12287573
_cell_formula_units_Z   4
loop_
 _symmetry_equiv_pos_site_id
 _symmetry_equiv_pos_as_xyz
  1  'x, y, z'
loop_
 _atom_site_type_symbol
 _atom_site_label
 _atom_site_symmetry_multiplicity
 _atom_site_fract_x
 _atom_site_fract_y
 _atom_site_fract_z
 _atom_site_occupancy
  Ta  Ta0  1  0.98537001  0.32046522  -0.00000004  1
  Ta  Ta1  1  0.37449962  0.67826947  -0.00000007  1
  Ta  Ta2  1  0.02979509  0.82897839  0.50000005  1
  Ta  Ta3  1  0.52812050  0.16855046  0.50000005  1
  Zn  Zn4  1  0.02847916  0.84392473  0.81465758  1
  Zn  Zn5  1  0.02847912  0.84392434  0.18534238  1
  Zn  Zn6  1  0.52707070  0.16337703  0.82644146  1
  Zn  Zn7  1  0.52707068  0.16337714  0.17355842  1
  Zn  Zn8  1  0.04187748  0.33779361  0.66914289  1
  Zn  Zn9  1  0.04187760  0.33779325  0.33085728  1
  Zn  Zn10  1  0.54026200  0.65894650  0.67166956  1
  Zn  Zn11  1  0.54026220  0.65894652  0.32833046  1
  N  N12  1  0.91738489  0.16705980  0.16631775  1
  N  N13  1  0.91738482  0.16706008  0.83368219  1
  N  N14  1  0.00320036  0.65937125  0.99999993  1
  N  N15  1  0.42561523  0.83635325  0.83212906  1
  N  N16  1  0.42561519  0.83635329  0.16787099  1
  N  N17  1  0.40910248  0.33814236  0.99999998  1
  N  N18  1  0.91502387  0.66445778  0.34336189  1
  N  N19  1  0.91502379  0.66445801  0.65663812  1
  N  N20  1  0.41599759  0.33219435  0.65771833  1
  N  N21  1  0.41599771  0.33219437  0.34228170  1
  N  N22  1  0.89421588  0.14873767  0.50000003  1
  N  N23  1  0.39404676  0.84927131  0.50000002  1
