# generated using pymatgen
data_TaZn2N3
_symmetry_space_group_name_H-M   'P 1'
_cell_length_a   9.93340660
_cell_length_b   5.80398773
_cell_length_c   5.45696679
_cell_angle_alpha   89.99999547
_cell_angle_beta   89.99998365
_cell_angle_gamma   90.00001150
_symmetry_Int_Tables_number   1
_chemical_formula_structural   TaZn2N3
_chemical_formula_sum   'Ta4 Zn8 N12'
_cell_volume   314.61252590
_cell_formula_units_Z   4
loop_
 _symmetry_equiv_pos_site_id
 _symmetry_equiv_pos_as_xyz
  1  'x, y, z'
loop_
 _atom_site_type_symbol
 _atom_site_label
 _atom_site_symmetry_multiplicity
 _atom_site_fract_x
 _atom_site_fract_y
 _atom_site_fract_z
 _atom_site_occupancy
  Ta  Ta0  1  -0.99999991  0.32940004  0.99723432  1
  Ta  Ta1  1  -0.99999992  0.67059992  0.49723460  1
  Ta  Ta2  1  -0.50000000  0.82940015  0.99723449  1
  Ta  Ta3  1  -0.50000001  0.17059973  0.49723452  1
  Zn  Zn4  1  -0.82743829  0.83839033  0.00752432  1
  Zn  Zn5  1  -0.17256154  0.83839024  0.00752427  1
  Zn  Zn6  1  -0.82743910  0.16161022  0.50752390  1
  Zn  Zn7  1  -0.17256120  0.16160999  0.50752412  1
  Zn  Zn8  1  -0.67256156  0.33839029  0.00752429  1
  Zn  Zn9  1  -0.32743849  0.33839014  0.00752436  1
  Zn  Zn10  1  -0.67256133  0.66160986  0.50752411  1
  Zn  Zn11  1  -0.32743904  0.66161022  0.50752408  1
  N  N12  1  -0.16009897  0.16908197  0.88368554  1
  N  N13  1  -0.83990106  0.16908220  0.88368439  1
  N  N14  1  -0.00000020  0.65365145  0.86557860  1
  N  N15  1  -0.83990100  0.83091790  0.38368476  1
  N  N16  1  -0.16009912  0.83091659  0.38368460  1
  N  N17  1  -0.99999942  0.34634893  0.36557812  1
  N  N18  1  -0.33990087  0.66908300  0.88368471  1
  N  N19  1  -0.66009916  0.66908286  0.88368535  1
  N  N20  1  -0.66009916  0.33091661  0.38368521  1
  N  N21  1  -0.33990108  0.33091788  0.38368533  1
  N  N22  1  -0.50000009  0.15365071  0.86557795  1
  N  N23  1  -0.49999948  0.84634893  0.36557814  1
