# generated using pymatgen
data_TaZn2N3
_symmetry_space_group_name_H-M   'P 1'
_cell_length_a   9.93688524
_cell_length_b   5.85494564
_cell_length_c   5.55621851
_cell_angle_alpha   89.97127064
_cell_angle_beta   89.26785720
_cell_angle_gamma   89.81734597
_symmetry_Int_Tables_number   1
_chemical_formula_structural   TaZn2N3
_chemical_formula_sum   'Ta4 Zn8 N12'
_cell_volume   323.23229659
_cell_formula_units_Z   4
loop_
 _symmetry_equiv_pos_site_id
 _symmetry_equiv_pos_as_xyz
  1  'x, y, z'
loop_
 _atom_site_type_symbol
 _atom_site_label
 _atom_site_symmetry_multiplicity
 _atom_site_fract_x
 _atom_site_fract_y
 _atom_site_fract_z
 _atom_site_occupancy
  Ta  Ta0  1  -0.00115220  0.32660382  0.89944558  1
  Ta  Ta1  1  -0.00370109  0.66420228  0.39515168  1
  Ta  Ta2  1  -0.49967679  0.83242542  0.02855795  1
  Ta  Ta3  1  -0.49934932  0.17073078  0.52814473  1
  Zn  Zn4  1  -0.82288187  0.83702160  0.02936326  1
  Zn  Zn5  1  -0.16678026  0.84127267  0.89346537  1
  Zn  Zn6  1  -0.83002915  0.16539518  0.43571736  1
  Zn  Zn7  1  -0.16651262  0.15567637  0.39482668  1
  Zn  Zn8  1  -0.66645684  0.34383738  0.03792817  1
  Zn  Zn9  1  -0.33333171  0.34231001  0.02990991  1
  Zn  Zn10  1  -0.67183950  0.66186612  0.54618467  1
  Zn  Zn11  1  -0.33478133  0.65844577  0.52936924  1
  N  N12  1  -0.15773367  0.16133542  0.01607479  1
  N  N13  1  -0.84068387  0.17261710  0.00066417  1
  N  N14  1  -0.00706226  0.64608054  0.03128936  1
  N  N15  1  -0.83809045  0.82794127  0.44070072  1
  N  N16  1  -0.15751401  0.83510959  0.51571110  1
  N  N17  1  -0.00130598  0.34585970  0.53452288  1
  N  N18  1  -0.34486402  0.66508738  0.91050888  1
  N  N19  1  -0.65870835  0.66985334  0.91660515  1
  N  N20  1  -0.65616467  0.33773886  0.41824494  1
  N  N21  1  -0.34316460  0.33541215  0.41119615  1
  N  N22  1  -0.49883473  0.15192311  0.89234688  1
  N  N23  1  -0.49938071  0.85125424  0.39177092  1
