# generated using pymatgen
data_TaZn2N3
_symmetry_space_group_name_H-M   'P 1'
_cell_length_a   9.95764903
_cell_length_b   5.85198445
_cell_length_c   5.54444468
_cell_angle_alpha   89.95019327
_cell_angle_beta   89.30855091
_cell_angle_gamma   90.02232281
_symmetry_Int_Tables_number   1
_chemical_formula_structural   TaZn2N3
_chemical_formula_sum   'Ta4 Zn8 N12'
_cell_volume   323.06224614
_cell_formula_units_Z   4
loop_
 _symmetry_equiv_pos_site_id
 _symmetry_equiv_pos_as_xyz
  1  'x, y, z'
loop_
 _atom_site_type_symbol
 _atom_site_label
 _atom_site_symmetry_multiplicity
 _atom_site_fract_x
 _atom_site_fract_y
 _atom_site_fract_z
 _atom_site_occupancy
  Ta  Ta0  1  -0.00304074  0.33162289  0.88862652  1
  Ta  Ta1  1  -0.00388883  0.67040958  0.38796912  1
  Ta  Ta2  1  -0.49983845  0.82949658  0.02744170  1
  Ta  Ta3  1  -0.49979025  0.16908173  0.52771674  1
  Zn  Zn4  1  -0.81912604  0.84571311  0.04030630  1
  Zn  Zn5  1  -0.16779732  0.84045056  0.89317143  1
  Zn  Zn6  1  -0.81870799  0.15429615  0.54089148  1
  Zn  Zn7  1  -0.16902387  0.16148076  0.40839697  1
  Zn  Zn8  1  -0.67269523  0.34025266  0.04605164  1
  Zn  Zn9  1  -0.33286615  0.33953960  0.02899291  1
  Zn  Zn10  1  -0.67359124  0.65869823  0.54655446  1
  Zn  Zn11  1  -0.33558436  0.65941331  0.52847866  1
  N  N12  1  -0.15753489  0.16325951  0.00489291  1
  N  N13  1  -0.83551260  0.16678358  0.93032211  1
  N  N14  1  -0.00573630  0.64890104  0.02531283  1
  N  N15  1  -0.83603778  0.83346150  0.43038311  1
  N  N16  1  -0.15847227  0.83660471  0.50993444  1
  N  N17  1  -0.00438281  0.35326705  0.52468404  1
  N  N18  1  -0.34492194  0.66301402  0.90963444  1
  N  N19  1  -0.65929948  0.66671090  0.91753590  1
  N  N20  1  -0.65865343  0.33280857  0.41758877  1
  N  N21  1  -0.34450421  0.33585516  0.40964158  1
  N  N22  1  -0.49920729  0.14923752  0.89146905  1
  N  N23  1  -0.49978652  0.84964138  0.39161050  1
