# generated using pymatgen
data_TaZn2N3
_symmetry_space_group_name_H-M   'P 1'
_cell_length_a   9.96676994
_cell_length_b   5.84325014
_cell_length_c   5.49085719
_cell_angle_alpha   89.46098230
_cell_angle_beta   90.00002938
_cell_angle_gamma   90.00000004
_symmetry_Int_Tables_number   1
_chemical_formula_structural   TaZn2N3
_chemical_formula_sum   'Ta4 Zn8 N12'
_cell_volume   319.76420150
_cell_formula_units_Z   4
loop_
 _symmetry_equiv_pos_site_id
 _symmetry_equiv_pos_as_xyz
  1  'x, y, z'
loop_
 _atom_site_type_symbol
 _atom_site_label
 _atom_site_symmetry_multiplicity
 _atom_site_fract_x
 _atom_site_fract_y
 _atom_site_fract_z
 _atom_site_occupancy
  Ta  Ta0  1  -1.00000003  0.31582564  0.03027187  1
  Ta  Ta1  1  -1.00000007  0.66976174  0.47106236  1
  Ta  Ta2  1  -0.49999994  0.83156887  0.02414697  1
  Ta  Ta3  1  -0.49999996  0.17164841  0.52302978  1
  Zn  Zn4  1  -0.82511967  0.83772453  0.02204402  1
  Zn  Zn5  1  -0.17488040  0.83772468  0.02204407  1
  Zn  Zn6  1  -0.82473930  0.16453010  0.53922271  1
  Zn  Zn7  1  -0.17526077  0.16453014  0.53922269  1
  Zn  Zn8  1  -0.67152327  0.33936905  0.03471428  1
  Zn  Zn9  1  -0.32847672  0.33936904  0.03471428  1
  Zn  Zn10  1  -0.66968682  0.66149088  0.53459805  1
  Zn  Zn11  1  -0.33031302  0.66149079  0.53459804  1
  N  N12  1  -0.16363175  0.16930107  0.91133946  1
  N  N13  1  -0.83636829  0.16930102  0.91133947  1
  N  N14  1  -0.00000003  0.64863344  0.95164721  1
  N  N15  1  -0.83622845  0.83709861  0.41940100  1
  N  N16  1  -0.16377154  0.83709866  0.41940093  1
  N  N17  1  -0.00000004  0.33144251  0.39820261  1
  N  N18  1  -0.34181715  0.66946797  0.91008992  1
  N  N19  1  -0.65818283  0.66946800  0.91008996  1
  N  N20  1  -0.65874738  0.33462573  0.41035812  1
  N  N21  1  -0.34125264  0.33462577  0.41035804  1
  N  N22  1  -0.49999997  0.15354032  0.88954672  1
  N  N23  1  -0.49999995  0.85036320  0.39033018  1
