# generated using pymatgen
data_TaZn2N3
_symmetry_space_group_name_H-M   'P 1'
_cell_length_a   5.51087495
_cell_length_b   5.87171234
_cell_length_c   10.02089313
_cell_angle_alpha   90.00000852
_cell_angle_beta   89.99998728
_cell_angle_gamma   89.70193140
_symmetry_Int_Tables_number   1
_chemical_formula_structural   TaZn2N3
_chemical_formula_sum   'Ta4 Zn8 N12'
_cell_volume   324.25440240
_cell_formula_units_Z   4
loop_
 _symmetry_equiv_pos_site_id
 _symmetry_equiv_pos_as_xyz
  1  'x, y, z'
loop_
 _atom_site_type_symbol
 _atom_site_label
 _atom_site_symmetry_multiplicity
 _atom_site_fract_x
 _atom_site_fract_y
 _atom_site_fract_z
 _atom_site_occupancy
  Ta  Ta0  1  0.96986839  0.32287507  -0.00000005  1
  Ta  Ta1  1  0.37401674  0.67720998  -0.00000007  1
  Ta  Ta2  1  0.02982262  0.82888861  0.50000005  1
  Ta  Ta3  1  0.52825832  0.16844992  0.50000005  1
  Zn  Zn4  1  0.02898283  0.84373215  0.81462257  1
  Zn  Zn5  1  0.02898295  0.84373183  0.18537743  1
  Zn  Zn6  1  0.52603679  0.16317248  0.82636168  1
  Zn  Zn7  1  0.52603673  0.16317255  0.17363823  1
  Zn  Zn8  1  0.04211007  0.33785499  0.66907096  1
  Zn  Zn9  1  0.04211018  0.33785465  0.33092916  1
  Zn  Zn10  1  0.54035083  0.65898679  0.67174093  1
  Zn  Zn11  1  0.54035103  0.65898681  0.32825904  1
  N  N12  1  0.91940525  0.16637556  0.16650368  1
  N  N13  1  0.91940515  0.16637584  0.83349626  1
  N  N14  1  0.00373017  0.66002637  0.99999995  1
  N  N15  1  0.42585107  0.83614397  0.83221278  1
  N  N16  1  0.42585104  0.83614396  0.16778720  1
  N  N17  1  0.41999594  0.33917375  0.99999998  1
  N  N18  1  0.91506849  0.66429991  0.34338345  1
  N  N19  1  0.91506839  0.66430009  0.65661660  1
  N  N20  1  0.41611930  0.33215712  0.65769243  1
  N  N21  1  0.41611942  0.33215713  0.34230762  1
  N  N22  1  0.89422485  0.14864985  0.50000005  1
  N  N23  1  0.39400620  0.84928078  0.50000003  1
