# generated using pymatgen
data_TaZn2N3
_symmetry_space_group_name_H-M   'P 1'
_cell_length_a   5.55621851
_cell_length_b   5.85494564
_cell_length_c   9.93688524
_cell_angle_alpha   90.18265403
_cell_angle_beta   90.73214280
_cell_angle_gamma   89.97127064
_symmetry_Int_Tables_number   1
_chemical_formula_structural   TaZn2N3
_chemical_formula_sum   'Ta4 Zn8 N12'
_cell_volume   323.23229659
_cell_formula_units_Z   4
loop_
 _symmetry_equiv_pos_site_id
 _symmetry_equiv_pos_as_xyz
  1  'x, y, z'
loop_
 _atom_site_type_symbol
 _atom_site_label
 _atom_site_symmetry_multiplicity
 _atom_site_fract_x
 _atom_site_fract_y
 _atom_site_fract_z
 _atom_site_occupancy
  Ta  Ta0  1  0.89944558  0.32660382  0.00115220  1
  Ta  Ta1  1  0.39515168  0.66420228  0.00370109  1
  Ta  Ta2  1  0.02855795  0.83242542  0.49967679  1
  Ta  Ta3  1  0.52814473  0.17073078  0.49934932  1
  Zn  Zn4  1  0.02936326  0.83702160  0.82288187  1
  Zn  Zn5  1  0.89346537  0.84127267  0.16678026  1
  Zn  Zn6  1  0.43571736  0.16539518  0.83002915  1
  Zn  Zn7  1  0.39482668  0.15567637  0.16651262  1
  Zn  Zn8  1  0.03792817  0.34383738  0.66645684  1
  Zn  Zn9  1  0.02990991  0.34231001  0.33333171  1
  Zn  Zn10  1  0.54618467  0.66186612  0.67183950  1
  Zn  Zn11  1  0.52936924  0.65844577  0.33478133  1
  N  N12  1  0.01607479  0.16133542  0.15773367  1
  N  N13  1  0.00066417  0.17261710  0.84068387  1
  N  N14  1  0.03128936  0.64608054  0.00706226  1
  N  N15  1  0.44070072  0.82794127  0.83809045  1
  N  N16  1  0.51571110  0.83510959  0.15751401  1
  N  N17  1  0.53452288  0.34585970  0.00130598  1
  N  N18  1  0.91050888  0.66508738  0.34486402  1
  N  N19  1  0.91660515  0.66985334  0.65870835  1
  N  N20  1  0.41824494  0.33773886  0.65616467  1
  N  N21  1  0.41119615  0.33541215  0.34316460  1
  N  N22  1  0.89234688  0.15192311  0.49883473  1
  N  N23  1  0.39177092  0.85125424  0.49938071  1
