# generated using pymatgen
data_TaZn2N3
_symmetry_space_group_name_H-M   'P 1'
_cell_length_a   9.92128872
_cell_length_b   5.82603619
_cell_length_c   5.57640388
_cell_angle_alpha   89.99997807
_cell_angle_beta   89.99999454
_cell_angle_gamma   89.99999019
_symmetry_Int_Tables_number   1
_chemical_formula_structural   TaZn2N3
_chemical_formula_sum   'Ta4 Zn8 N12'
_cell_volume   322.32611006
_cell_formula_units_Z   4
loop_
 _symmetry_equiv_pos_site_id
 _symmetry_equiv_pos_as_xyz
  1  'x, y, z'
loop_
 _atom_site_type_symbol
 _atom_site_label
 _atom_site_symmetry_multiplicity
 _atom_site_fract_x
 _atom_site_fract_y
 _atom_site_fract_z
 _atom_site_occupancy
  Ta  Ta0  1  0.00000001  -0.33144322  -0.92769764  1
  Ta  Ta1  1  0.99999999  -0.66855689  -0.42769760  1
  Ta  Ta2  1  0.50000000  -0.83144330  -0.04876821  1
  Ta  Ta3  1  0.49999997  -0.16855673  -0.54876818  1
  Zn  Zn4  1  0.83415983  -0.84331871  -0.92184875  1
  Zn  Zn5  1  0.16584017  -0.84331852  -0.92184865  1
  Zn  Zn6  1  0.83415982  -0.15668149  -0.42184882  1
  Zn  Zn7  1  0.16584014  -0.15668152  -0.42184861  1
  Zn  Zn8  1  0.66584065  -0.34331840  -0.05461240  1
  Zn  Zn9  1  0.33415936  -0.34331838  -0.05461224  1
  Zn  Zn10  1  0.66584066  -0.65668154  -0.55461247  1
  Zn  Zn11  1  0.33415933  -0.65668174  -0.55461221  1
  N  N12  1  0.15678483  -0.16688632  -0.04246909  1
  N  N13  1  0.84321516  -0.16688643  -0.04246919  1
  N  N14  1  0.99999999  -0.65196936  -0.06447401  1
  N  N15  1  0.84321517  -0.83311365  -0.54246919  1
  N  N16  1  0.15678483  -0.83311371  -0.54246910  1
  N  N17  1  0.00000002  -0.34803069  -0.56447403  1
  N  N18  1  0.34321495  -0.66688727  -0.93399731  1
  N  N19  1  0.65678505  -0.66688730  -0.93399741  1
  N  N20  1  0.65678508  -0.33311280  -0.43399741  1
  N  N21  1  0.34321494  -0.33311287  -0.43399734  1
  N  N22  1  0.49999999  -0.15196951  -0.91199193  1
  N  N23  1  0.50000001  -0.84803054  -0.41199196  1
