# generated using pymatgen
data_TaZn2N3
_symmetry_space_group_name_H-M   'P 1'
_cell_length_a   5.57135723
_cell_length_b   5.82802866
_cell_length_c   9.92348627
_cell_angle_alpha   90.00000963
_cell_angle_beta   90.00000904
_cell_angle_gamma   89.99995332
_symmetry_Int_Tables_number   1
_chemical_formula_structural   TaZn2N3
_chemical_formula_sum   'Ta4 Zn8 N12'
_cell_volume   322.21589339
_cell_formula_units_Z   4
loop_
 _symmetry_equiv_pos_site_id
 _symmetry_equiv_pos_as_xyz
  1  'x, y, z'
loop_
 _atom_site_type_symbol
 _atom_site_label
 _atom_site_symmetry_multiplicity
 _atom_site_fract_x
 _atom_site_fract_y
 _atom_site_fract_z
 _atom_site_occupancy
  Ta  Ta0  1  0.91366858  0.33138385  0.00000001  1
  Ta  Ta1  1  0.41366849  0.66861682  0.99999998  1
  Ta  Ta2  1  0.03477154  0.83138381  0.50000000  1
  Ta  Ta3  1  0.53477146  0.16861669  0.49999997  1
  Zn  Zn4  1  0.90793482  0.84331074  0.83411661  1
  Zn  Zn5  1  0.90793473  0.84331054  0.16588338  1
  Zn  Zn6  1  0.40793492  0.15669001  0.83411662  1
  Zn  Zn7  1  0.40793472  0.15669004  0.16588335  1
  Zn  Zn8  1  0.04049936  0.34331034  0.66588392  1
  Zn  Zn9  1  0.04049921  0.34331030  0.33411609  1
  Zn  Zn10  1  0.54049947  0.65669009  0.66588393  1
  Zn  Zn11  1  0.54049921  0.65669030  0.33411605  1
  N  N12  1  0.02827850  0.16687239  0.15680445  1
  N  N13  1  0.02827860  0.16687252  0.84319554  1
  N  N14  1  0.05021212  0.65195395  1.00000000  1
  N  N15  1  0.52827856  0.83312804  0.84319557  1
  N  N16  1  0.52827851  0.83312811  0.15680444  1
  N  N17  1  0.55021216  0.34804659  0.00000001  1
  N  N18  1  0.92016200  0.66687352  0.34319530  1
  N  N19  1  0.92016212  0.66687357  0.65680469  1
  N  N20  1  0.42016212  0.33312707  0.65680473  1
  N  N21  1  0.42016204  0.33312718  0.34319528  1
  N  N22  1  0.89822815  0.15195411  0.49999999  1
  N  N23  1  0.39822821  0.84804650  0.50000000  1
