# generated using pymatgen
data_TaZn2N3
_symmetry_space_group_name_H-M   'P 1'
_cell_length_a   9.93058080
_cell_length_b   5.84715681
_cell_length_c   5.56294610
_cell_angle_alpha   90.00409255
_cell_angle_beta   89.56866561
_cell_angle_gamma   89.96226430
_symmetry_Int_Tables_number   1
_chemical_formula_structural   TaZn2N3
_chemical_formula_sum   'Ta4 Zn8 N12'
_cell_volume   323.00692998
_cell_formula_units_Z   4
loop_
 _symmetry_equiv_pos_site_id
 _symmetry_equiv_pos_as_xyz
  1  'x, y, z'
loop_
 _atom_site_type_symbol
 _atom_site_label
 _atom_site_symmetry_multiplicity
 _atom_site_fract_x
 _atom_site_fract_y
 _atom_site_fract_z
 _atom_site_occupancy
  Ta  Ta0  1  0.00016179  -0.32810486  -0.90273388  1
  Ta  Ta1  1  0.00217162  -0.66613748  -0.40205847  1
  Ta  Ta2  1  0.49981405  -0.83232772  -0.02878579  1
  Ta  Ta3  1  0.49946523  -0.17023086  -0.52815139  1
  Zn  Zn4  1  0.82890581  -0.83643196  -0.97119563  1
  Zn  Zn5  1  0.16660728  -0.84277380  -0.89584846  1
  Zn  Zn6  1  0.83251663  -0.16191859  -0.41115554  1
  Zn  Zn7  1  0.16605741  -0.15647839  -0.39886569  1
  Zn  Zn8  1  0.66448961  -0.34317321  -0.03617953  1
  Zn  Zn9  1  0.33323922  -0.34335306  -0.03228879  1
  Zn  Zn10  1  0.66996702  -0.65991187  -0.53961292  1
  Zn  Zn11  1  0.33455129  -0.65826765  -0.53061519  1
  N  N12  1  0.15698645  -0.16427374  -0.01864266  1
  N  N13  1  0.84166643  -0.17058406  -0.01656406  1
  N  N14  1  0.00397362  -0.64833387  -0.03592665  1
  N  N15  1  0.84169657  -0.82938381  -0.48033868  1
  N  N16  1  0.15782381  -0.83507437  -0.51865310  1
  N  N17  1  0.00024021  -0.34598306  -0.53955831  1
  N  N18  1  0.34443966  -0.66613756  -0.91236884  1
  N  N19  1  0.65790509  -0.66785458  -0.91531841  1
  N  N20  1  0.65577851  -0.33610756  -0.41642191  1
  N  N21  1  0.34283372  -0.33486684  -0.41231825  1
  N  N22  1  0.49904073  -0.15194536  -0.89241796  1
  N  N23  1  0.49966824  -0.85034583  -0.39168046  1
