# generated using pymatgen
data_TaZn2N3
_symmetry_space_group_name_H-M   'P 1'
_cell_length_a   9.97461184
_cell_length_b   5.84899759
_cell_length_c   5.49590598
_cell_angle_alpha   89.45937833
_cell_angle_beta   89.99996378
_cell_angle_gamma   89.99998087
_symmetry_Int_Tables_number   1
_chemical_formula_structural   TaZn2N3
_chemical_formula_sum   'Ta4 Zn8 N12'
_cell_volume   320.62501922
_cell_formula_units_Z   4
loop_
 _symmetry_equiv_pos_site_id
 _symmetry_equiv_pos_as_xyz
  1  'x, y, z'
loop_
 _atom_site_type_symbol
 _atom_site_label
 _atom_site_symmetry_multiplicity
 _atom_site_fract_x
 _atom_site_fract_y
 _atom_site_fract_z
 _atom_site_occupancy
  Ta  Ta0  1  -0.00000002  0.31143479  0.03254995  1
  Ta  Ta1  1  -1.00000000  0.67182225  0.43170798  1
  Ta  Ta2  1  -0.50000001  0.83175208  0.02439383  1
  Ta  Ta3  1  -0.50000001  0.17172936  0.52294732  1
  Zn  Zn4  1  -0.82414882  0.83837855  0.02041167  1
  Zn  Zn5  1  -0.17585122  0.83837863  0.02041164  1
  Zn  Zn6  1  -0.82461879  0.16466245  0.53954002  1
  Zn  Zn7  1  -0.17538122  0.16466259  0.53954004  1
  Zn  Zn8  1  -0.67139498  0.33934041  0.03493727  1
  Zn  Zn9  1  -0.32860513  0.33934033  0.03493721  1
  Zn  Zn10  1  -0.66959312  0.66148499  0.53462715  1
  Zn  Zn11  1  -0.33040684  0.66148492  0.53462707  1
  N  N12  1  -0.16406246  0.16932429  0.91146309  1
  N  N13  1  -0.83593748  0.16932427  0.91146313  1
  N  N14  1  -0.99999996  0.64831144  0.98073693  1
  N  N15  1  -0.83469678  0.83871943  0.42309837  1
  N  N16  1  -0.16530323  0.83871954  0.42309833  1
  N  N17  1  -0.99999999  0.32853290  0.40003600  1
  N  N18  1  -0.34180892  0.66944998  0.91035487  1
  N  N19  1  -0.65819099  0.66944998  0.91035492  1
  N  N20  1  -0.65861666  0.33483112  0.41050820  1
  N  N21  1  -0.34138338  0.33483114  0.41050814  1
  N  N22  1  -0.50000000  0.15332792  0.88949488  1
  N  N23  1  -0.49999999  0.85070680  0.39002472  1
