# generated using pymatgen
data_TaZn2N3
_symmetry_space_group_name_H-M   'P 1'
_cell_length_a   10.00193173
_cell_length_b   5.85686803
_cell_length_c   5.52425546
_cell_angle_alpha   89.99004823
_cell_angle_beta   89.94282527
_cell_angle_gamma   89.92341633
_symmetry_Int_Tables_number   1
_chemical_formula_structural   TaZn2N3
_chemical_formula_sum   'Ta4 Zn8 N12'
_cell_volume   323.61039776
_cell_formula_units_Z   4
loop_
 _symmetry_equiv_pos_site_id
 _symmetry_equiv_pos_as_xyz
  1  'x, y, z'
loop_
 _atom_site_type_symbol
 _atom_site_label
 _atom_site_symmetry_multiplicity
 _atom_site_fract_x
 _atom_site_fract_y
 _atom_site_fract_z
 _atom_site_occupancy
  Ta  Ta0  1  0.00007771  -0.33157938  -0.87374494  1
  Ta  Ta1  1  0.00058759  -0.66974719  -0.37420424  1
  Ta  Ta2  1  0.49975511  -0.82940734  -0.02771010  1
  Ta  Ta3  1  0.49996466  -0.16984513  -0.52780997  1
  Zn  Zn4  1  0.81707828  -0.84548421  -0.03259511  1
  Zn  Zn5  1  0.18034191  -0.84077536  -0.01651712  1
  Zn  Zn6  1  0.81707846  -0.15587273  -0.53146516  1
  Zn  Zn7  1  0.18178495  -0.15743638  -0.52612757  1
  Zn  Zn8  1  0.67221491  -0.33950577  -0.04196983  1
  Zn  Zn9  1  0.32828963  -0.33740637  -0.03972653  1
  Zn  Zn10  1  0.67282066  -0.66115321  -0.54207543  1
  Zn  Zn11  1  0.32897869  -0.66109637  -0.53790963  1
  N  N12  1  0.16498403  -0.16453606  -0.92338752  1
  N  N13  1  0.83449847  -0.16530220  -0.92380752  1
  N  N14  1  0.00028882  -0.64714528  -0.00983099  1
  N  N15  1  0.83500809  -0.83614370  -0.42367539  1
  N  N16  1  0.16532151  -0.83524853  -0.42681553  1
  N  N17  1  0.99989846  -0.35410538  -0.51005788  1
  N  N18  1  0.34285605  -0.66390650  -0.91223818  1
  N  N19  1  0.65751551  -0.66589519  -0.91448302  1
  N  N20  1  0.65739658  -0.33484173  -0.41448512  1
  N  N21  1  0.34292479  -0.33426981  -0.41255712  1
  N  N22  1  0.49996285  -0.14890278  -0.89227256  1
  N  N23  1  0.50037227  -0.85039351  -0.39213887  1
