# generated using pymatgen
data_TaZn2N3
_symmetry_space_group_name_H-M   'P 1'
_cell_length_a   10.01892195
_cell_length_b   5.86921257
_cell_length_c   5.51591887
_cell_angle_alpha   89.70795554
_cell_angle_beta   90.00000501
_cell_angle_gamma   89.99998934
_symmetry_Int_Tables_number   1
_chemical_formula_structural   TaZn2N3
_chemical_formula_sum   'Ta4 Zn8 N12'
_cell_volume   324.34937102
_cell_formula_units_Z   4
loop_
 _symmetry_equiv_pos_site_id
 _symmetry_equiv_pos_as_xyz
  1  'x, y, z'
loop_
 _atom_site_type_symbol
 _atom_site_label
 _atom_site_symmetry_multiplicity
 _atom_site_fract_x
 _atom_site_fract_y
 _atom_site_fract_z
 _atom_site_occupancy
  Ta  Ta0  1  -0.00000004  -0.32885469  -0.92196174  1
  Ta  Ta1  1  -0.00000006  -0.67425196  -0.37458479  1
  Ta  Ta2  1  0.50000003  -0.82872610  -0.02984840  1
  Ta  Ta3  1  0.50000003  -0.16830388  -0.52860026  1
  Zn  Zn4  1  0.81472743  -0.84369398  -0.02998737  1
  Zn  Zn5  1  0.18527256  -0.84369369  -0.02998755  1
  Zn  Zn6  1  0.82564961  -0.16240788  -0.52437375  1
  Zn  Zn7  1  0.17435031  -0.16240795  -0.52437363  1
  Zn  Zn8  1  0.66919730  -0.33785748  -0.04253675  1
  Zn  Zn9  1  0.33080283  -0.33785713  -0.04253686  1
  Zn  Zn10  1  0.67183845  -0.65907683  -0.54060530  1
  Zn  Zn11  1  0.32816152  -0.65907684  -0.54060551  1
  N  N12  1  0.16625461  -0.16559479  -0.92414686  1
  N  N13  1  0.83374538  -0.16559510  -0.92414680  1
  N  N14  1  0.99999996  -0.65855485  -0.00627414  1
  N  N15  1  0.83269979  -0.83586932  -0.42610160  1
  N  N16  1  0.16730021  -0.83586931  -0.42610155  1
  N  N17  1  0.99999999  -0.34193417  -0.45416132  1
  N  N18  1  0.34337500  -0.66410483  -0.91505775  1
  N  N19  1  0.65662500  -0.66410504  -0.91505763  1
  N  N20  1  0.65766758  -0.33218212  -0.41628478  1
  N  N21  1  0.34233247  -0.33218216  -0.41628485  1
  N  N22  1  0.50000001  -0.14852846  -0.89418631  1
  N  N23  1  0.50000002  -0.84927160  -0.39396725  1
