# generated using pymatgen
data_TaZn2N3
_symmetry_space_group_name_H-M   'P 1'
_cell_length_a   9.95631765
_cell_length_b   5.83498426
_cell_length_c   5.48580522
_cell_angle_alpha   89.46611876
_cell_angle_beta   90.00012113
_cell_angle_gamma   90.00013819
_symmetry_Int_Tables_number   1
_chemical_formula_structural   TaZn2N3
_chemical_formula_sum   'Ta4 Zn8 N12'
_cell_volume   318.68378187
_cell_formula_units_Z   4
loop_
 _symmetry_equiv_pos_site_id
 _symmetry_equiv_pos_as_xyz
  1  'x, y, z'
loop_
 _atom_site_type_symbol
 _atom_site_label
 _atom_site_symmetry_multiplicity
 _atom_site_fract_x
 _atom_site_fract_y
 _atom_site_fract_z
 _atom_site_occupancy
  Ta  Ta0  1  0.00000060  -0.31959303  -0.02871942  1
  Ta  Ta1  1  0.00000076  -0.66855086  -0.50425712  1
  Ta  Ta2  1  0.49999922  -0.83133611  -0.02404671  1
  Ta  Ta3  1  0.49999925  -0.17152289  -0.52309571  1
  Zn  Zn4  1  0.82590017  -0.83708055  -0.02460377  1
  Zn  Zn5  1  0.17410004  -0.83708073  -0.02460396  1
  Zn  Zn6  1  0.82498175  -0.16397448  -0.53861823  1
  Zn  Zn7  1  0.17501845  -0.16397441  -0.53861814  1
  Zn  Zn8  1  0.67159213  -0.33937290  -0.03462973  1
  Zn  Zn9  1  0.32840769  -0.33937289  -0.03462982  1
  Zn  Zn10  1  0.67006229  -0.66173354  -0.53451478  1
  Zn  Zn11  1  0.32993730  -0.66173352  -0.53451475  1
  N  N12  1  0.16290010  -0.16933964  -0.91149340  1
  N  N13  1  0.83710005  -0.16933967  -0.91149338  1
  N  N14  1  1.00000019  -0.64895808  -0.92332092  1
  N  N15  1  0.83818573  -0.83456595  -0.41654822  1
  N  N16  1  0.16181443  -0.83456604  -0.41654792  1
  N  N17  1  1.00000017  -0.33668207  -0.39678450  1
  N  N18  1  0.34169941  -0.66941491  -0.90999211  1
  N  N19  1  0.65830057  -0.66941481  -0.90999201  1
  N  N20  1  0.65893453  -0.33431679  -0.41022215  1
  N  N21  1  0.34106550  -0.33431679  -0.41022217  1
  N  N22  1  0.49999983  -0.15380546  -0.88971025  1
  N  N23  1  0.49999982  -0.84995405  -0.39059358  1
