# generated using pymatgen
data_TaZn2N3
_symmetry_space_group_name_H-M   'P 1'
_cell_length_a   5.51591887
_cell_length_b   5.86921257
_cell_length_c   10.01892195
_cell_angle_alpha   90.00001066
_cell_angle_beta   89.99999499
_cell_angle_gamma   89.70795554
_symmetry_Int_Tables_number   1
_chemical_formula_structural   TaZn2N3
_chemical_formula_sum   'Ta4 Zn8 N12'
_cell_volume   324.34937102
_cell_formula_units_Z   4
loop_
 _symmetry_equiv_pos_site_id
 _symmetry_equiv_pos_as_xyz
  1  'x, y, z'
loop_
 _atom_site_type_symbol
 _atom_site_label
 _atom_site_symmetry_multiplicity
 _atom_site_fract_x
 _atom_site_fract_y
 _atom_site_fract_z
 _atom_site_occupancy
  Ta  Ta0  1  0.92196174  0.32885469  -0.00000004  1
  Ta  Ta1  1  0.37458479  0.67425196  -0.00000006  1
  Ta  Ta2  1  0.02984840  0.82872610  0.50000003  1
  Ta  Ta3  1  0.52860026  0.16830388  0.50000003  1
  Zn  Zn4  1  0.02998737  0.84369398  0.81472743  1
  Zn  Zn5  1  0.02998755  0.84369369  0.18527256  1
  Zn  Zn6  1  0.52437375  0.16240788  0.82564961  1
  Zn  Zn7  1  0.52437363  0.16240795  0.17435031  1
  Zn  Zn8  1  0.04253675  0.33785748  0.66919730  1
  Zn  Zn9  1  0.04253686  0.33785713  0.33080283  1
  Zn  Zn10  1  0.54060530  0.65907683  0.67183845  1
  Zn  Zn11  1  0.54060551  0.65907684  0.32816152  1
  N  N12  1  0.92414686  0.16559479  0.16625461  1
  N  N13  1  0.92414680  0.16559510  0.83374538  1
  N  N14  1  0.00627414  0.65855485  0.99999996  1
  N  N15  1  0.42610160  0.83586932  0.83269979  1
  N  N16  1  0.42610155  0.83586931  0.16730021  1
  N  N17  1  0.45416132  0.34193417  0.99999999  1
  N  N18  1  0.91505775  0.66410483  0.34337500  1
  N  N19  1  0.91505763  0.66410504  0.65662500  1
  N  N20  1  0.41628478  0.33218212  0.65766758  1
  N  N21  1  0.41628485  0.33218216  0.34233247  1
  N  N22  1  0.89418631  0.14852846  0.50000001  1
  N  N23  1  0.39396725  0.84927160  0.50000002  1
