# generated using pymatgen
data_TaZn2N3
_symmetry_space_group_name_H-M   'P 1'
_cell_length_a   9.99771366
_cell_length_b   5.86013235
_cell_length_c   5.52593767
_cell_angle_alpha   89.99033591
_cell_angle_beta   89.90743432
_cell_angle_gamma   89.88586045
_symmetry_Int_Tables_number   1
_chemical_formula_structural   TaZn2N3
_chemical_formula_sum   'Ta4 Zn8 N12'
_cell_volume   323.75215371
_cell_formula_units_Z   4
loop_
 _symmetry_equiv_pos_site_id
 _symmetry_equiv_pos_as_xyz
  1  'x, y, z'
loop_
 _atom_site_type_symbol
 _atom_site_label
 _atom_site_symmetry_multiplicity
 _atom_site_fract_x
 _atom_site_fract_y
 _atom_site_fract_z
 _atom_site_occupancy
  Ta  Ta0  1  0.00005002  -0.33217256  -0.87454801  1
  Ta  Ta1  1  0.00108538  -0.67041613  -0.37581992  1
  Ta  Ta2  1  0.49980815  -0.82929047  -0.02789631  1
  Ta  Ta3  1  0.49998486  -0.16959100  -0.52803571  1
  Zn  Zn4  1  0.81728828  -0.84592455  -0.03380750  1
  Zn  Zn5  1  0.17822806  -0.83839249  -0.99963540  1
  Zn  Zn6  1  0.81718598  -0.15584557  -0.53192208  1
  Zn  Zn7  1  0.18111665  -0.15902550  -0.52323917  1
  Zn  Zn8  1  0.67227151  -0.33978064  -0.04251874  1
  Zn  Zn9  1  0.32864322  -0.33681754  -0.03965381  1
  Zn  Zn10  1  0.67314178  -0.66099479  -0.54266059  1
  Zn  Zn11  1  0.32990537  -0.66084251  -0.53622484  1
  N  N12  1  0.16463578  -0.16532805  -0.92532824  1
  N  N13  1  0.83450223  -0.16563810  -0.92458551  1
  N  N14  1  0.00098767  -0.64791902  -0.01065934  1
  N  N15  1  0.83508070  -0.83635782  -0.42418141  1
  N  N16  1  0.16443017  -0.83455907  -0.43684595  1
  N  N17  1  0.99977082  -0.35426912  -0.51076631  1
  N  N18  1  0.34328003  -0.66289330  -0.91217215  1
  N  N19  1  0.65772453  -0.66608679  -0.91503879  1
  N  N20  1  0.65739082  -0.33482593  -0.41500074  1
  N  N21  1  0.34309372  -0.33411468  -0.41239759  1
  N  N22  1  0.49991788  -0.14858943  -0.89242396  1
  N  N23  1  0.50047637  -0.85032505  -0.39224553  1
