# generated using pymatgen
data_TaZn2N3
_symmetry_space_group_name_H-M   'P 1'
_cell_length_a   5.50751971
_cell_length_b   5.87061966
_cell_length_c   10.01899969
_cell_angle_alpha   90.00001079
_cell_angle_beta   90.00006941
_cell_angle_gamma   89.68397946
_symmetry_Int_Tables_number   1
_chemical_formula_structural   TaZn2N3
_chemical_formula_sum   'Ta4 Zn8 N12'
_cell_volume   323.93491569
_cell_formula_units_Z   4
loop_
 _symmetry_equiv_pos_site_id
 _symmetry_equiv_pos_as_xyz
  1  'x, y, z'
loop_
 _atom_site_type_symbol
 _atom_site_label
 _atom_site_symmetry_multiplicity
 _atom_site_fract_x
 _atom_site_fract_y
 _atom_site_fract_z
 _atom_site_occupancy
  Ta  Ta0  1  0.00030957  0.31759643  -0.00000004  1
  Ta  Ta1  1  0.37544713  0.67931870  0.99999991  1
  Ta  Ta2  1  0.02974029  0.82909873  0.50000009  1
  Ta  Ta3  1  0.52794732  0.16870101  0.50000010  1
  Zn  Zn4  1  0.02774668  0.84423961  0.81476278  1
  Zn  Zn5  1  0.02774682  0.84423928  0.18523725  1
  Zn  Zn6  1  0.52864783  0.16358223  0.82642143  1
  Zn  Zn7  1  0.52864796  0.16358219  0.17357855  1
  Zn  Zn8  1  0.04154105  0.33767639  0.66930155  1
  Zn  Zn9  1  0.04154121  0.33767608  0.33069853  1
  Zn  Zn10  1  0.54014201  0.65890613  0.67156248  1
  Zn  Zn11  1  0.54014230  0.65890605  0.32843746  1
  N  N12  1  0.91508385  0.16793815  0.16602509  1
  N  N13  1  0.91508373  0.16793837  0.83397479  1
  N  N14  1  0.00310471  0.65815116  -0.00000006  1
  N  N15  1  0.42526530  0.83673441  0.83208753  1
  N  N16  1  0.42526531  0.83673447  0.16791248  1
  N  N17  1  0.39860787  0.33693469  1.00000000  1
  N  N18  1  0.91492910  0.66468435  0.34332493  1
  N  N19  1  0.91492894  0.66468454  0.65667509  1
  N  N20  1  0.41581503  0.33226936  0.65777067  1
  N  N21  1  0.41581516  0.33226937  0.34222938  1
  N  N22  1  0.89416564  0.14887190  0.50000000  1
  N  N23  1  0.39410794  0.84926656  0.50000001  1
