# generated using pymatgen
data_TaZn2N3
_symmetry_space_group_name_H-M   'P 1'
_cell_length_a   5.48242662
_cell_length_b   5.82621986
_cell_length_c   9.94567820
_cell_angle_alpha   90.00003993
_cell_angle_beta   89.99973576
_cell_angle_gamma   89.48165748
_symmetry_Int_Tables_number   1
_chemical_formula_structural   TaZn2N3
_chemical_formula_sum   'Ta4 Zn8 N12'
_cell_volume   317.67009097
_cell_formula_units_Z   4
loop_
 _symmetry_equiv_pos_site_id
 _symmetry_equiv_pos_as_xyz
  1  'x, y, z'
loop_
 _atom_site_type_symbol
 _atom_site_label
 _atom_site_symmetry_multiplicity
 _atom_site_fract_x
 _atom_site_fract_y
 _atom_site_fract_z
 _atom_site_occupancy
  Ta  Ta0  1  0.02829176  0.32263281  0.00000077  1
  Ta  Ta1  1  0.52082981  0.66822915  0.00000100  1
  Ta  Ta2  1  0.02408574  0.83107994  0.49999907  1
  Ta  Ta3  1  0.52317162  0.17140335  0.49999901  1
  Zn  Zn4  1  0.02787817  0.83669202  0.82647545  1
  Zn  Zn5  1  0.02787832  0.83669219  0.17352456  1
  Zn  Zn6  1  0.53778155  0.16309679  0.82544267  1
  Zn  Zn7  1  0.53778129  0.16309673  0.17455738  1
  Zn  Zn8  1  0.03465899  0.33927275  0.67166176  1
  Zn  Zn9  1  0.03465908  0.33927278  0.32833807  1
  Zn  Zn10  1  0.53435917  0.66213160  0.67064798  1
  Zn  Zn11  1  0.53435929  0.66213158  0.32935170  1
  N  N12  1  0.91189625  0.16935481  0.16199974  1
  N  N13  1  0.91189600  0.16935437  0.83800001  1
  N  N14  1  0.90541926  0.64916429  0.99999999  1
  N  N15  1  0.41484588  0.83250072  0.83957059  1
  N  N16  1  0.41484645  0.83250019  0.16042884  1
  N  N17  1  0.39601245  0.34117234  0.99999999  1
  N  N18  1  0.91001800  0.66940858  0.34138599  1
  N  N19  1  0.91001770  0.66940810  0.65861464  1
  N  N20  1  0.41015027  0.33393630  0.65916502  1
  N  N21  1  0.41015060  0.33393581  0.34083565  1
  N  N22  1  0.89001132  0.15406315  0.50000010  1
  N  N23  1  0.39077376  0.84946983  0.50000003  1
