# generated using pymatgen
data_TaZn2N3
_symmetry_space_group_name_H-M   'P 1'
_cell_length_a   5.56294610
_cell_length_b   5.84715681
_cell_length_c   9.93058080
_cell_angle_alpha   90.03773570
_cell_angle_beta   90.43133439
_cell_angle_gamma   90.00409255
_symmetry_Int_Tables_number   1
_chemical_formula_structural   TaZn2N3
_chemical_formula_sum   'Ta4 Zn8 N12'
_cell_volume   323.00692998
_cell_formula_units_Z   4
loop_
 _symmetry_equiv_pos_site_id
 _symmetry_equiv_pos_as_xyz
  1  'x, y, z'
loop_
 _atom_site_type_symbol
 _atom_site_label
 _atom_site_symmetry_multiplicity
 _atom_site_fract_x
 _atom_site_fract_y
 _atom_site_fract_z
 _atom_site_occupancy
  Ta  Ta0  1  0.90273388  0.32810486  0.00016179  1
  Ta  Ta1  1  0.40205847  0.66613748  0.00217162  1
  Ta  Ta2  1  0.02878579  0.83232772  0.49981405  1
  Ta  Ta3  1  0.52815139  0.17023086  0.49946523  1
  Zn  Zn4  1  0.97119563  0.83643196  0.82890581  1
  Zn  Zn5  1  0.89584846  0.84277380  0.16660728  1
  Zn  Zn6  1  0.41115554  0.16191859  0.83251663  1
  Zn  Zn7  1  0.39886569  0.15647839  0.16605741  1
  Zn  Zn8  1  0.03617953  0.34317321  0.66448961  1
  Zn  Zn9  1  0.03228879  0.34335306  0.33323922  1
  Zn  Zn10  1  0.53961292  0.65991187  0.66996702  1
  Zn  Zn11  1  0.53061519  0.65826765  0.33455129  1
  N  N12  1  0.01864266  0.16427374  0.15698645  1
  N  N13  1  0.01656406  0.17058406  0.84166643  1
  N  N14  1  0.03592665  0.64833387  0.00397362  1
  N  N15  1  0.48033868  0.82938381  0.84169657  1
  N  N16  1  0.51865310  0.83507437  0.15782381  1
  N  N17  1  0.53955831  0.34598306  0.00024021  1
  N  N18  1  0.91236884  0.66613756  0.34443966  1
  N  N19  1  0.91531841  0.66785458  0.65790509  1
  N  N20  1  0.41642191  0.33610756  0.65577851  1
  N  N21  1  0.41231825  0.33486684  0.34283372  1
  N  N22  1  0.89241796  0.15194536  0.49904073  1
  N  N23  1  0.39168046  0.85034583  0.49966824  1
