# generated using pymatgen
data_TaZn2N3
_symmetry_space_group_name_H-M   'P 1'
_cell_length_a   5.48411832
_cell_length_b   5.83126164
_cell_length_c   9.95170856
_cell_angle_alpha   90.00004578
_cell_angle_beta   89.99983300
_cell_angle_gamma   89.47111739
_symmetry_Int_Tables_number   1
_chemical_formula_structural   TaZn2N3
_chemical_formula_sum   'Ta4 Zn8 N12'
_cell_volume   318.23540162
_cell_formula_units_Z   4
loop_
 _symmetry_equiv_pos_site_id
 _symmetry_equiv_pos_as_xyz
  1  'x, y, z'
loop_
 _atom_site_type_symbol
 _atom_site_label
 _atom_site_symmetry_multiplicity
 _atom_site_fract_x
 _atom_site_fract_y
 _atom_site_fract_z
 _atom_site_occupancy
  Ta  Ta0  1  0.02846039  0.32096239  0.99999903  1
  Ta  Ta1  1  0.51331040  0.66832865  0.99999865  1
  Ta  Ta2  1  0.02405486  0.83123535  0.50000088  1
  Ta  Ta3  1  0.52312083  0.17147119  0.50000088  1
  Zn  Zn4  1  0.02591324  0.83687655  0.82616438  1
  Zn  Zn5  1  0.02591299  0.83687671  0.17383547  1
  Zn  Zn6  1  0.53827860  0.16363417  0.82515065  1
  Zn  Zn7  1  0.53827851  0.16363430  0.17484912  1
  Zn  Zn8  1  0.03463505  0.33934702  0.67161571  1
  Zn  Zn9  1  0.03463505  0.33934693  0.32838444  1
  Zn  Zn10  1  0.53444894  0.66189446  0.67029045  1
  Zn  Zn11  1  0.53444893  0.66189438  0.32970954  1
  N  N12  1  0.91165226  0.16935915  0.16252693  1
  N  N13  1  0.91165278  0.16935980  0.83747382  1
  N  N14  1  0.91420834  0.64904138  0.00000009  1
  N  N15  1  0.41574908  0.83357936  0.83887881  1
  N  N16  1  0.41574863  0.83358046  0.16112232  1
  N  N17  1  0.39641711  0.33876640  0.00000017  1
  N  N18  1  0.90999262  0.66939887  0.34159014  1
  N  N19  1  0.90999302  0.66939945  0.65840928  1
  N  N20  1  0.41018107  0.33416638  0.65902369  1
  N  N21  1  0.41018056  0.33416711  0.34097571  1
  N  N22  1  0.88982369  0.15391916  0.49999992  1
  N  N23  1  0.39067582  0.84976054  0.49999989  1
