# generated using pymatgen
data_TaZn2N3
_symmetry_space_group_name_H-M   'P 1'
_cell_length_a   9.97935564
_cell_length_b   5.86478390
_cell_length_c   5.53603099
_cell_angle_alpha   89.98950407
_cell_angle_beta   89.57746534
_cell_angle_gamma   89.89631236
_symmetry_Int_Tables_number   1
_chemical_formula_structural   TaZn2N3
_chemical_formula_sum   'Ta4 Zn8 N12'
_cell_volume   323.99663492
_cell_formula_units_Z   4
loop_
 _symmetry_equiv_pos_site_id
 _symmetry_equiv_pos_as_xyz
  1  'x, y, z'
loop_
 _atom_site_type_symbol
 _atom_site_label
 _atom_site_symmetry_multiplicity
 _atom_site_fract_x
 _atom_site_fract_y
 _atom_site_fract_z
 _atom_site_occupancy
  Ta  Ta0  1  -0.00053699  0.33470745  0.88155117  1
  Ta  Ta1  1  -0.00312574  0.67293074  0.38381074  1
  Ta  Ta2  1  -0.50019415  0.82876982  0.02736475  1
  Ta  Ta3  1  -0.49988926  0.16845535  0.52828121  1
  Zn  Zn4  1  -0.81860541  0.84610443  0.03781855  1
  Zn  Zn5  1  -0.16958773  0.83351700  0.90293674  1
  Zn  Zn6  1  -0.81750213  0.15483926  0.53658344  1
  Zn  Zn7  1  -0.17681687  0.16658921  0.49729789  1
  Zn  Zn8  1  -0.67254776  0.33975066  0.04404903  1
  Zn  Zn9  1  -0.32944946  0.33684184  0.03575736  1
  Zn  Zn10  1  -0.67387506  0.65925913  0.54541642  1
  Zn  Zn11  1  -0.33585941  0.65908248  0.52916492  1
  N  N12  1  -0.16176307  0.16787821  0.94473610  1
  N  N13  1  -0.83489684  0.16565367  0.92810378  1
  N  N14  1  -0.00532655  0.65089241  0.02092489  1
  N  N15  1  -0.83546285  0.83505061  0.42770357  1
  N  N16  1  -0.15984842  0.83223008  0.50159068  1
  N  N17  1  -0.99936181  0.35577540  0.51538057  1
  N  N18  1  -0.34574230  0.66080086  0.91169054  1
  N  N19  1  -0.65917355  0.66596268  0.91679730  1
  N  N20  1  -0.65733527  0.33353990  0.41657994  1
  N  N21  1  -0.34307957  0.33369121  0.41024870  1
  N  N22  1  -0.49970542  0.14804306  0.89153207  1
  N  N23  1  -0.50031437  0.84963466  0.39228727  1
