# generated using pymatgen
data_TaZn2N3
_symmetry_space_group_name_H-M   'P 1'
_cell_length_a   5.49759234
_cell_length_b   5.85055204
_cell_length_c   9.97729534
_cell_angle_alpha   90.00001854
_cell_angle_beta   90.00008371
_cell_angle_gamma   89.45511532
_symmetry_Int_Tables_number   1
_chemical_formula_structural   TaZn2N3
_chemical_formula_sum   'Ta4 Zn8 N12'
_cell_volume   320.89471753
_cell_formula_units_Z   4
loop_
 _symmetry_equiv_pos_site_id
 _symmetry_equiv_pos_as_xyz
  1  'x, y, z'
loop_
 _atom_site_type_symbol
 _atom_site_label
 _atom_site_symmetry_multiplicity
 _atom_site_fract_x
 _atom_site_fract_y
 _atom_site_fract_z
 _atom_site_occupancy
  Ta  Ta0  1  0.03305740  0.30957328  0.00000008  1
  Ta  Ta1  1  0.41807767  0.67286398  -0.00000001  1
  Ta  Ta2  1  0.02450651  0.83178493  0.49999999  1
  Ta  Ta3  1  0.52291334  0.17173925  0.49999999  1
  Zn  Zn4  1  0.02003436  0.83869561  0.82358141  1
  Zn  Zn5  1  0.02003428  0.83869566  0.17641862  1
  Zn  Zn6  1  0.53959543  0.16460905  0.82456860  1
  Zn  Zn7  1  0.53959548  0.16460921  0.17543143  1
  Zn  Zn8  1  0.03507755  0.33933530  0.67130943  1
  Zn  Zn9  1  0.03507747  0.33933521  0.32869070  1
  Zn  Zn10  1  0.53465618  0.66152580  0.66964667  1
  Zn  Zn11  1  0.53465610  0.66152570  0.33035330  1
  N  N12  1  0.91151646  0.16928045  0.16421101  1
  N  N13  1  0.91151666  0.16928060  0.83578904  1
  N  N14  1  0.99082436  0.64809905  1.00000000  1
  N  N15  1  0.42433952  0.83899643  0.83429662  1
  N  N16  1  0.42433947  0.83899681  0.16570369  1
  N  N17  1  0.40044007  0.32843248  1.00000004  1
  N  N18  1  0.91049283  0.66937929  0.34181386  1
  N  N19  1  0.91049300  0.66937939  0.65818586  1
  N  N20  1  0.41057004  0.33488687  0.65858133  1
  N  N21  1  0.41056995  0.33488704  0.34141849  1
  N  N22  1  0.88948039  0.15324606  0.49999995  1
  N  N23  1  0.38990824  0.85084271  0.49999992  1
