# generated using pymatgen
data_TaZn2N3
_symmetry_space_group_name_H-M   'P 1'
_cell_length_a   5.47378890
_cell_length_b   5.79609528
_cell_length_c   9.92677390
_cell_angle_alpha   90.00001006
_cell_angle_beta   89.99997935
_cell_angle_gamma   89.99977308
_symmetry_Int_Tables_number   1
_chemical_formula_structural   TaZn2N3
_chemical_formula_sum   'Ta4 Zn8 N12'
_cell_volume   314.94280484
_cell_formula_units_Z   4
loop_
 _symmetry_equiv_pos_site_id
 _symmetry_equiv_pos_as_xyz
  1  'x, y, z'
loop_
 _atom_site_type_symbol
 _atom_site_label
 _atom_site_symmetry_multiplicity
 _atom_site_fract_x
 _atom_site_fract_y
 _atom_site_fract_z
 _atom_site_occupancy
  Ta  Ta0  1  0.01998444  0.32955654  0.00000004  1
  Ta  Ta1  1  0.51998401  0.67044360  0.00000005  1
  Ta  Ta2  1  0.01998428  0.82955668  0.49999992  1
  Ta  Ta3  1  0.51998384  0.17044374  0.49999993  1
  Zn  Zn4  1  0.03046817  0.83825413  0.82752731  1
  Zn  Zn5  1  0.03046841  0.83825423  0.17247281  1
  Zn  Zn6  1  0.53046837  0.16174604  0.82752729  1
  Zn  Zn7  1  0.53046856  0.16174618  0.17247276  1
  Zn  Zn8  1  0.03046814  0.33825436  0.67247272  1
  Zn  Zn9  1  0.03046815  0.33825421  0.32752720  1
  Zn  Zn10  1  0.53046834  0.66174622  0.67247262  1
  Zn  Zn11  1  0.53046842  0.66174612  0.32752723  1
  N  N12  1  0.90582303  0.16919353  0.16007644  1
  N  N13  1  0.90582328  0.16919394  0.83992391  1
  N  N14  1  0.88749879  0.65375673  1.00000005  1
  N  N15  1  0.40582323  0.83080718  0.83992399  1
  N  N16  1  0.40582304  0.83080767  0.16007646  1
  N  N17  1  0.38749902  0.34624394  1.00000007  1
  N  N18  1  0.90582296  0.66919359  0.33992352  1
  N  N19  1  0.90582317  0.66919406  0.66007604  1
  N  N20  1  0.40582315  0.33080730  0.66007608  1
  N  N21  1  0.40582286  0.33080772  0.33992355  1
  N  N22  1  0.88749861  0.15375690  0.49999994  1
  N  N23  1  0.38749885  0.84624405  0.49999995  1
