# generated using pymatgen
data_TaZn2N3
_symmetry_space_group_name_H-M   'P 1'
_cell_length_a   9.93926374
_cell_length_b   5.85042419
_cell_length_c   5.54780617
_cell_angle_alpha   90.01264231
_cell_angle_beta   89.06517266
_cell_angle_gamma   89.91702133
_symmetry_Int_Tables_number   1
_chemical_formula_structural   TaZn2N3
_chemical_formula_sum   'Ta4 Zn8 N12'
_cell_volume   322.55559061
_cell_formula_units_Z   4
loop_
 _symmetry_equiv_pos_site_id
 _symmetry_equiv_pos_as_xyz
  1  'x, y, z'
loop_
 _atom_site_type_symbol
 _atom_site_label
 _atom_site_symmetry_multiplicity
 _atom_site_fract_x
 _atom_site_fract_y
 _atom_site_fract_z
 _atom_site_occupancy
  Ta  Ta0  1  -0.00333160  0.32989259  0.89168268  1
  Ta  Ta1  1  -0.00372876  0.66760320  0.39098052  1
  Ta  Ta2  1  -0.49961484  0.83112327  0.02781845  1
  Ta  Ta3  1  -0.49982628  0.17021883  0.52776065  1
  Zn  Zn4  1  -0.82035676  0.84455659  0.03939469  1
  Zn  Zn5  1  -0.16679057  0.84097792  0.89140443  1
  Zn  Zn6  1  -0.82225675  0.15785120  0.52674331  1
  Zn  Zn7  1  -0.16686419  0.15683335  0.39124182  1
  Zn  Zn8  1  -0.67173085  0.34167946  0.04495993  1
  Zn  Zn9  1  -0.33412627  0.34105850  0.02811816  1
  Zn  Zn10  1  -0.67259841  0.66058542  0.54727299  1
  Zn  Zn11  1  -0.33486262  0.65863235  0.52832422  1
  N  N12  1  -0.15753136  0.16086489  0.01312306  1
  N  N13  1  -0.83630221  0.16814435  0.93859084  1
  N  N14  1  -0.00607631  0.64744956  0.02836031  1
  N  N15  1  -0.83656877  0.83218087  0.43333363  1
  N  N16  1  -0.15776582  0.83674100  0.51291849  1
  N  N17  1  -0.00520979  0.35001986  0.52784004  1
  N  N18  1  -0.34441774  0.66405447  0.90931946  1
  N  N19  1  -0.65888072  0.66824158  0.91802660  1
  N  N20  1  -0.65886504  0.33444560  0.41771808  1
  N  N21  1  -0.34418080  0.33553024  0.40938178  1
  N  N22  1  -0.49886739  0.15083716  0.89163289  1
  N  N23  1  -0.49924615  0.85047784  0.39175352  1
