# generated using pymatgen
data_TaZn2N3
_symmetry_space_group_name_H-M   'P 1'
_cell_length_a   9.94872085
_cell_length_b   5.84652513
_cell_length_c   5.54612532
_cell_angle_alpha   89.96910880
_cell_angle_beta   89.11347983
_cell_angle_gamma   90.02183008
_symmetry_Int_Tables_number   1
_chemical_formula_structural   TaZn2N3
_chemical_formula_sum   'Ta4 Zn8 N12'
_cell_volume   322.55416979
_cell_formula_units_Z   4
loop_
 _symmetry_equiv_pos_site_id
 _symmetry_equiv_pos_as_xyz
  1  'x, y, z'
loop_
 _atom_site_type_symbol
 _atom_site_label
 _atom_site_symmetry_multiplicity
 _atom_site_fract_x
 _atom_site_fract_y
 _atom_site_fract_z
 _atom_site_occupancy
  Ta  Ta0  1  -0.00377448  0.33153033  0.88987375  1
  Ta  Ta1  1  -0.00397864  0.66911193  0.38973728  1
  Ta  Ta2  1  -0.49960224  0.83013130  0.02718771  1
  Ta  Ta3  1  -0.49954279  0.16933548  0.52718627  1
  Zn  Zn4  1  -0.81903630  0.84631009  0.04315620  1
  Zn  Zn5  1  -0.16696355  0.84174853  0.88985835  1
  Zn  Zn6  1  -0.81886481  0.15338839  0.54404601  1
  Zn  Zn7  1  -0.16699026  0.15900962  0.39110353  1
  Zn  Zn8  1  -0.67307452  0.34099958  0.04779123  1
  Zn  Zn9  1  -0.33449750  0.34072864  0.02695782  1
  Zn  Zn10  1  -0.67328516  0.65842370  0.54762149  1
  Zn  Zn11  1  -0.33485538  0.65913185  0.52696904  1
  N  N12  1  -0.15766586  0.16214910  0.01111622  1
  N  N13  1  -0.83601021  0.16748952  0.93204643  1
  N  N14  1  -0.00601333  0.64863798  0.02713517  1
  N  N15  1  -0.83607808  0.83259721  0.43215925  1
  N  N16  1  -0.15790865  0.83818101  0.51111521  1
  N  N17  1  -0.00592776  0.35202496  0.52726872  1
  N  N18  1  -0.34445596  0.66404906  0.90805797  1
  N  N19  1  -0.65928992  0.66730738  0.91836344  1
  N  N20  1  -0.65914504  0.33228664  0.41848321  1
  N  N21  1  -0.34443027  0.33586331  0.40807677  1
  N  N22  1  -0.49923340  0.15005344  0.89111709  1
  N  N23  1  -0.49937587  0.84951111  0.39111121  1
