# generated using pymatgen
data_TaZn2N3
_symmetry_space_group_name_H-M   'P 1'
_cell_length_a   9.93624189
_cell_length_b   5.81750107
_cell_length_c   5.48071672
_cell_angle_alpha   89.51426085
_cell_angle_beta   90.00048914
_cell_angle_gamma   90.00003731
_symmetry_Int_Tables_number   1
_chemical_formula_structural   TaZn2N3
_chemical_formula_sum   'Ta4 Zn8 N12'
_cell_volume   316.79650083
_cell_formula_units_Z   4
loop_
 _symmetry_equiv_pos_site_id
 _symmetry_equiv_pos_as_xyz
  1  'x, y, z'
loop_
 _atom_site_type_symbol
 _atom_site_label
 _atom_site_symmetry_multiplicity
 _atom_site_fract_x
 _atom_site_fract_y
 _atom_site_fract_z
 _atom_site_occupancy
  Ta  Ta0  1  -0.99999969  0.32496372  0.02794580  1
  Ta  Ta1  1  0.00000036  0.66845242  0.52530314  1
  Ta  Ta2  1  -0.49999987  0.83073712  0.02416268  1
  Ta  Ta3  1  -0.49999993  0.17127330  0.52334431  1
  Zn  Zn4  1  -0.82692092  0.83663971  0.03129114  1
  Zn  Zn5  1  -0.17307879  0.83663981  0.03129103  1
  Zn  Zn6  1  -0.82605483  0.16217199  0.53705214  1
  Zn  Zn7  1  -0.17394490  0.16217208  0.53705165  1
  Zn  Zn8  1  -0.67182731  0.33903362  0.03469655  1
  Zn  Zn9  1  -0.32817250  0.33903364  0.03469670  1
  Zn  Zn10  1  -0.67127921  0.66241534  0.53436093  1
  Zn  Zn11  1  -0.32872043  0.66241528  0.53436122  1
  N  N12  1  -0.16119999  0.16921786  0.91212557  1
  N  N13  1  -0.83880033  0.16921794  0.91212571  1
  N  N14  1  -0.00000013  0.64977167  0.89788465  1
  N  N15  1  -0.84010615  0.83146378  0.41343112  1
  N  N16  1  -0.15989459  0.83146433  0.41343059  1
  N  N17  1  -0.00000012  0.34389426  0.39532262  1
  N  N18  1  -0.34092807  0.66952357  0.91008830  1
  N  N19  1  -0.65907218  0.66952352  0.91008837  1
  N  N20  1  -0.65947225  0.33342770  0.41017943  1
  N  N21  1  -0.34052801  0.33342765  0.41017937  1
  N  N22  1  -0.50000009  0.15424923  0.89039444  1
  N  N23  1  -0.50000005  0.84887062  0.39096528  1
