# generated using pymatgen
data_TaZn2N3
_symmetry_space_group_name_H-M   'P 1'
_cell_length_a   5.56462827
_cell_length_b   5.84418920
_cell_length_c   9.92920912
_cell_angle_alpha   90.01688450
_cell_angle_beta   90.39057478
_cell_angle_gamma   90.01319742
_symmetry_Int_Tables_number   1
_chemical_formula_structural   TaZn2N3
_chemical_formula_sum   'Ta4 Zn8 N12'
_cell_volume   322.89770720
_cell_formula_units_Z   4
loop_
 _symmetry_equiv_pos_site_id
 _symmetry_equiv_pos_as_xyz
  1  'x, y, z'
loop_
 _atom_site_type_symbol
 _atom_site_label
 _atom_site_symmetry_multiplicity
 _atom_site_fract_x
 _atom_site_fract_y
 _atom_site_fract_z
 _atom_site_occupancy
  Ta  Ta0  1  0.90352932  0.32869118  0.00001150  1
  Ta  Ta1  1  0.40348941  0.66684690  0.00165305  1
  Ta  Ta2  1  0.02875213  0.83218943  0.49980433  1
  Ta  Ta3  1  0.52821961  0.17004906  0.49954792  1
  Zn  Zn4  1  0.95303081  0.83751703  0.83021065  1
  Zn  Zn5  1  0.89649027  0.84282996  0.16649680  1
  Zn  Zn6  1  0.40947144  0.16053069  0.83275832  1
  Zn  Zn7  1  0.39917536  0.15660336  0.16599560  1
  Zn  Zn8  1  0.03611679  0.34309101  0.66458614  1
  Zn  Zn9  1  0.03243575  0.34337855  0.33330512  1
  Zn  Zn10  1  0.53839897  0.65934011  0.66925668  1
  Zn  Zn11  1  0.53092203  0.65809458  0.33455469  1
  N  N12  1  0.01899094  0.16470451  0.15687771  1
  N  N13  1  0.01794191  0.16982399  0.84189267  1
  N  N14  1  0.03766508  0.64904951  0.00307226  1
  N  N15  1  0.49323351  0.83022878  0.84247859  1
  N  N16  1  0.51900222  0.83477642  0.15779629  1
  N  N17  1  0.54032962  0.34640915  0.00026421  1
  N  N18  1  0.91253181  0.66622935  0.34419817  1
  N  N19  1  0.91538059  0.66741195  0.65750693  1
  N  N20  1  0.41610574  0.33560231  0.65594061  1
  N  N21  1  0.41238400  0.33462134  0.34287026  1
  N  N22  1  0.89233426  0.15192868  0.49913871  1
  N  N23  1  0.39176899  0.85005225  0.49978277  1
