# generated using pymatgen
data_TaZn2N3
_symmetry_space_group_name_H-M   'P 1'
_cell_length_a   9.92677390
_cell_length_b   5.79609528
_cell_length_c   5.47378890
_cell_angle_alpha   89.99977308
_cell_angle_beta   90.00002065
_cell_angle_gamma   89.99998994
_symmetry_Int_Tables_number   1
_chemical_formula_structural   TaZn2N3
_chemical_formula_sum   'Ta4 Zn8 N12'
_cell_volume   314.94280484
_cell_formula_units_Z   4
loop_
 _symmetry_equiv_pos_site_id
 _symmetry_equiv_pos_as_xyz
  1  'x, y, z'
loop_
 _atom_site_type_symbol
 _atom_site_label
 _atom_site_symmetry_multiplicity
 _atom_site_fract_x
 _atom_site_fract_y
 _atom_site_fract_z
 _atom_site_occupancy
  Ta  Ta0  1  -0.00000004  0.32955654  0.01998444  1
  Ta  Ta1  1  -0.00000005  0.67044360  0.51998401  1
  Ta  Ta2  1  -0.49999992  0.82955668  0.01998428  1
  Ta  Ta3  1  -0.49999993  0.17044374  0.51998384  1
  Zn  Zn4  1  -0.82752731  0.83825413  0.03046817  1
  Zn  Zn5  1  -0.17247281  0.83825423  0.03046841  1
  Zn  Zn6  1  -0.82752729  0.16174604  0.53046837  1
  Zn  Zn7  1  -0.17247276  0.16174618  0.53046856  1
  Zn  Zn8  1  -0.67247272  0.33825436  0.03046814  1
  Zn  Zn9  1  -0.32752720  0.33825421  0.03046815  1
  Zn  Zn10  1  -0.67247262  0.66174622  0.53046834  1
  Zn  Zn11  1  -0.32752723  0.66174612  0.53046842  1
  N  N12  1  -0.16007644  0.16919353  0.90582303  1
  N  N13  1  -0.83992391  0.16919394  0.90582328  1
  N  N14  1  -1.00000005  0.65375673  0.88749879  1
  N  N15  1  -0.83992399  0.83080718  0.40582323  1
  N  N16  1  -0.16007646  0.83080767  0.40582304  1
  N  N17  1  -1.00000007  0.34624394  0.38749902  1
  N  N18  1  -0.33992352  0.66919359  0.90582296  1
  N  N19  1  -0.66007604  0.66919406  0.90582317  1
  N  N20  1  -0.66007608  0.33080730  0.40582315  1
  N  N21  1  -0.33992355  0.33080772  0.40582286  1
  N  N22  1  -0.49999994  0.15375690  0.88749861  1
  N  N23  1  -0.49999995  0.84624405  0.38749885  1
