# generated using pymatgen
data_TaZn2N3
_symmetry_space_group_name_H-M   'P 1'
_cell_length_a   9.97482396
_cell_length_b   5.86338158
_cell_length_c   5.53771396
_cell_angle_alpha   89.97302490
_cell_angle_beta   89.51190675
_cell_angle_gamma   89.94062086
_symmetry_Int_Tables_number   1
_chemical_formula_structural   TaZn2N3
_chemical_formula_sum   'Ta4 Zn8 N12'
_cell_volume   323.86788035
_cell_formula_units_Z   4
loop_
 _symmetry_equiv_pos_site_id
 _symmetry_equiv_pos_as_xyz
  1  'x, y, z'
loop_
 _atom_site_type_symbol
 _atom_site_label
 _atom_site_symmetry_multiplicity
 _atom_site_fract_x
 _atom_site_fract_y
 _atom_site_fract_z
 _atom_site_occupancy
  Ta  Ta0  1  0.00102875  -0.33412747  -0.88340277  1
  Ta  Ta1  1  0.00326805  -0.67252053  -0.38451420  1
  Ta  Ta2  1  0.50014180  -0.82884776  -0.02730522  1
  Ta  Ta3  1  0.49989214  -0.16848670  -0.52820467  1
  Zn  Zn4  1  0.81875333  -0.84597150  -0.03822976  1
  Zn  Zn5  1  0.16911844  -0.83488006  -0.89988485  1
  Zn  Zn6  1  0.81770260  -0.15451482  -0.53788153  1
  Zn  Zn7  1  0.17516638  -0.16626963  -0.48006932  1
  Zn  Zn8  1  0.67265116  -0.33972397  -0.04445031  1
  Zn  Zn9  1  0.32994071  -0.33731520  -0.03399340  1
  Zn  Zn10  1  0.67387514  -0.65896502  -0.54582652  1
  Zn  Zn11  1  0.33610083  -0.65928989  -0.52901393  1
  N  N12  1  0.16069566  -0.16713093  -0.95656062  1
  N  N13  1  0.83492648  -0.16560398  -0.92853571  1
  N  N14  1  0.00554023  -0.65080477  -0.02200913  1
  N  N15  1  0.83556597  -0.83458014  -0.42838555  1
  N  N16  1  0.15961638  -0.83302360  -0.50374980  1
  N  N17  1  0.00033259  -0.35529395  -0.51696890  1
  N  N18  1  0.34570145  -0.66118999  -0.91113688  1
  N  N19  1  0.65923350  -0.66598132  -0.91704383  1
  N  N20  1  0.65754253  -0.33327446  -0.41688446  1
  N  N21  1  0.34333600  -0.33434931  -0.40996952  1
  N  N22  1  0.49964301  -0.14818579  -0.89140397  1
  N  N23  1  0.50022685  -0.84966931  -0.39218276  1
