# generated using pymatgen
data_TaZn2N3
_symmetry_space_group_name_H-M   'P 1'
_cell_length_a   10.01392822
_cell_length_b   5.85213976
_cell_length_c   5.50282062
_cell_angle_alpha   89.28505509
_cell_angle_beta   89.99987327
_cell_angle_gamma   90.00004395
_symmetry_Int_Tables_number   1
_chemical_formula_structural   TaZn2N3
_chemical_formula_sum   'Ta4 Zn8 N12'
_cell_volume   322.45618248
_cell_formula_units_Z   4
loop_
 _symmetry_equiv_pos_site_id
 _symmetry_equiv_pos_as_xyz
  1  'x, y, z'
loop_
 _atom_site_type_symbol
 _atom_site_label
 _atom_site_symmetry_multiplicity
 _atom_site_fract_x
 _atom_site_fract_y
 _atom_site_fract_z
 _atom_site_occupancy
  Ta  Ta0  1  0.00000014  -0.30435232  -0.03146949  1
  Ta  Ta1  1  0.00000028  -0.67874358  -0.38372243  1
  Ta  Ta2  1  0.49999977  -0.83032898  -0.02623069  1
  Ta  Ta3  1  0.49999996  -0.17094431  -0.52377892  1
  Zn  Zn4  1  0.81654895  -0.84282246  -0.02375989  1
  Zn  Zn5  1  0.18345071  -0.84282175  -0.02375905  1
  Zn  Zn6  1  0.82487627  -0.16460567  -0.53889738  1
  Zn  Zn7  1  0.17512402  -0.16460565  -0.53889741  1
  Zn  Zn8  1  0.67059504  -0.33786597  -0.03753603  1
  Zn  Zn9  1  0.32940483  -0.33786556  -0.03753589  1
  Zn  Zn10  1  0.67098187  -0.66097225  -0.53591110  1
  Zn  Zn11  1  0.32901836  -0.66097200  -0.53591098  1
  N  N12  1  0.16518261  -0.16959390  -0.91093539  1
  N  N13  1  0.83481747  -0.16959453  -0.91093564  1
  N  N14  1  0.00000012  -0.64636734  -0.01019923  1
  N  N15  1  0.83286479  -0.84008023  -0.42323726  1
  N  N16  1  0.16713580  -0.84008076  -0.42323713  1
  N  N17  1  0.00000025  -0.33192424  -0.39789657  1
  N  N18  1  0.34282942  -0.66714469  -0.91121757  1
  N  N19  1  0.65717018  -0.66714534  -0.91121781  1
  N  N20  1  0.65823555  -0.33450854  -0.41217579  1
  N  N21  1  0.34176403  -0.33450863  -0.41217552  1
  N  N22  1  0.49999975  -0.15143352  -0.89036899  1
  N  N23  1  0.49999982  -0.85071792  -0.39076661  1
