# generated using pymatgen
data_TaZn2N3
_symmetry_space_group_name_H-M   'P 1'
_cell_length_a   5.46706006
_cell_length_b   5.79886285
_cell_length_c   9.93017502
_cell_angle_alpha   90.00000878
_cell_angle_beta   90.00001906
_cell_angle_gamma   90.00000051
_symmetry_Int_Tables_number   1
_chemical_formula_structural   TaZn2N3
_chemical_formula_sum   'Ta4 Zn8 N12'
_cell_volume   314.81367203
_cell_formula_units_Z   4
loop_
 _symmetry_equiv_pos_site_id
 _symmetry_equiv_pos_as_xyz
  1  'x, y, z'
loop_
 _atom_site_type_symbol
 _atom_site_label
 _atom_site_symmetry_multiplicity
 _atom_site_fract_x
 _atom_site_fract_y
 _atom_site_fract_z
 _atom_site_occupancy
  Ta  Ta0  1  0.01052751  0.32946526  -0.00000001  1
  Ta  Ta1  1  0.51052752  0.67053480  0.00000000  1
  Ta  Ta2  1  0.01052750  0.82946526  0.50000001  1
  Ta  Ta3  1  0.51052751  0.17053480  0.50000002  1
  Zn  Zn4  1  0.02091256  0.83825463  0.82748788  1
  Zn  Zn5  1  0.02091256  0.83825479  0.17251218  1
  Zn  Zn6  1  0.52091260  0.16174530  0.82748785  1
  Zn  Zn7  1  0.52091253  0.16174540  0.17251215  1
  Zn  Zn8  1  0.02091264  0.33825475  0.67251218  1
  Zn  Zn9  1  0.02091247  0.33825464  0.32748788  1
  Zn  Zn10  1  0.52091261  0.66174542  0.67251214  1
  Zn  Zn11  1  0.52091249  0.66174532  0.32748784  1
  N  N12  1  0.89660498  0.16912704  0.16008011  1
  N  N13  1  0.89660521  0.16912707  0.83991998  1
  N  N14  1  0.87837881  0.65371101  1.00000004  1
  N  N15  1  0.39660517  0.83087297  0.83992001  1
  N  N16  1  0.39660504  0.83087307  0.16008014  1
  N  N17  1  0.37837882  0.34628903  1.00000006  1
  N  N18  1  0.89660499  0.66912697  0.33991985  1
  N  N19  1  0.89660520  0.66912711  0.66007996  1
  N  N20  1  0.39660523  0.33087300  0.66008000  1
  N  N21  1  0.39660496  0.33087307  0.33991988  1
  N  N22  1  0.87837880  0.15371100  0.49999991  1
  N  N23  1  0.37837880  0.84628906  0.49999992  1
