# generated using pymatgen
data_TaZn2N3
_symmetry_space_group_name_H-M   'P 1'
_cell_length_a   5.57472166
_cell_length_b   5.82669137
_cell_length_c   9.92202952
_cell_angle_alpha   90.00000975
_cell_angle_beta   90.00000475
_cell_angle_gamma   89.99996956
_symmetry_Int_Tables_number   1
_chemical_formula_structural   TaZn2N3
_chemical_formula_sum   'Ta4 Zn8 N12'
_cell_volume   322.28917435
_cell_formula_units_Z   4
loop_
 _symmetry_equiv_pos_site_id
 _symmetry_equiv_pos_as_xyz
  1  'x, y, z'
loop_
 _atom_site_type_symbol
 _atom_site_label
 _atom_site_symmetry_multiplicity
 _atom_site_fract_x
 _atom_site_fract_y
 _atom_site_fract_z
 _atom_site_occupancy
  Ta  Ta0  1  0.92305018  0.33142453  0.00000002  1
  Ta  Ta1  1  0.42305013  0.66857566  1.00000000  1
  Ta  Ta2  1  0.04414016  0.83142421  0.50000001  1
  Ta  Ta3  1  0.54414009  0.16857587  0.49999998  1
  Zn  Zn4  1  0.91723971  0.84331782  0.83414576  1
  Zn  Zn5  1  0.91723999  0.84331763  0.16585424  1
  Zn  Zn6  1  0.41723979  0.15668245  0.83414577  1
  Zn  Zn7  1  0.41723997  0.15668248  0.16585421  1
  Zn  Zn8  1  0.04995355  0.34331766  0.66585344  1
  Zn  Zn9  1  0.04995379  0.34331764  0.33414659  1
  Zn  Zn10  1  0.54995363  0.65668234  0.66585344  1
  Zn  Zn11  1  0.54995376  0.65668253  0.33414656  1
  N  N12  1  0.03776719  0.16688427  0.15679201  1
  N  N13  1  0.03776711  0.16688436  0.84320797  1
  N  N14  1  0.05974872  0.65196537  0.99999998  1
  N  N15  1  0.53776710  0.83311576  0.84320799  1
  N  N16  1  0.53776723  0.83311579  0.15679200  1
  N  N17  1  0.55974876  0.34803477  0.00000000  1
  N  N18  1  0.92942196  0.66688342  0.34320836  1
  N  N19  1  0.92942188  0.66688348  0.65679163  1
  N  N20  1  0.42942186  0.33311666  0.65679164  1
  N  N21  1  0.42942197  0.33311678  0.34320836  1
  N  N22  1  0.90744146  0.15196512  0.49999998  1
  N  N23  1  0.40744148  0.84803505  0.50000000  1
