# generated using pymatgen
data_TaZn2N3
_symmetry_space_group_name_H-M   'P 1'
_cell_length_a   9.93269589
_cell_length_b   5.80090863
_cell_length_c   5.46201343
_cell_angle_alpha   89.99999790
_cell_angle_beta   90.00002292
_cell_angle_gamma   89.99999138
_symmetry_Int_Tables_number   1
_chemical_formula_structural   TaZn2N3
_chemical_formula_sum   'Ta4 Zn8 N12'
_cell_volume   314.71390170
_cell_formula_units_Z   4
loop_
 _symmetry_equiv_pos_site_id
 _symmetry_equiv_pos_as_xyz
  1  'x, y, z'
loop_
 _atom_site_type_symbol
 _atom_site_label
 _atom_site_symmetry_multiplicity
 _atom_site_fract_x
 _atom_site_fract_y
 _atom_site_fract_z
 _atom_site_occupancy
  Ta  Ta0  1  -0.00000003  0.32940163  0.00381083  1
  Ta  Ta1  1  -0.00000005  0.67059840  0.50381082  1
  Ta  Ta2  1  -0.49999994  0.82940163  0.00381082  1
  Ta  Ta3  1  -0.49999995  0.17059840  0.50381081  1
  Zn  Zn4  1  -0.82745298  0.83825876  0.01420910  1
  Zn  Zn5  1  -0.17254705  0.83825885  0.01420903  1
  Zn  Zn6  1  -0.82745295  0.16174115  0.51420913  1
  Zn  Zn7  1  -0.17254701  0.16174130  0.51420900  1
  Zn  Zn8  1  -0.67254703  0.33825889  0.01420909  1
  Zn  Zn9  1  -0.32745297  0.33825871  0.01420902  1
  Zn  Zn10  1  -0.67254700  0.66174126  0.51420907  1
  Zn  Zn11  1  -0.32745293  0.66174120  0.51420906  1
  N  N12  1  -0.16008712  0.16907030  0.89009964  1
  N  N13  1  -0.83991281  0.16907021  0.89009969  1
  N  N14  1  -0.00000000  0.65368056  0.87190673  1
  N  N15  1  -0.83991285  0.83092979  0.39009967  1
  N  N16  1  -0.16008716  0.83092976  0.39009967  1
  N  N17  1  -0.00000001  0.34631947  0.37190673  1
  N  N18  1  -0.33991286  0.66907027  0.89009971  1
  N  N19  1  -0.66008717  0.66907025  0.89009963  1
  N  N20  1  -0.66008721  0.33092982  0.39009967  1
  N  N21  1  -0.33991290  0.33092973  0.39009967  1
  N  N22  1  -0.50000000  0.15368055  0.87190671  1
  N  N23  1  -0.50000002  0.84631949  0.37190672  1
