# generated using pymatgen
data_TaZn2N3
_symmetry_space_group_name_H-M   'P 1'
_cell_length_a   5.46369564
_cell_length_b   5.80023582
_cell_length_c   9.93182504
_cell_angle_alpha   90.00000898
_cell_angle_beta   89.99998200
_cell_angle_gamma   89.99999757
_symmetry_Int_Tables_number   1
_chemical_formula_structural   TaZn2N3
_chemical_formula_sum   'Ta4 Zn8 N12'
_cell_volume   314.74671756
_cell_formula_units_Z   4
loop_
 _symmetry_equiv_pos_site_id
 _symmetry_equiv_pos_as_xyz
  1  'x, y, z'
loop_
 _atom_site_type_symbol
 _atom_site_label
 _atom_site_symmetry_multiplicity
 _atom_site_fract_x
 _atom_site_fract_y
 _atom_site_fract_z
 _atom_site_occupancy
  Ta  Ta0  1  0.00614026  0.32942341  1.00000003  1
  Ta  Ta1  1  0.50614024  0.67057663  1.00000005  1
  Ta  Ta2  1  0.00614023  0.82942341  0.49999993  1
  Ta  Ta3  1  0.50614023  0.17057662  0.49999994  1
  Zn  Zn4  1  0.01653992  0.83825829  0.82746496  1
  Zn  Zn5  1  0.01653992  0.83825835  0.17253496  1
  Zn  Zn6  1  0.51653995  0.16174161  0.82746493  1
  Zn  Zn7  1  0.51653989  0.16174182  0.17253493  1
  Zn  Zn8  1  0.01654003  0.33825843  0.67253506  1
  Zn  Zn9  1  0.01653980  0.33825821  0.32746507  1
  Zn  Zn10  1  0.51654000  0.66174172  0.67253503  1
  Zn  Zn11  1  0.51653983  0.66174171  0.32746503  1
  N  N12  1  0.89236113  0.16908860  0.16008514  1
  N  N13  1  0.89236115  0.16908848  0.83991477  1
  N  N14  1  0.87415381  0.65369074  0.00000003  1
  N  N15  1  0.39236112  0.83091153  0.83991481  1
  N  N16  1  0.39236115  0.83091147  0.16008518  1
  N  N17  1  0.37415381  0.34630931  0.00000004  1
  N  N18  1  0.89236113  0.66908858  0.33991483  1
  N  N19  1  0.89236112  0.66908850  0.66008520  1
  N  N20  1  0.39236115  0.33091158  0.66008524  1
  N  N21  1  0.39236111  0.33091142  0.33991487  1
  N  N22  1  0.87415378  0.15369073  0.49999997  1
  N  N23  1  0.37415379  0.84630931  0.49999998  1
