# generated using pymatgen
data_TaZn2N3
_symmetry_space_group_name_H-M   'P 1'
_cell_length_a   9.98526831
_cell_length_b   5.86514748
_cell_length_c   5.53434849
_cell_angle_alpha   90.00415269
_cell_angle_beta   89.68910855
_cell_angle_gamma   89.84302079
_symmetry_Int_Tables_number   1
_chemical_formula_structural   TaZn2N3
_chemical_formula_sum   'Ta4 Zn8 N12'
_cell_volume   324.11352440
_cell_formula_units_Z   4
loop_
 _symmetry_equiv_pos_site_id
 _symmetry_equiv_pos_as_xyz
  1  'x, y, z'
loop_
 _atom_site_type_symbol
 _atom_site_label
 _atom_site_symmetry_multiplicity
 _atom_site_fract_x
 _atom_site_fract_y
 _atom_site_fract_z
 _atom_site_occupancy
  Ta  Ta0  1  -0.00016433  0.33473141  0.87932250  1
  Ta  Ta1  1  -0.00280339  0.67286528  0.38261102  1
  Ta  Ta2  1  -0.50018677  0.82887456  0.02766088  1
  Ta  Ta3  1  -0.49997553  0.16862747  0.52842597  1
  Zn  Zn4  1  -0.81835119  0.84624701  0.03699566  1
  Zn  Zn5  1  -0.17093762  0.83309033  0.91447935  1
  Zn  Zn6  1  -0.81744235  0.15534200  0.53462557  1
  Zn  Zn7  1  -0.17856578  0.16547117  0.50993183  1
  Zn  Zn8  1  -0.67244345  0.33992313  0.04351000  1
  Zn  Zn9  1  -0.32917036  0.33645048  0.03778020  1
  Zn  Zn10  1  -0.67374449  0.65987005  0.54462833  1
  Zn  Zn11  1  -0.33476206  0.65905704  0.53019254  1
  N  N12  1  -0.16274754  0.16830160  0.93621367  1
  N  N13  1  -0.83478282  0.16583905  0.92717880  1
  N  N14  1  -0.00464776  0.65058999  0.01879014  1
  N  N15  1  -0.83529982  0.83562891  0.42653805  1
  N  N16  1  -0.16021130  0.83158835  0.49468653  1
  N  N17  1  -0.99896845  0.35565535  0.51383920  1
  N  N18  1  -0.34550127  0.66064145  0.91242524  1
  N  N19  1  -0.65887652  0.66611476  0.91634245  1
  N  N20  1  -0.65726203  0.33399491  0.41609298  1
  N  N21  1  -0.34308943  0.33329723  0.41096899  1
  N  N22  1  -0.49973123  0.14805126  0.89190371  1
  N  N23  1  -0.50033450  0.84974732  0.39246400  1
