# generated using pymatgen
data_TaZn2N3
_symmetry_space_group_name_H-M   'P 1'
_cell_length_a   5.50282062
_cell_length_b   5.85213976
_cell_length_c   10.01392822
_cell_angle_alpha   89.99995605
_cell_angle_beta   90.00012673
_cell_angle_gamma   89.28505509
_symmetry_Int_Tables_number   1
_chemical_formula_structural   TaZn2N3
_chemical_formula_sum   'Ta4 Zn8 N12'
_cell_volume   322.45618248
_cell_formula_units_Z   4
loop_
 _symmetry_equiv_pos_site_id
 _symmetry_equiv_pos_as_xyz
  1  'x, y, z'
loop_
 _atom_site_type_symbol
 _atom_site_label
 _atom_site_symmetry_multiplicity
 _atom_site_fract_x
 _atom_site_fract_y
 _atom_site_fract_z
 _atom_site_occupancy
  Ta  Ta0  1  0.03146949  0.30435232  0.00000014  1
  Ta  Ta1  1  0.38372243  0.67874358  0.00000028  1
  Ta  Ta2  1  0.02623069  0.83032898  0.49999977  1
  Ta  Ta3  1  0.52377892  0.17094431  0.49999996  1
  Zn  Zn4  1  0.02375989  0.84282246  0.81654895  1
  Zn  Zn5  1  0.02375905  0.84282175  0.18345071  1
  Zn  Zn6  1  0.53889738  0.16460567  0.82487627  1
  Zn  Zn7  1  0.53889741  0.16460565  0.17512402  1
  Zn  Zn8  1  0.03753603  0.33786597  0.67059504  1
  Zn  Zn9  1  0.03753589  0.33786556  0.32940483  1
  Zn  Zn10  1  0.53591110  0.66097225  0.67098187  1
  Zn  Zn11  1  0.53591098  0.66097200  0.32901836  1
  N  N12  1  0.91093539  0.16959390  0.16518261  1
  N  N13  1  0.91093564  0.16959453  0.83481747  1
  N  N14  1  0.01019923  0.64636734  0.00000012  1
  N  N15  1  0.42323726  0.84008023  0.83286479  1
  N  N16  1  0.42323713  0.84008076  0.16713580  1
  N  N17  1  0.39789657  0.33192424  0.00000025  1
  N  N18  1  0.91121757  0.66714469  0.34282942  1
  N  N19  1  0.91121781  0.66714534  0.65717018  1
  N  N20  1  0.41217579  0.33450854  0.65823555  1
  N  N21  1  0.41217552  0.33450863  0.34176403  1
  N  N22  1  0.89036899  0.15143352  0.49999975  1
  N  N23  1  0.39076661  0.85071792  0.49999982  1
