# generated using pymatgen
data_TaZn2N3
_symmetry_space_group_name_H-M   'P 1'
_cell_length_a   9.96021910
_cell_length_b   5.83807040
_cell_length_c   5.48749017
_cell_angle_alpha   89.46333124
_cell_angle_beta   90.00008152
_cell_angle_gamma   90.00004924
_symmetry_Int_Tables_number   1
_chemical_formula_structural   TaZn2N3
_chemical_formula_sum   'Ta4 Zn8 N12'
_cell_volume   319.07510757
_cell_formula_units_Z   4
loop_
 _symmetry_equiv_pos_site_id
 _symmetry_equiv_pos_as_xyz
  1  'x, y, z'
loop_
 _atom_site_type_symbol
 _atom_site_label
 _atom_site_symmetry_multiplicity
 _atom_site_fract_x
 _atom_site_fract_y
 _atom_site_fract_z
 _atom_site_occupancy
  Ta  Ta0  1  -0.00000033  -0.31833035  -0.02910458  1
  Ta  Ta1  1  -0.00000045  -0.66886316  -0.49409632  1
  Ta  Ta2  1  0.50000015  -0.83141950  -0.02406070  1
  Ta  Ta3  1  0.50000029  -0.17156789  -0.52307544  1
  Zn  Zn4  1  0.82564524  -0.83729246  -0.02359466  1
  Zn  Zn5  1  0.17435496  -0.83729272  -0.02359482  1
  Zn  Zn6  1  0.82486985  -0.16421677  -0.53887056  1
  Zn  Zn7  1  0.17513038  -0.16421661  -0.53887051  1
  Zn  Zn8  1  0.67157185  -0.33938028  -0.03464241  1
  Zn  Zn9  1  0.32842799  -0.33938037  -0.03464244  1
  Zn  Zn10  1  0.66989898  -0.66162019  -0.53455766  1
  Zn  Zn11  1  0.33010064  -0.66162005  -0.53455772  1
  N  N12  1  0.16319309  -0.16931893  -0.91139663  1
  N  N13  1  0.83680747  -0.16931934  -0.91139695  1
  N  N14  1  0.00000022  -0.64886240  -0.93263714  1
  N  N15  1  0.83750712  -0.83548113  -0.41739613  1
  N  N16  1  0.16249355  -0.83548188  -0.41739556  1
  N  N17  1  0.00000020  -0.33477883  -0.39718822  1
  N  N18  1  0.34176327  -0.66943477  -0.91000872  1
  N  N19  1  0.65823633  -0.66943520  -0.91000900  1
  N  N20  1  0.65886357  -0.33443526  -0.41026643  1
  N  N21  1  0.34113595  -0.33443574  -0.41026609  1
  N  N22  1  0.49999984  -0.15370784  -0.88963366  1
  N  N23  1  0.49999983  -0.85010851  -0.39051039  1
