# generated using pymatgen
data_TaZn2N3
_symmetry_space_group_name_H-M   'P 1'
_cell_length_a   5.47894914
_cell_length_b   5.80400673
_cell_length_c   9.92542137
_cell_angle_alpha   90.00001277
_cell_angle_beta   89.99895481
_cell_angle_gamma   89.63334028
_symmetry_Int_Tables_number   1
_chemical_formula_structural   TaZn2N3
_chemical_formula_sum   'Ta4 Zn8 N12'
_cell_volume   315.62052421
_cell_formula_units_Z   4
loop_
 _symmetry_equiv_pos_site_id
 _symmetry_equiv_pos_as_xyz
  1  'x, y, z'
loop_
 _atom_site_type_symbol
 _atom_site_label
 _atom_site_symmetry_multiplicity
 _atom_site_fract_x
 _atom_site_fract_y
 _atom_site_fract_z
 _atom_site_occupancy
  Ta  Ta0  1  0.02671256  0.32764460  0.99999963  1
  Ta  Ta1  1  0.52571375  0.66927907  0.99999965  1
  Ta  Ta2  1  0.02451991  0.83008088  0.49999958  1
  Ta  Ta3  1  0.52392140  0.17086962  0.49999956  1
  Zn  Zn4  1  0.03486019  0.83717436  0.82740356  1
  Zn  Zn5  1  0.03485917  0.83717446  0.17259577  1
  Zn  Zn6  1  0.53634584  0.16142691  0.82701212  1
  Zn  Zn7  1  0.53634462  0.16142714  0.17298706  1
  Zn  Zn8  1  0.03490006  0.33852797  0.67222887  1
  Zn  Zn9  1  0.03490103  0.33852795  0.32777048  1
  Zn  Zn10  1  0.53493221  0.66221417  0.67202235  1
  Zn  Zn11  1  0.53493333  0.66221391  0.32797680  1
  N  N12  1  0.91168790  0.16906123  0.16039338  1
  N  N13  1  0.91168805  0.16906111  0.83960752  1
  N  N14  1  0.89380604  0.65184305  0.00000041  1
  N  N15  1  0.41175851  0.83104423  0.84012961  1
  N  N16  1  0.41175846  0.83104421  0.15987139  1
  N  N17  1  0.39393260  0.34567116  0.00000045  1
  N  N18  1  0.91034935  0.66966401  0.34023610  1
  N  N19  1  0.91034904  0.66966391  0.65976465  1
  N  N20  1  0.41037980  0.33226106  0.65994245  1
  N  N21  1  0.41037997  0.33226103  0.34005840  1
  N  N22  1  0.89120060  0.15424591  0.50000009  1
  N  N23  1  0.39153833  0.84761822  0.50000011  1
