# generated using pymatgen
data_TaZn2N3
_symmetry_space_group_name_H-M   'P 1'
_cell_length_a   9.97102462
_cell_length_b   5.86142160
_cell_length_c   5.53939702
_cell_angle_alpha   89.96106195
_cell_angle_beta   89.46218304
_cell_angle_gamma   89.97197494
_symmetry_Int_Tables_number   1
_chemical_formula_structural   TaZn2N3
_chemical_formula_sum   'Ta4 Zn8 N12'
_cell_volume   323.73224434
_cell_formula_units_Z   4
loop_
 _symmetry_equiv_pos_site_id
 _symmetry_equiv_pos_as_xyz
  1  'x, y, z'
loop_
 _atom_site_type_symbol
 _atom_site_label
 _atom_site_symmetry_multiplicity
 _atom_site_fract_x
 _atom_site_fract_y
 _atom_site_fract_z
 _atom_site_occupancy
  Ta  Ta0  1  -0.00150184  0.33349165  0.88495763  1
  Ta  Ta1  1  -0.00339128  0.67206439  0.38518027  1
  Ta  Ta2  1  -0.50007635  0.82895745  0.02731257  1
  Ta  Ta3  1  -0.49990879  0.16857011  0.52813546  1
  Zn  Zn4  1  -0.81886016  0.84586987  0.03857737  1
  Zn  Zn5  1  -0.16880026  0.83628240  0.89813636  1
  Zn  Zn6  1  -0.81792009  0.15434942  0.53878970  1
  Zn  Zn7  1  -0.17370450  0.16551272  0.46244188  1
  Zn  Zn8  1  -0.67270301  0.33976779  0.04478000  1
  Zn  Zn9  1  -0.33049357  0.33778625  0.03254846  1
  Zn  Zn10  1  -0.67383770  0.65881460  0.54607368  1
  Zn  Zn11  1  -0.33612871  0.65942543  0.52898366  1
  N  N12  1  -0.15972918  0.16630768  0.96881089  1
  N  N13  1  -0.83497251  0.16569471  0.92887184  1
  N  N14  1  -0.00562958  0.65054425  0.02284200  1
  N  N15  1  -0.83566735  0.83423197  0.42888382  1
  N  N16  1  -0.15938782  0.83379803  0.50529256  1
  N  N17  1  -0.00132791  0.35479336  0.51866844  1
  N  N18  1  -0.34558469  0.66158632  0.91072305  1
  N  N19  1  -0.65924809  0.66607586  0.91719265  1
  N  N20  1  -0.65777807  0.33311075  0.41708689  1
  N  N21  1  -0.34365998  0.33490232  0.40986119  1
  N  N22  1  -0.49955579  0.14836684  0.89137047  1
  N  N23  1  -0.50013276  0.84969592  0.39208680  1
