# generated using pymatgen
data_TaZn2N3
_symmetry_space_group_name_H-M   'P 1'
_cell_length_a   10.02090546
_cell_length_b   5.87152588
_cell_length_c   5.51255530
_cell_angle_alpha   89.70582075
_cell_angle_beta   90.00002096
_cell_angle_gamma   89.99999246
_symmetry_Int_Tables_number   1
_chemical_formula_structural   TaZn2N3
_chemical_formula_sum   'Ta4 Zn8 N12'
_cell_volume   324.34348505
_cell_formula_units_Z   4
loop_
 _symmetry_equiv_pos_site_id
 _symmetry_equiv_pos_as_xyz
  1  'x, y, z'
loop_
 _atom_site_type_symbol
 _atom_site_label
 _atom_site_symmetry_multiplicity
 _atom_site_fract_x
 _atom_site_fract_y
 _atom_site_fract_z
 _atom_site_occupancy
  Ta  Ta0  1  -0.00000004  -0.32503528  -0.95393607  1
  Ta  Ta1  1  -0.00000007  -0.67617223  -0.37395363  1
  Ta  Ta2  1  0.50000004  -0.82881653  -0.02983953  1
  Ta  Ta3  1  0.50000004  -0.16837558  -0.52838317  1
  Zn  Zn4  1  0.81462579  -0.84362026  -0.02938031  1
  Zn  Zn5  1  0.18537418  -0.84361993  -0.02938039  1
  Zn  Zn6  1  0.82621736  -0.16295986  -0.52528363  1
  Zn  Zn7  1  0.17378253  -0.16295992  -0.52528346  1
  Zn  Zn8  1  0.66905164  -0.33788303  -0.04229304  1
  Zn  Zn9  1  0.33094851  -0.33788265  -0.04229311  1
  Zn  Zn10  1  0.67179138  -0.65902029  -0.54043358  1
  Zn  Zn11  1  0.32820861  -0.65902035  -0.54043374  1
  N  N12  1  0.16656916  -0.16587032  -0.92126021  1
  N  N13  1  0.83343076  -0.16587058  -0.92126009  1
  N  N14  1  0.99999994  -0.66022752  -0.00450776  1
  N  N15  1  0.83232720  -0.83601569  -0.42601681  1
  N  N16  1  0.16767274  -0.83601565  -0.42601681  1
  N  N17  1  0.99999996  -0.34011033  -0.43101340  1
  N  N18  1  0.34339546  -0.66418356  -0.91508892  1
  N  N19  1  0.65660462  -0.66418370  -0.91508878  1
  N  N20  1  0.65767940  -0.33214189  -0.41621304  1
  N  N21  1  0.34232067  -0.33214186  -0.41621316  1
  N  N22  1  0.50000005  -0.14858520  -0.89421853  1
  N  N23  1  0.50000004  -0.84928796  -0.39398158  1
