# generated using pymatgen
data_TaZn2N3
_symmetry_space_group_name_H-M   'P 1'
_cell_length_a   10.01620499
_cell_length_b   5.86781263
_cell_length_c   5.50585403
_cell_angle_alpha   89.65440990
_cell_angle_beta   89.99975302
_cell_angle_gamma   89.99999387
_symmetry_Int_Tables_number   1
_chemical_formula_structural   TaZn2N3
_chemical_formula_sum   'Ta4 Zn8 N12'
_cell_volume   323.59085144
_cell_formula_units_Z   4
loop_
 _symmetry_equiv_pos_site_id
 _symmetry_equiv_pos_as_xyz
  1  'x, y, z'
loop_
 _atom_site_type_symbol
 _atom_site_label
 _atom_site_symmetry_multiplicity
 _atom_site_fract_x
 _atom_site_fract_y
 _atom_site_fract_z
 _atom_site_occupancy
  Ta  Ta0  1  0.00000015  -0.31353140  -0.01432335  1
  Ta  Ta1  1  0.00000012  -0.68013353  -0.37725065  1
  Ta  Ta2  1  0.50000001  -0.82932023  -0.02956198  1
  Ta  Ta3  1  0.50000004  -0.16903741  -0.52757373  1
  Zn  Zn4  1  0.81510189  -0.84475785  -0.02632273  1
  Zn  Zn5  1  0.18489811  -0.84475747  -0.02632299  1
  Zn  Zn6  1  0.82615367  -0.16384559  -0.53167171  1
  Zn  Zn7  1  0.17384654  -0.16384554  -0.53167214  1
  Zn  Zn8  1  0.66968170  -0.33747988  -0.04087068  1
  Zn  Zn9  1  0.33031829  -0.33747965  -0.04087077  1
  Zn  Zn10  1  0.67138211  -0.65896200  -0.53978906  1
  Zn  Zn11  1  0.32861785  -0.65896180  -0.53978936  1
  N  N12  1  0.16566363  -0.16909435  -0.91203929  1
  N  N13  1  0.83433621  -0.16909468  -0.91203921  1
  N  N14  1  0.99999994  -0.65547440  -0.00408118  1
  N  N15  1  0.83214044  -0.83761560  -0.42456205  1
  N  N16  1  0.16785975  -0.83761592  -0.42456204  1
  N  N17  1  0.00000009  -0.33525039  -0.39045030  1
  N  N18  1  0.34322484  -0.66514010  -0.91462764  1
  N  N19  1  0.65677492  -0.66514039  -0.91462752  1
  N  N20  1  0.65788605  -0.33247302  -0.41535001  1
  N  N21  1  0.34211382  -0.33247315  -0.41535003  1
  N  N22  1  0.49999990  -0.14919618  -0.89393717  1
  N  N23  1  0.49999993  -0.84931962  -0.39412716  1
