# generated using pymatgen
data_TaZn2N3
_symmetry_space_group_name_H-M   'P 1'
_cell_length_a   9.91899386
_cell_length_b   5.82485342
_cell_length_c   5.57976830
_cell_angle_alpha   90.00016743
_cell_angle_beta   89.99972387
_cell_angle_gamma   89.99999170
_symmetry_Int_Tables_number   1
_chemical_formula_structural   TaZn2N3
_chemical_formula_sum   'Ta4 Zn8 N12'
_cell_volume   322.38051730
_cell_formula_units_Z   4
loop_
 _symmetry_equiv_pos_site_id
 _symmetry_equiv_pos_as_xyz
  1  'x, y, z'
loop_
 _atom_site_type_symbol
 _atom_site_label
 _atom_site_symmetry_multiplicity
 _atom_site_fract_x
 _atom_site_fract_y
 _atom_site_fract_z
 _atom_site_occupancy
  Ta  Ta0  1  0.99999848  -0.33159640  -0.93644770  1
  Ta  Ta1  1  0.99999851  -0.66841036  -0.43644719  1
  Ta  Ta2  1  0.50000161  -0.83158521  -0.05794265  1
  Ta  Ta3  1  0.50000147  -0.16840835  -0.55794187  1
  Zn  Zn4  1  0.83419526  -0.84350673  -0.93054949  1
  Zn  Zn5  1  0.16580477  -0.84350668  -0.93055037  1
  Zn  Zn6  1  0.83419682  -0.15649944  -0.43055042  1
  Zn  Zn7  1  0.16580283  -0.15649920  -0.43055071  1
  Zn  Zn8  1  0.66580369  -0.34350135  -0.06382939  1
  Zn  Zn9  1  0.33419656  -0.34350189  -0.06382963  1
  Zn  Zn10  1  0.66580450  -0.65649266  -0.56383047  1
  Zn  Zn11  1  0.33419559  -0.65649273  -0.56383027  1
  N  N12  1  0.15678846  -0.16704161  -0.05137952  1
  N  N13  1  0.84321304  -0.16704284  -0.05137911  1
  N  N14  1  0.00000035  -0.65204648  -0.07338901  1
  N  N15  1  0.84321158  -0.83296246  -0.55137843  1
  N  N16  1  0.15678979  -0.83296347  -0.55137941  1
  N  N17  1  0.00000006  -0.34796202  -0.57338934  1
  N  N18  1  0.34321185  -0.66703968  -0.94300823  1
  N  N19  1  0.65678681  -0.66704065  -0.94300890  1
  N  N20  1  0.65678548  -0.33295355  -0.44300922  1
  N  N21  1  0.34321293  -0.33295499  -0.44300883  1
  N  N22  1  0.49999983  -0.15203819  -0.92100496  1
  N  N23  1  0.49999971  -0.84795320  -0.42100469  1
