# generated using pymatgen
data_TaZn2N3
_symmetry_space_group_name_H-M   'P 1'
_cell_length_a   9.93328505
_cell_length_b   5.85200401
_cell_length_c   5.55958260
_cell_angle_alpha   89.97700767
_cell_angle_beta   89.48742469
_cell_angle_gamma   89.89916657
_symmetry_Int_Tables_number   1
_chemical_formula_structural   TaZn2N3
_chemical_formula_sum   'Ta4 Zn8 N12'
_cell_volume   323.16298926
_cell_formula_units_Z   4
loop_
 _symmetry_equiv_pos_site_id
 _symmetry_equiv_pos_as_xyz
  1  'x, y, z'
loop_
 _atom_site_type_symbol
 _atom_site_label
 _atom_site_symmetry_multiplicity
 _atom_site_fract_x
 _atom_site_fract_y
 _atom_site_fract_z
 _atom_site_occupancy
  Ta  Ta0  1  -0.00046736  0.32679696  0.90147456  1
  Ta  Ta1  1  -0.00318594  0.66459721  0.39870781  1
  Ta  Ta2  1  -0.49990103  0.83255702  0.02868139  1
  Ta  Ta3  1  -0.49929379  0.17062387  0.52800222  1
  Zn  Zn4  1  -0.82605634  0.83480623  0.00743563  1
  Zn  Zn5  1  -0.16687219  0.84232451  0.89488501  1
  Zn  Zn6  1  -0.83200535  0.16492611  0.41454924  1
  Zn  Zn7  1  -0.16622942  0.15610477  0.39790196  1
  Zn  Zn8  1  -0.66453773  0.34358632  0.03603596  1
  Zn  Zn9  1  -0.33313273  0.34320264  0.03175854  1
  Zn  Zn10  1  -0.67119863  0.66106566  0.54258894  1
  Zn  Zn11  1  -0.33465778  0.65853234  0.53014981  1
  N  N12  1  -0.15726815  0.16301240  0.01791947  1
  N  N13  1  -0.84127993  0.17196153  0.01374814  1
  N  N14  1  -0.00613598  0.64654403  0.03314698  1
  N  N15  1  -0.83971239  0.82810162  0.45470329  1
  N  N16  1  -0.15759141  0.83521822  0.51777801  1
  N  N17  1  -0.00027331  0.34549000  0.53790614  1
  N  N18  1  -0.34489084  0.66585924  0.91174590  1
  N  N19  1  -0.65870542  0.66913745  0.91535699  1
  N  N20  1  -0.65554786  0.33722202  0.41715053  1
  N  N21  1  -0.34273134  0.33531258  0.41211717  1
  N  N22  1  -0.49885158  0.15208175  0.89243030  1
  N  N23  1  -0.49947349  0.85093561  0.39152658  1
