# generated using pymatgen
data_TaZn2N3
_symmetry_space_group_name_H-M   'P 1'
_cell_length_a   9.93187339
_cell_length_b   5.84972742
_cell_length_c   5.56126414
_cell_angle_alpha   89.99218069
_cell_angle_beta   89.52823281
_cell_angle_gamma   89.93528606
_symmetry_Int_Tables_number   1
_chemical_formula_structural   TaZn2N3
_chemical_formula_sum   'Ta4 Zn8 N12'
_cell_volume   323.09134549
_cell_formula_units_Z   4
loop_
 _symmetry_equiv_pos_site_id
 _symmetry_equiv_pos_as_xyz
  1  'x, y, z'
loop_
 _atom_site_type_symbol
 _atom_site_label
 _atom_site_symmetry_multiplicity
 _atom_site_fract_x
 _atom_site_fract_y
 _atom_site_fract_z
 _atom_site_occupancy
  Ta  Ta0  1  -0.00030840  0.32748889  0.90205545  1
  Ta  Ta1  1  -0.00267595  0.66539256  0.40045780  1
  Ta  Ta2  1  -0.49985252  0.83244160  0.02876731  1
  Ta  Ta3  1  -0.49938109  0.17041160  0.52808696  1
  Zn  Zn4  1  -0.82756707  0.83551991  0.98933117  1
  Zn  Zn5  1  -0.16672783  0.84262412  0.89532724  1
  Zn  Zn6  1  -0.83227142  0.16337033  0.41279808  1
  Zn  Zn7  1  -0.16613343  0.15632382  0.39846038  1
  Zn  Zn8  1  -0.66446997  0.34332742  0.03615541  1
  Zn  Zn9  1  -0.33318404  0.34330080  0.03207818  1
  Zn  Zn10  1  -0.67060181  0.66047023  0.54098939  1
  Zn  Zn11  1  -0.33458023  0.65841191  0.53037106  1
  N  N12  1  -0.15711503  0.16373579  0.01829903  1
  N  N13  1  -0.84146961  0.17129360  0.01519823  1
  N  N14  1  -0.00498208  0.64752070  0.03439049  1
  N  N15  1  -0.84076816  0.82866930  0.46742919  1
  N  N16  1  -0.15774815  0.83522574  0.51825094  1
  N  N17  1  -0.00023718  0.34568687  0.53875585  1
  N  N18  1  -0.34466720  0.66602343  0.91211998  1
  N  N19  1  -0.65831406  0.66842004  0.91530472  1
  N  N20  1  -0.65564702  0.33662821  0.41677055  1
  N  N21  1  -0.34278787  0.33509523  0.41224101  1
  N  N22  1  -0.49894699  0.15199051  0.89245716  1
  N  N23  1  -0.49956291  0.85062748  0.39160497  1
