# generated using pymatgen
data_TaZn2N3
_symmetry_space_group_name_H-M   'P 1'
_cell_length_a   9.96959299
_cell_length_b   5.84544027
_cell_length_c   5.49253983
_cell_angle_alpha   89.46076981
_cell_angle_beta   90.00000996
_cell_angle_gamma   89.99998846
_symmetry_Int_Tables_number   1
_chemical_formula_structural   TaZn2N3
_chemical_formula_sum   'Ta4 Zn8 N12'
_cell_volume   320.07270255
_cell_formula_units_Z   4
loop_
 _symmetry_equiv_pos_site_id
 _symmetry_equiv_pos_as_xyz
  1  'x, y, z'
loop_
 _atom_site_type_symbol
 _atom_site_label
 _atom_site_symmetry_multiplicity
 _atom_site_fract_x
 _atom_site_fract_y
 _atom_site_fract_z
 _atom_site_occupancy
  Ta  Ta0  1  -0.00000003  0.31449729  0.03102980  1
  Ta  Ta1  1  -0.00000003  0.67034613  0.45842614  1
  Ta  Ta2  1  -0.49999996  0.83163834  0.02421503  1
  Ta  Ta3  1  -0.49999996  0.17168280  0.52300346  1
  Zn  Zn4  1  -0.82483852  0.83793759  0.02142088  1
  Zn  Zn5  1  -0.17516152  0.83793767  0.02142093  1
  Zn  Zn6  1  -0.82469992  0.16462041  0.53934902  1
  Zn  Zn7  1  -0.17530012  0.16462055  0.53934901  1
  Zn  Zn8  1  -0.67149147  0.33935800  0.03477108  1
  Zn  Zn9  1  -0.32850857  0.33935795  0.03477106  1
  Zn  Zn10  1  -0.66962454  0.66146495  0.53460530  1
  Zn  Zn11  1  -0.33037537  0.66146491  0.53460527  1
  N  N12  1  -0.16379672  0.16930903  0.91136164  1
  N  N13  1  -0.83620332  0.16930904  0.91136169  1
  N  N14  1  -1.00000003  0.64851788  0.96125703  1
  N  N15  1  -0.83565713  0.83776701  0.42056574  1
  N  N16  1  -0.16434293  0.83776715  0.42056570  1
  N  N17  1  -0.00000003  0.33010158  0.39881311  1
  N  N18  1  -0.34182092  0.66947589  0.91015607  1
  N  N19  1  -0.65817898  0.66947593  0.91015613  1
  N  N20  1  -0.65869753  0.33470345  0.41040620  1
  N  N21  1  -0.34130247  0.33470350  0.41040612  1
  N  N22  1  -0.49999997  0.15346562  0.88952382  1
  N  N23  1  -0.49999996  0.85047749  0.39023254  1
