# generated using pymatgen
data_TaZn2N3
_symmetry_space_group_name_H-M   'P 1'
_cell_length_a   9.95170856
_cell_length_b   5.83126164
_cell_length_c   5.48411832
_cell_angle_alpha   89.47111739
_cell_angle_beta   90.00016700
_cell_angle_gamma   89.99995422
_symmetry_Int_Tables_number   1
_chemical_formula_structural   TaZn2N3
_chemical_formula_sum   'Ta4 Zn8 N12'
_cell_volume   318.23540162
_cell_formula_units_Z   4
loop_
 _symmetry_equiv_pos_site_id
 _symmetry_equiv_pos_as_xyz
  1  'x, y, z'
loop_
 _atom_site_type_symbol
 _atom_site_label
 _atom_site_symmetry_multiplicity
 _atom_site_fract_x
 _atom_site_fract_y
 _atom_site_fract_z
 _atom_site_occupancy
  Ta  Ta0  1  -0.99999903  0.32096239  0.02846039  1
  Ta  Ta1  1  -0.99999865  0.66832865  0.51331040  1
  Ta  Ta2  1  -0.50000088  0.83123535  0.02405486  1
  Ta  Ta3  1  -0.50000088  0.17147119  0.52312083  1
  Zn  Zn4  1  -0.82616438  0.83687655  0.02591324  1
  Zn  Zn5  1  -0.17383547  0.83687671  0.02591299  1
  Zn  Zn6  1  -0.82515065  0.16363417  0.53827860  1
  Zn  Zn7  1  -0.17484912  0.16363430  0.53827851  1
  Zn  Zn8  1  -0.67161571  0.33934702  0.03463505  1
  Zn  Zn9  1  -0.32838444  0.33934693  0.03463505  1
  Zn  Zn10  1  -0.67029045  0.66189446  0.53444894  1
  Zn  Zn11  1  -0.32970954  0.66189438  0.53444893  1
  N  N12  1  -0.16252693  0.16935915  0.91165226  1
  N  N13  1  -0.83747382  0.16935980  0.91165278  1
  N  N14  1  -0.00000009  0.64904138  0.91420834  1
  N  N15  1  -0.83887881  0.83357936  0.41574908  1
  N  N16  1  -0.16112232  0.83358046  0.41574863  1
  N  N17  1  -0.00000017  0.33876640  0.39641711  1
  N  N18  1  -0.34159014  0.66939887  0.90999262  1
  N  N19  1  -0.65840928  0.66939945  0.90999302  1
  N  N20  1  -0.65902369  0.33416638  0.41018107  1
  N  N21  1  -0.34097571  0.33416711  0.41018056  1
  N  N22  1  -0.49999992  0.15391916  0.88982369  1
  N  N23  1  -0.49999989  0.84976054  0.39067582  1
