# generated using pymatgen
data_TaZn2N3
_symmetry_space_group_name_H-M   'P 1'
_cell_length_a   9.97729534
_cell_length_b   5.85055204
_cell_length_c   5.49759234
_cell_angle_alpha   89.45511532
_cell_angle_beta   89.99991629
_cell_angle_gamma   89.99998146
_symmetry_Int_Tables_number   1
_chemical_formula_structural   TaZn2N3
_chemical_formula_sum   'Ta4 Zn8 N12'
_cell_volume   320.89471753
_cell_formula_units_Z   4
loop_
 _symmetry_equiv_pos_site_id
 _symmetry_equiv_pos_as_xyz
  1  'x, y, z'
loop_
 _atom_site_type_symbol
 _atom_site_label
 _atom_site_symmetry_multiplicity
 _atom_site_fract_x
 _atom_site_fract_y
 _atom_site_fract_z
 _atom_site_occupancy
  Ta  Ta0  1  0.00000008  -0.30957328  -0.03305740  1
  Ta  Ta1  1  -0.00000001  -0.67286398  -0.41807767  1
  Ta  Ta2  1  0.49999999  -0.83178493  -0.02450651  1
  Ta  Ta3  1  0.49999999  -0.17173925  -0.52291334  1
  Zn  Zn4  1  0.82358141  -0.83869561  -0.02003436  1
  Zn  Zn5  1  0.17641862  -0.83869566  -0.02003428  1
  Zn  Zn6  1  0.82456860  -0.16460905  -0.53959543  1
  Zn  Zn7  1  0.17543143  -0.16460921  -0.53959548  1
  Zn  Zn8  1  0.67130943  -0.33933530  -0.03507755  1
  Zn  Zn9  1  0.32869070  -0.33933521  -0.03507747  1
  Zn  Zn10  1  0.66964667  -0.66152580  -0.53465618  1
  Zn  Zn11  1  0.33035330  -0.66152570  -0.53465610  1
  N  N12  1  0.16421101  -0.16928045  -0.91151646  1
  N  N13  1  0.83578904  -0.16928060  -0.91151666  1
  N  N14  1  1.00000000  -0.64809905  -0.99082436  1
  N  N15  1  0.83429662  -0.83899643  -0.42433952  1
  N  N16  1  0.16570369  -0.83899681  -0.42433947  1
  N  N17  1  1.00000004  -0.32843248  -0.40044007  1
  N  N18  1  0.34181386  -0.66937929  -0.91049283  1
  N  N19  1  0.65818586  -0.66937939  -0.91049300  1
  N  N20  1  0.65858133  -0.33488687  -0.41057004  1
  N  N21  1  0.34141849  -0.33488704  -0.41056995  1
  N  N22  1  0.49999995  -0.15324606  -0.88948039  1
  N  N23  1  0.49999992  -0.85084271  -0.38990824  1
