# generated using pymatgen
data_TaZn2N3
_symmetry_space_group_name_H-M   'P 1'
_cell_length_a   9.98975456
_cell_length_b   5.85515063
_cell_length_c   5.50099565
_cell_angle_alpha   89.41487153
_cell_angle_beta   89.99963806
_cell_angle_gamma   89.99995693
_symmetry_Int_Tables_number   1
_chemical_formula_structural   TaZn2N3
_chemical_formula_sum   'Ta4 Zn8 N12'
_cell_volume   321.74480533
_cell_formula_units_Z   4
loop_
 _symmetry_equiv_pos_site_id
 _symmetry_equiv_pos_as_xyz
  1  'x, y, z'
loop_
 _atom_site_type_symbol
 _atom_site_label
 _atom_site_symmetry_multiplicity
 _atom_site_fract_x
 _atom_site_fract_y
 _atom_site_fract_z
 _atom_site_occupancy
  Ta  Ta0  1  -0.00000018  0.30462509  0.03353479  1
  Ta  Ta1  1  -0.00000011  0.67654497  0.39164901  1
  Ta  Ta2  1  -0.50000008  0.83162968  0.02487306  1
  Ta  Ta3  1  -0.50000010  0.17172586  0.52284345  1
  Zn  Zn4  1  -0.82032721  0.84036993  0.02037018  1
  Zn  Zn5  1  -0.17967270  0.84036972  0.02037024  1
  Zn  Zn6  1  -0.82458124  0.16446473  0.53944764  1
  Zn  Zn7  1  -0.17541907  0.16446501  0.53944810  1
  Zn  Zn8  1  -0.67087418  0.33909872  0.03592699  1
  Zn  Zn9  1  -0.32912601  0.33909860  0.03592674  1
  Zn  Zn10  1  -0.67014448  0.66158052  0.53480032  1
  Zn  Zn11  1  -0.32985579  0.66158041  0.53480003  1
  N  N12  1  -0.16480909  0.16893108  0.91160902  1
  N  N13  1  -0.83519053  0.16893122  0.91160908  1
  N  N14  1  -0.99999978  0.64624769  0.00997000  1
  N  N15  1  -0.83339223  0.83954271  0.42583180  1
  N  N16  1  -0.16660807  0.83954324  0.42583183  1
  N  N17  1  -0.99999999  0.33004610  0.40030082  1
  N  N18  1  -0.34216782  0.66852949  0.91079734  1
  N  N19  1  -0.65783165  0.66852955  0.91079742  1
  N  N20  1  -0.65844617  0.33505209  0.41098324  1
  N  N21  1  -0.34155365  0.33505219  0.41098314  1
  N  N22  1  -0.49999993  0.15273157  0.88944592  1
  N  N23  1  -0.49999995  0.85131000  0.38962256  1
