# generated using pymatgen
data_TaZn2N3
_symmetry_space_group_name_H-M   'P 1'
_cell_length_a   9.92420478
_cell_length_b   5.82869703
_cell_length_c   5.56967502
_cell_angle_alpha   89.99995134
_cell_angle_beta   89.99992370
_cell_angle_gamma   89.99999137
_symmetry_Int_Tables_number   1
_chemical_formula_structural   TaZn2N3
_chemical_formula_sum   'Ta4 Zn8 N12'
_cell_volume   322.17887054
_cell_formula_units_Z   4
loop_
 _symmetry_equiv_pos_site_id
 _symmetry_equiv_pos_as_xyz
  1  'x, y, z'
loop_
 _atom_site_type_symbol
 _atom_site_label
 _atom_site_symmetry_multiplicity
 _atom_site_fract_x
 _atom_site_fract_y
 _atom_site_fract_z
 _atom_site_occupancy
  Ta  Ta0  1  0.99999989  -0.33136585  -0.90894759  1
  Ta  Ta1  1  0.00000000  -0.66863491  -0.40894751  1
  Ta  Ta2  1  0.50000000  -0.83136552  -0.03007551  1
  Ta  Ta3  1  0.49999993  -0.16863537  -0.53007544  1
  Zn  Zn4  1  0.83410321  -0.84331163  -0.90324932  1
  Zn  Zn5  1  0.16589697  -0.84331063  -0.90324950  1
  Zn  Zn6  1  0.83410304  -0.15668936  -0.40324988  1
  Zn  Zn7  1  0.16589689  -0.15668989  -0.40324957  1
  Zn  Zn8  1  0.66589581  -0.34331125  -0.03577549  1
  Zn  Zn9  1  0.33410384  -0.34331067  -0.03577437  1
  Zn  Zn10  1  0.66589602  -0.65668963  -0.53577554  1
  Zn  Zn11  1  0.33410414  -0.65669016  -0.53577440  1
  N  N12  1  0.15681178  -0.16687057  -0.02350207  1
  N  N13  1  0.84318788  -0.16687133  -0.02350249  1
  N  N14  1  0.00000007  -0.65194998  -0.04541266  1
  N  N15  1  0.84318817  -0.83312950  -0.52350285  1
  N  N16  1  0.15681198  -0.83312979  -0.52350202  1
  N  N17  1  0.00000009  -0.34805068  -0.54541267  1
  N  N18  1  0.34318864  -0.66687001  -0.91551874  1
  N  N19  1  0.65681159  -0.66687061  -0.91551965  1
  N  N20  1  0.65681156  -0.33313049  -0.41551965  1
  N  N21  1  0.34318853  -0.33313085  -0.41551868  1
  N  N22  1  0.49999986  -0.15194984  -0.89361038  1
  N  N23  1  0.50000004  -0.84805118  -0.39361044  1
