# generated using pymatgen
data_TaZn2N3
_symmetry_space_group_name_H-M   'P 1'
_cell_length_a   9.93182504
_cell_length_b   5.80023582
_cell_length_c   5.46369564
_cell_angle_alpha   89.99999757
_cell_angle_beta   90.00001800
_cell_angle_gamma   89.99999102
_symmetry_Int_Tables_number   1
_chemical_formula_structural   TaZn2N3
_chemical_formula_sum   'Ta4 Zn8 N12'
_cell_volume   314.74671756
_cell_formula_units_Z   4
loop_
 _symmetry_equiv_pos_site_id
 _symmetry_equiv_pos_as_xyz
  1  'x, y, z'
loop_
 _atom_site_type_symbol
 _atom_site_label
 _atom_site_symmetry_multiplicity
 _atom_site_fract_x
 _atom_site_fract_y
 _atom_site_fract_z
 _atom_site_occupancy
  Ta  Ta0  1  -1.00000003  0.32942341  0.00614026  1
  Ta  Ta1  1  -1.00000005  0.67057663  0.50614024  1
  Ta  Ta2  1  -0.49999993  0.82942341  0.00614023  1
  Ta  Ta3  1  -0.49999994  0.17057662  0.50614023  1
  Zn  Zn4  1  -0.82746496  0.83825829  0.01653992  1
  Zn  Zn5  1  -0.17253496  0.83825835  0.01653992  1
  Zn  Zn6  1  -0.82746493  0.16174161  0.51653995  1
  Zn  Zn7  1  -0.17253493  0.16174182  0.51653989  1
  Zn  Zn8  1  -0.67253506  0.33825843  0.01654003  1
  Zn  Zn9  1  -0.32746507  0.33825821  0.01653980  1
  Zn  Zn10  1  -0.67253503  0.66174172  0.51654000  1
  Zn  Zn11  1  -0.32746503  0.66174171  0.51653983  1
  N  N12  1  -0.16008514  0.16908860  0.89236113  1
  N  N13  1  -0.83991477  0.16908848  0.89236115  1
  N  N14  1  -0.00000003  0.65369074  0.87415381  1
  N  N15  1  -0.83991481  0.83091153  0.39236112  1
  N  N16  1  -0.16008518  0.83091147  0.39236115  1
  N  N17  1  -0.00000004  0.34630931  0.37415381  1
  N  N18  1  -0.33991483  0.66908858  0.89236113  1
  N  N19  1  -0.66008520  0.66908850  0.89236112  1
  N  N20  1  -0.66008524  0.33091158  0.39236115  1
  N  N21  1  -0.33991487  0.33091142  0.39236111  1
  N  N22  1  -0.49999997  0.15369073  0.87415378  1
  N  N23  1  -0.49999998  0.84630931  0.37415379  1
