# generated using pymatgen
data_TaZn2N3
_symmetry_space_group_name_H-M   'P 1'
_cell_length_a   5.50099565
_cell_length_b   5.85515063
_cell_length_c   9.98975456
_cell_angle_alpha   90.00004307
_cell_angle_beta   90.00036194
_cell_angle_gamma   89.41487153
_symmetry_Int_Tables_number   1
_chemical_formula_structural   TaZn2N3
_chemical_formula_sum   'Ta4 Zn8 N12'
_cell_volume   321.74480533
_cell_formula_units_Z   4
loop_
 _symmetry_equiv_pos_site_id
 _symmetry_equiv_pos_as_xyz
  1  'x, y, z'
loop_
 _atom_site_type_symbol
 _atom_site_label
 _atom_site_symmetry_multiplicity
 _atom_site_fract_x
 _atom_site_fract_y
 _atom_site_fract_z
 _atom_site_occupancy
  Ta  Ta0  1  0.03353479  0.30462509  0.00000018  1
  Ta  Ta1  1  0.39164901  0.67654497  0.00000011  1
  Ta  Ta2  1  0.02487306  0.83162968  0.50000008  1
  Ta  Ta3  1  0.52284345  0.17172586  0.50000010  1
  Zn  Zn4  1  0.02037018  0.84036993  0.82032721  1
  Zn  Zn5  1  0.02037024  0.84036972  0.17967270  1
  Zn  Zn6  1  0.53944764  0.16446473  0.82458124  1
  Zn  Zn7  1  0.53944810  0.16446501  0.17541907  1
  Zn  Zn8  1  0.03592699  0.33909872  0.67087418  1
  Zn  Zn9  1  0.03592674  0.33909860  0.32912601  1
  Zn  Zn10  1  0.53480032  0.66158052  0.67014448  1
  Zn  Zn11  1  0.53480003  0.66158041  0.32985579  1
  N  N12  1  0.91160902  0.16893108  0.16480909  1
  N  N13  1  0.91160908  0.16893122  0.83519053  1
  N  N14  1  0.00997000  0.64624769  0.99999978  1
  N  N15  1  0.42583180  0.83954271  0.83339223  1
  N  N16  1  0.42583183  0.83954324  0.16660807  1
  N  N17  1  0.40030082  0.33004610  0.99999999  1
  N  N18  1  0.91079734  0.66852949  0.34216782  1
  N  N19  1  0.91079742  0.66852955  0.65783165  1
  N  N20  1  0.41098324  0.33505209  0.65844617  1
  N  N21  1  0.41098314  0.33505219  0.34155365  1
  N  N22  1  0.88944592  0.15273157  0.49999993  1
  N  N23  1  0.38962256  0.85131000  0.49999995  1
