# generated using pymatgen
data_TaZn2N3
_symmetry_space_group_name_H-M   'P 1'
_cell_length_a   5.52260932
_cell_length_b   5.85334492
_cell_length_c   10.00852255
_cell_angle_alpha   89.99678142
_cell_angle_beta   89.99713610
_cell_angle_gamma   89.79908938
_symmetry_Int_Tables_number   1
_chemical_formula_structural   TaZn2N3
_chemical_formula_sum   'Ta4 Zn8 N12'
_cell_volume   323.53087979
_cell_formula_units_Z   4
loop_
 _symmetry_equiv_pos_site_id
 _symmetry_equiv_pos_as_xyz
  1  'x, y, z'
loop_
 _atom_site_type_symbol
 _atom_site_label
 _atom_site_symmetry_multiplicity
 _atom_site_fract_x
 _atom_site_fract_y
 _atom_site_fract_z
 _atom_site_occupancy
  Ta  Ta0  1  0.87321801  0.33273563  0.99999505  1
  Ta  Ta1  1  0.37231702  0.66949520  0.99998095  1
  Ta  Ta2  1  0.02935504  0.82899741  0.50001271  1
  Ta  Ta3  1  0.52889588  0.16904261  0.50000229  1
  Zn  Zn4  1  0.02994081  0.84498252  0.81659258  1
  Zn  Zn5  1  0.03039986  0.84515301  0.18349280  1
  Zn  Zn6  1  0.52762674  0.15669600  0.81910905  1
  Zn  Zn7  1  0.52783032  0.15665291  0.18093596  1
  Zn  Zn8  1  0.04176580  0.33808715  0.67165586  1
  Zn  Zn9  1  0.04186874  0.33817182  0.32832787  1
  Zn  Zn10  1  0.54151702  0.66014033  0.67211572  1
  Zn  Zn11  1  0.54167953  0.66014505  0.32781995  1
  N  N12  1  0.92393948  0.16602321  0.16506243  1
  N  N13  1  0.92389759  0.16597483  0.83495681  1
  N  N14  1  0.00849824  0.64844150  0.99999850  1
  N  N15  1  0.42344109  0.83524248  0.83450541  1
  N  N16  1  0.42344503  0.83527127  0.16546380  1
  N  N17  1  0.50705457  0.35274009  0.00000406  1
  N  N18  1  0.91447141  0.66519053  0.34279887  1
  N  N19  1  0.91437223  0.66511748  0.65719555  1
  N  N20  1  0.41476823  0.33359763  0.65741087  1
  N  N21  1  0.41485299  0.33362526  0.34257799  1
  N  N22  1  0.89362106  0.14892305  0.50000096  1
  N  N23  1  0.39386618  0.84955133  0.49998394  1
