# generated using pymatgen
data_TaZn2N3
_symmetry_space_group_name_H-M   'P 1'
_cell_length_a   9.96729284
_cell_length_b   5.85898040
_cell_length_c   5.54107994
_cell_angle_alpha   89.95307847
_cell_angle_beta   89.41647013
_cell_angle_gamma   89.99509291
_symmetry_Int_Tables_number   1
_chemical_formula_structural   TaZn2N3
_chemical_formula_sum   'Ta4 Zn8 N12'
_cell_volume   323.57205589
_cell_formula_units_Z   4
loop_
 _symmetry_equiv_pos_site_id
 _symmetry_equiv_pos_as_xyz
  1  'x, y, z'
loop_
 _atom_site_type_symbol
 _atom_site_label
 _atom_site_symmetry_multiplicity
 _atom_site_fract_x
 _atom_site_fract_y
 _atom_site_fract_z
 _atom_site_occupancy
  Ta  Ta0  1  0.00197632  -0.33285693  -0.88629655  1
  Ta  Ta1  1  0.00353055  -0.67159367  -0.38592305  1
  Ta  Ta2  1  0.50000740  -0.82908575  -0.02734759  1
  Ta  Ta3  1  0.49990417  -0.16869200  -0.52804277  1
  Zn  Zn4  1  0.81894767  -0.84579016  -0.03897373  1
  Zn  Zn5  1  0.16850799  -0.83765628  -0.89660664  1
  Zn  Zn6  1  0.81814252  -0.15427795  -0.53950973  1
  Zn  Zn7  1  0.17226356  -0.16450992  -0.44463283  1
  Zn  Zn8  1  0.67271556  -0.33985849  -0.04511475  1
  Zn  Zn9  1  0.33113180  -0.33828480  -0.03129210  1
  Zn  Zn10  1  0.67378140  -0.65873061  -0.54624408  1
  Zn  Zn11  1  0.33605616  -0.65949160  -0.52892190  1
  N  N12  1  0.15888073  -0.16540019  -0.98119748  1
  N  N13  1  0.83507750  -0.16592120  -0.92923164  1
  N  N14  1  0.00566983  -0.65013063  -0.02359355  1
  N  N15  1  0.83577642  -0.83396001  -0.42932240  1
  N  N16  1  0.15913765  -0.83460730  -0.50675318  1
  N  N17  1  0.00229572  -0.35432402  -0.52050531  1
  N  N18  1  0.34542330  -0.66199356  -0.91037108  1
  N  N19  1  0.65925998  -0.66621862  -0.91730085  1
  N  N20  1  0.65803194  -0.33299583  -0.41724529  1
  N  N21  1  0.34399007  -0.33534076  -0.40982625  1
  N  N22  1  0.49945395  -0.14857949  -0.89138669  1
  N  N23  1  0.50003780  -0.84970035  -0.39196816  1
