# generated using pymatgen
data_TaZn2N3
_symmetry_space_group_name_H-M   'P 1'
_cell_length_a   9.93353435
_cell_length_b   5.80161417
_cell_length_c   5.46033121
_cell_angle_alpha   89.99999835
_cell_angle_beta   90.00000765
_cell_angle_gamma   89.99999028
_symmetry_Int_Tables_number   1
_chemical_formula_structural   TaZn2N3
_chemical_formula_sum   'Ta4 Zn8 N12'
_cell_volume   314.68180162
_cell_formula_units_Z   4
loop_
 _symmetry_equiv_pos_site_id
 _symmetry_equiv_pos_as_xyz
  1  'x, y, z'
loop_
 _atom_site_type_symbol
 _atom_site_label
 _atom_site_symmetry_multiplicity
 _atom_site_fract_x
 _atom_site_fract_y
 _atom_site_fract_z
 _atom_site_occupancy
  Ta  Ta0  1  0.99999998  -0.32937995  -0.00170202  1
  Ta  Ta1  1  1.00000000  -0.67062007  -0.50170202  1
  Ta  Ta2  1  0.50000001  -0.82937995  -0.00170201  1
  Ta  Ta3  1  0.50000002  -0.17062008  -0.50170202  1
  Zn  Zn4  1  0.82744329  -0.83826109  -0.01207564  1
  Zn  Zn5  1  0.17255676  -0.83826127  -0.01207560  1
  Zn  Zn6  1  0.82744325  -0.16173881  -0.51207571  1
  Zn  Zn7  1  0.17255673  -0.16173887  -0.51207557  1
  Zn  Zn8  1  0.67255674  -0.33826123  -0.01207559  1
  Zn  Zn9  1  0.32744326  -0.33826114  -0.01207565  1
  Zn  Zn10  1  0.67255670  -0.66173890  -0.51207557  1
  Zn  Zn11  1  0.32744322  -0.66173878  -0.51207569  1
  N  N12  1  0.16008809  -0.16905480  -0.88805115  1
  N  N13  1  0.83991188  -0.16905479  -0.88805129  1
  N  N14  1  0.99999996  -0.65366975  -0.86988296  1
  N  N15  1  0.83991191  -0.83094522  -0.38805125  1
  N  N16  1  0.16008814  -0.83094526  -0.38805116  1
  N  N17  1  0.99999997  -0.34633029  -0.36988295  1
  N  N18  1  0.33991187  -0.66905474  -0.88805120  1
  N  N19  1  0.66008810  -0.66905481  -0.88805119  1
  N  N20  1  0.66008814  -0.33094524  -0.38805123  1
  N  N21  1  0.33991191  -0.33094527  -0.38805116  1
  N  N22  1  0.50000003  -0.15366977  -0.86988295  1
  N  N23  1  0.50000003  -0.84633023  -0.36988297  1
