# generated using pymatgen
data_TaZn2N3
_symmetry_space_group_name_H-M   'P 1'
_cell_length_a   10.01148514
_cell_length_b   5.86003298
_cell_length_c   5.50424471
_cell_angle_alpha   89.54671940
_cell_angle_beta   89.99923561
_cell_angle_gamma   90.00003964
_symmetry_Int_Tables_number   1
_chemical_formula_structural   TaZn2N3
_chemical_formula_sum   'Ta4 Zn8 N12'
_cell_volume   322.91090413
_cell_formula_units_Z   4
loop_
 _symmetry_equiv_pos_site_id
 _symmetry_equiv_pos_as_xyz
  1  'x, y, z'
loop_
 _atom_site_type_symbol
 _atom_site_label
 _atom_site_symmetry_multiplicity
 _atom_site_fract_x
 _atom_site_fract_y
 _atom_site_fract_z
 _atom_site_occupancy
  Ta  Ta0  1  0.00000015  -0.30809429  -0.02487354  1
  Ta  Ta1  1  0.00000039  -0.67961869  -0.38072698  1
  Ta  Ta2  1  0.50000003  -0.82987893  -0.02842553  1
  Ta  Ta3  1  0.50000040  -0.16997545  -0.52619969  1
  Zn  Zn4  1  0.81608609  -0.84440935  -0.02411223  1
  Zn  Zn5  1  0.18391332  -0.84440824  -0.02411263  1
  Zn  Zn6  1  0.82542447  -0.16428735  -0.53599346  1
  Zn  Zn7  1  0.17457653  -0.16428780  -0.53599475  1
  Zn  Zn8  1  0.67029149  -0.33761980  -0.03935251  1
  Zn  Zn9  1  0.32970857  -0.33761942  -0.03935188  1
  Zn  Zn10  1  0.67115832  -0.65979331  -0.53818084  1
  Zn  Zn11  1  0.32884253  -0.65979323  -0.53818050  1
  N  N12  1  0.16540267  -0.16978785  -0.90993645  1
  N  N13  1  0.83459650  -0.16978837  -0.90993635  1
  N  N14  1  0.99999953  -0.65021413  -0.00714253  1
  N  N15  1  0.83245982  -0.83911250  -0.42346410  1
  N  N16  1  0.16754094  -0.83911362  -0.42346398  1
  N  N17  1  0.00000025  -0.33314333  -0.39207134  1
  N  N18  1  0.34295875  -0.66619737  -0.91330418  1
  N  N19  1  0.65704012  -0.66619761  -0.91330398  1
  N  N20  1  0.65806173  -0.33329294  -0.41389069  1
  N  N21  1  0.34193784  -0.33329308  -0.41389047  1
  N  N22  1  0.49999967  -0.15023330  -0.89273827  1
  N  N23  1  0.49999988  -0.84984019  -0.39312588  1
