# generated using pymatgen
data_TaZn2N3
_symmetry_space_group_name_H-M   'P 1'
_cell_length_a   5.50585403
_cell_length_b   5.86781263
_cell_length_c   10.01620499
_cell_angle_alpha   90.00000613
_cell_angle_beta   90.00024698
_cell_angle_gamma   89.65440990
_symmetry_Int_Tables_number   1
_chemical_formula_structural   TaZn2N3
_chemical_formula_sum   'Ta4 Zn8 N12'
_cell_volume   323.59085144
_cell_formula_units_Z   4
loop_
 _symmetry_equiv_pos_site_id
 _symmetry_equiv_pos_as_xyz
  1  'x, y, z'
loop_
 _atom_site_type_symbol
 _atom_site_label
 _atom_site_symmetry_multiplicity
 _atom_site_fract_x
 _atom_site_fract_y
 _atom_site_fract_z
 _atom_site_occupancy
  Ta  Ta0  1  0.01432335  0.31353140  0.00000015  1
  Ta  Ta1  1  0.37725065  0.68013353  0.00000012  1
  Ta  Ta2  1  0.02956198  0.82932023  0.50000001  1
  Ta  Ta3  1  0.52757373  0.16903741  0.50000004  1
  Zn  Zn4  1  0.02632273  0.84475785  0.81510189  1
  Zn  Zn5  1  0.02632299  0.84475747  0.18489811  1
  Zn  Zn6  1  0.53167171  0.16384559  0.82615367  1
  Zn  Zn7  1  0.53167214  0.16384554  0.17384654  1
  Zn  Zn8  1  0.04087068  0.33747988  0.66968170  1
  Zn  Zn9  1  0.04087077  0.33747965  0.33031829  1
  Zn  Zn10  1  0.53978906  0.65896200  0.67138211  1
  Zn  Zn11  1  0.53978936  0.65896180  0.32861785  1
  N  N12  1  0.91203929  0.16909435  0.16566363  1
  N  N13  1  0.91203921  0.16909468  0.83433621  1
  N  N14  1  0.00408118  0.65547440  0.99999994  1
  N  N15  1  0.42456205  0.83761560  0.83214044  1
  N  N16  1  0.42456204  0.83761592  0.16785975  1
  N  N17  1  0.39045030  0.33525039  0.00000009  1
  N  N18  1  0.91462764  0.66514010  0.34322484  1
  N  N19  1  0.91462752  0.66514039  0.65677492  1
  N  N20  1  0.41535001  0.33247302  0.65788605  1
  N  N21  1  0.41535003  0.33247315  0.34211382  1
  N  N22  1  0.89393717  0.14919618  0.49999990  1
  N  N23  1  0.39412716  0.84931962  0.49999993  1
