# generated using pymatgen
data_TaZn2N3
_symmetry_space_group_name_H-M   'P 1'
_cell_length_a   10.02029768
_cell_length_b   5.87147174
_cell_length_c   5.50919604
_cell_angle_alpha   89.69529985
_cell_angle_beta   89.99998711
_cell_angle_gamma   89.99999041
_symmetry_Int_Tables_number   1
_chemical_formula_structural   TaZn2N3
_chemical_formula_sum   'Ta4 Zn8 N12'
_cell_volume   324.12287573
_cell_formula_units_Z   4
loop_
 _symmetry_equiv_pos_site_id
 _symmetry_equiv_pos_as_xyz
  1  'x, y, z'
loop_
 _atom_site_type_symbol
 _atom_site_label
 _atom_site_symmetry_multiplicity
 _atom_site_fract_x
 _atom_site_fract_y
 _atom_site_fract_z
 _atom_site_occupancy
  Ta  Ta0  1  0.00000004  0.32046522  0.98537001  1
  Ta  Ta1  1  0.00000007  0.67826947  0.37449962  1
  Ta  Ta2  1  -0.50000005  0.82897839  0.02979509  1
  Ta  Ta3  1  -0.50000005  0.16855046  0.52812050  1
  Zn  Zn4  1  -0.81465758  0.84392473  0.02847916  1
  Zn  Zn5  1  -0.18534238  0.84392434  0.02847912  1
  Zn  Zn6  1  -0.82644146  0.16337703  0.52707070  1
  Zn  Zn7  1  -0.17355842  0.16337714  0.52707068  1
  Zn  Zn8  1  -0.66914289  0.33779361  0.04187748  1
  Zn  Zn9  1  -0.33085728  0.33779325  0.04187760  1
  Zn  Zn10  1  -0.67166956  0.65894650  0.54026200  1
  Zn  Zn11  1  -0.32833046  0.65894652  0.54026220  1
  N  N12  1  -0.16631775  0.16705980  0.91738489  1
  N  N13  1  -0.83368219  0.16706008  0.91738482  1
  N  N14  1  -0.99999993  0.65937125  0.00320036  1
  N  N15  1  -0.83212906  0.83635325  0.42561523  1
  N  N16  1  -0.16787099  0.83635329  0.42561519  1
  N  N17  1  -0.99999998  0.33814236  0.40910248  1
  N  N18  1  -0.34336189  0.66445778  0.91502387  1
  N  N19  1  -0.65663812  0.66445801  0.91502379  1
  N  N20  1  -0.65771833  0.33219435  0.41599759  1
  N  N21  1  -0.34228170  0.33219437  0.41599771  1
  N  N22  1  -0.50000003  0.14873767  0.89421588  1
  N  N23  1  -0.50000002  0.84927131  0.39404676  1
