# generated using pymatgen
data_TaZn2N3
_symmetry_space_group_name_H-M   'P 1'
_cell_length_a   5.53603099
_cell_length_b   5.86478390
_cell_length_c   9.97935564
_cell_angle_alpha   90.10368764
_cell_angle_beta   90.42253466
_cell_angle_gamma   89.98950407
_symmetry_Int_Tables_number   1
_chemical_formula_structural   TaZn2N3
_chemical_formula_sum   'Ta4 Zn8 N12'
_cell_volume   323.99663492
_cell_formula_units_Z   4
loop_
 _symmetry_equiv_pos_site_id
 _symmetry_equiv_pos_as_xyz
  1  'x, y, z'
loop_
 _atom_site_type_symbol
 _atom_site_label
 _atom_site_symmetry_multiplicity
 _atom_site_fract_x
 _atom_site_fract_y
 _atom_site_fract_z
 _atom_site_occupancy
  Ta  Ta0  1  0.88155117  0.33470745  0.00053699  1
  Ta  Ta1  1  0.38381074  0.67293074  0.00312574  1
  Ta  Ta2  1  0.02736475  0.82876982  0.50019415  1
  Ta  Ta3  1  0.52828121  0.16845535  0.49988926  1
  Zn  Zn4  1  0.03781855  0.84610443  0.81860541  1
  Zn  Zn5  1  0.90293674  0.83351700  0.16958773  1
  Zn  Zn6  1  0.53658344  0.15483926  0.81750213  1
  Zn  Zn7  1  0.49729789  0.16658921  0.17681687  1
  Zn  Zn8  1  0.04404903  0.33975066  0.67254776  1
  Zn  Zn9  1  0.03575736  0.33684184  0.32944946  1
  Zn  Zn10  1  0.54541642  0.65925913  0.67387506  1
  Zn  Zn11  1  0.52916492  0.65908248  0.33585941  1
  N  N12  1  0.94473610  0.16787821  0.16176307  1
  N  N13  1  0.92810378  0.16565367  0.83489684  1
  N  N14  1  0.02092489  0.65089241  0.00532655  1
  N  N15  1  0.42770357  0.83505061  0.83546285  1
  N  N16  1  0.50159068  0.83223008  0.15984842  1
  N  N17  1  0.51538057  0.35577540  0.99936181  1
  N  N18  1  0.91169054  0.66080086  0.34574230  1
  N  N19  1  0.91679730  0.66596268  0.65917355  1
  N  N20  1  0.41657994  0.33353990  0.65733527  1
  N  N21  1  0.41024870  0.33369121  0.34307957  1
  N  N22  1  0.89153207  0.14804306  0.49970542  1
  N  N23  1  0.39228727  0.84963466  0.50031437  1
