# generated using pymatgen
data_TaZn2N3
_symmetry_space_group_name_H-M   'P 1'
_cell_length_a   9.92762304
_cell_length_b   5.79676320
_cell_length_c   5.47210669
_cell_angle_alpha   89.99999308
_cell_angle_beta   90.00002327
_cell_angle_gamma   89.99999055
_symmetry_Int_Tables_number   1
_chemical_formula_structural   TaZn2N3
_chemical_formula_sum   'Ta4 Zn8 N12'
_cell_volume   314.90923289
_cell_formula_units_Z   4
loop_
 _symmetry_equiv_pos_site_id
 _symmetry_equiv_pos_as_xyz
  1  'x, y, z'
loop_
 _atom_site_type_symbol
 _atom_site_label
 _atom_site_symmetry_multiplicity
 _atom_site_fract_x
 _atom_site_fract_y
 _atom_site_fract_z
 _atom_site_occupancy
  Ta  Ta0  1  0.00000007  -0.32953469  -0.01755298  1
  Ta  Ta1  1  0.00000010  -0.67046555  -0.51755295  1
  Ta  Ta2  1  0.49999989  -0.82953464  -0.01755296  1
  Ta  Ta3  1  0.49999988  -0.17046552  -0.51755297  1
  Zn  Zn4  1  0.82751519  -0.83825489  -0.02803208  1
  Zn  Zn5  1  0.17248485  -0.83825499  -0.02803217  1
  Zn  Zn6  1  0.82751515  -0.16174515  -0.52803218  1
  Zn  Zn7  1  0.17248481  -0.16174530  -0.52803216  1
  Zn  Zn8  1  0.67248483  -0.33825503  -0.02803215  1
  Zn  Zn9  1  0.32751517  -0.33825491  -0.02803219  1
  Zn  Zn10  1  0.67248480  -0.66174529  -0.52803212  1
  Zn  Zn11  1  0.32751514  -0.66174517  -0.52803222  1
  N  N12  1  0.16007806  -0.16917513  -0.90345730  1
  N  N13  1  0.83992202  -0.16917514  -0.90345738  1
  N  N14  1  0.00000001  -0.65374615  -0.88514941  1
  N  N15  1  0.83992203  -0.83082503  -0.40345730  1
  N  N16  1  0.16007812  -0.83082515  -0.40345730  1
  N  N17  1  0.00000003  -0.34625408  -0.38514946  1
  N  N18  1  0.33992190  -0.66917503  -0.90345731  1
  N  N19  1  0.66007798  -0.66917524  -0.90345730  1
  N  N20  1  0.66007800  -0.33082505  -0.40345735  1
  N  N21  1  0.33992193  -0.33082516  -0.40345726  1
  N  N22  1  0.49999997  -0.15374614  -0.88514944  1
  N  N23  1  0.50000001  -0.84625403  -0.38514942  1
