# generated using pymatgen
data_TaZn2N3
_symmetry_space_group_name_H-M   'P 1'
_cell_length_a   5.52095666
_cell_length_b   5.86023841
_cell_length_c   10.01066525
_cell_angle_alpha   90.00000679
_cell_angle_beta   89.99991899
_cell_angle_gamma   89.72682842
_symmetry_Int_Tables_number   1
_chemical_formula_structural   TaZn2N3
_chemical_formula_sum   'Ta4 Zn8 N12'
_cell_volume   323.88260621
_cell_formula_units_Z   4
loop_
 _symmetry_equiv_pos_site_id
 _symmetry_equiv_pos_as_xyz
  1  'x, y, z'
loop_
 _atom_site_type_symbol
 _atom_site_label
 _atom_site_symmetry_multiplicity
 _atom_site_fract_x
 _atom_site_fract_y
 _atom_site_fract_z
 _atom_site_occupancy
  Ta  Ta0  1  0.87909395  0.33334503  1.00000019  1
  Ta  Ta1  1  0.37326235  0.67088356  1.00000008  1
  Ta  Ta2  1  0.02977834  0.82866169  0.49999989  1
  Ta  Ta3  1  0.52901330  0.16834123  0.49999991  1
  Zn  Zn4  1  0.03034046  0.84462624  0.81547065  1
  Zn  Zn5  1  0.03034074  0.84462607  0.18452947  1
  Zn  Zn6  1  0.52396257  0.15981880  0.82287089  1
  Zn  Zn7  1  0.52396267  0.15981866  0.17712918  1
  Zn  Zn8  1  0.04246584  0.33764115  0.67022221  1
  Zn  Zn9  1  0.04246600  0.33764085  0.32977772  1
  Zn  Zn10  1  0.54114805  0.65933228  0.67190139  1
  Zn  Zn11  1  0.54114834  0.65933217  0.32809843  1
  N  N12  1  0.92590634  0.16663550  0.16485809  1
  N  N13  1  0.92590636  0.16663555  0.83514166  1
  N  N14  1  0.00787122  0.65213483  0.00000004  1
  N  N15  1  0.42534697  0.83537528  0.83396465  1
  N  N16  1  0.42534691  0.83537507  0.16603524  1
  N  N17  1  0.49471331  0.34817393  0.00000006  1
  N  N18  1  0.91482373  0.66436776  0.34319092  1
  N  N19  1  0.91482357  0.66436792  0.65680922  1
  N  N20  1  0.41594892  0.33257192  0.65763189  1
  N  N21  1  0.41594905  0.33257187  0.34236828  1
  N  N22  1  0.89404399  0.14855945  0.49999997  1
  N  N23  1  0.39410978  0.84916337  0.49999997  1
