# generated using pymatgen
data_TaZn2N3
_symmetry_space_group_name_H-M   'P 1'
_cell_length_a   9.98094683
_cell_length_b   5.85232741
_cell_length_c   5.49928364
_cell_angle_alpha   89.44557232
_cell_angle_beta   89.99983596
_cell_angle_gamma   89.99998351
_symmetry_Int_Tables_number   1
_chemical_formula_structural   TaZn2N3
_chemical_formula_sum   'Ta4 Zn8 N12'
_cell_volume   321.20784536
_cell_formula_units_Z   4
loop_
 _symmetry_equiv_pos_site_id
 _symmetry_equiv_pos_as_xyz
  1  'x, y, z'
loop_
 _atom_site_type_symbol
 _atom_site_label
 _atom_site_symmetry_multiplicity
 _atom_site_fract_x
 _atom_site_fract_y
 _atom_site_fract_z
 _atom_site_occupancy
  Ta  Ta0  1  -0.00000011  0.30737737  0.03336902  1
  Ta  Ta1  1  -0.00000003  0.67429901  0.40453240  1
  Ta  Ta2  1  -0.49999999  0.83178960  0.02464434  1
  Ta  Ta3  1  -0.50000000  0.17174364  0.52287021  1
  Zn  Zn4  1  -0.82262203  0.83921574  0.01980052  1
  Zn  Zn5  1  -0.17737801  0.83921579  0.01980053  1
  Zn  Zn6  1  -0.82453305  0.16451457  0.53958949  1
  Zn  Zn7  1  -0.17546706  0.16451474  0.53958965  1
  Zn  Zn8  1  -0.67117042  0.33931605  0.03531454  1
  Zn  Zn9  1  -0.32882968  0.33931599  0.03531446  1
  Zn  Zn10  1  -0.66977879  0.66157532  0.53469795  1
  Zn  Zn11  1  -0.33022122  0.66157522  0.53469785  1
  N  N12  1  -0.16441651  0.16916571  0.91156548  1
  N  N13  1  -0.83558351  0.16916588  0.91156567  1
  N  N14  1  -1.00000000  0.64759983  0.00106447  1
  N  N15  1  -0.83390429  0.83919612  0.42544824  1
  N  N16  1  -0.16609603  0.83919657  0.42544824  1
  N  N17  1  -0.00000008  0.32878361  0.40058162  1
  N  N18  1  -0.34186195  0.66920272  0.91065536  1
  N  N19  1  -0.65813769  0.66920285  0.91065551  1
  N  N20  1  -0.65853738  0.33494805  0.41066662  1
  N  N21  1  -0.34146238  0.33494822  0.41066652  1
  N  N22  1  -0.49999990  0.15311786  0.88946422  1
  N  N23  1  -0.49999988  0.85101968  0.38976984  1
