# generated using pymatgen
data_TaZn2N3
_symmetry_space_group_name_H-M   'P 1'
_cell_length_a   9.94567820
_cell_length_b   5.82621986
_cell_length_c   5.48242662
_cell_angle_alpha   89.48165748
_cell_angle_beta   90.00026424
_cell_angle_gamma   89.99996007
_symmetry_Int_Tables_number   1
_chemical_formula_structural   TaZn2N3
_chemical_formula_sum   'Ta4 Zn8 N12'
_cell_volume   317.67009097
_cell_formula_units_Z   4
loop_
 _symmetry_equiv_pos_site_id
 _symmetry_equiv_pos_as_xyz
  1  'x, y, z'
loop_
 _atom_site_type_symbol
 _atom_site_label
 _atom_site_symmetry_multiplicity
 _atom_site_fract_x
 _atom_site_fract_y
 _atom_site_fract_z
 _atom_site_occupancy
  Ta  Ta0  1  -0.00000077  0.32263281  0.02829176  1
  Ta  Ta1  1  -0.00000100  0.66822915  0.52082981  1
  Ta  Ta2  1  -0.49999907  0.83107994  0.02408574  1
  Ta  Ta3  1  -0.49999901  0.17140335  0.52317162  1
  Zn  Zn4  1  -0.82647545  0.83669202  0.02787817  1
  Zn  Zn5  1  -0.17352456  0.83669219  0.02787832  1
  Zn  Zn6  1  -0.82544267  0.16309679  0.53778155  1
  Zn  Zn7  1  -0.17455738  0.16309673  0.53778129  1
  Zn  Zn8  1  -0.67166176  0.33927275  0.03465899  1
  Zn  Zn9  1  -0.32833807  0.33927278  0.03465908  1
  Zn  Zn10  1  -0.67064798  0.66213160  0.53435917  1
  Zn  Zn11  1  -0.32935170  0.66213158  0.53435929  1
  N  N12  1  -0.16199974  0.16935481  0.91189625  1
  N  N13  1  -0.83800001  0.16935437  0.91189600  1
  N  N14  1  -0.99999999  0.64916429  0.90541926  1
  N  N15  1  -0.83957059  0.83250072  0.41484588  1
  N  N16  1  -0.16042884  0.83250019  0.41484645  1
  N  N17  1  -0.99999999  0.34117234  0.39601245  1
  N  N18  1  -0.34138599  0.66940858  0.91001800  1
  N  N19  1  -0.65861464  0.66940810  0.91001770  1
  N  N20  1  -0.65916502  0.33393630  0.41015027  1
  N  N21  1  -0.34083565  0.33393581  0.41015060  1
  N  N22  1  -0.50000010  0.15406315  0.89001132  1
  N  N23  1  -0.50000003  0.84946983  0.39077376  1
