# generated using pymatgen
data_TaZn2N3
_symmetry_space_group_name_H-M   'P 1'
_cell_length_a   10.01441922
_cell_length_b   5.86441952
_cell_length_c   5.51927979
_cell_angle_alpha   89.71546871
_cell_angle_beta   90.00002866
_cell_angle_gamma   89.99998803
_symmetry_Int_Tables_number   1
_chemical_formula_structural   TaZn2N3
_chemical_formula_sum   'Ta4 Zn8 N12'
_cell_volume   324.13643715
_cell_formula_units_Z   4
loop_
 _symmetry_equiv_pos_site_id
 _symmetry_equiv_pos_as_xyz
  1  'x, y, z'
loop_
 _atom_site_type_symbol
 _atom_site_label
 _atom_site_symmetry_multiplicity
 _atom_site_fract_x
 _atom_site_fract_y
 _atom_site_fract_z
 _atom_site_occupancy
  Ta  Ta0  1  -0.99999996  0.33211538  0.89190053  1
  Ta  Ta1  1  -0.99999990  0.67219767  0.37425431  1
  Ta  Ta2  1  -0.50000005  0.82867262  0.02982432  1
  Ta  Ta3  1  -0.50000006  0.16828575  0.52884664  1
  Zn  Zn4  1  -0.81503189  0.84410778  0.03038498  1
  Zn  Zn5  1  -0.18496823  0.84410756  0.03038535  1
  Zn  Zn6  1  -0.82437364  0.16121965  0.52379422  1
  Zn  Zn7  1  -0.17562642  0.16121954  0.52379448  1
  Zn  Zn8  1  -0.66963686  0.33773924  0.04262866  1
  Zn  Zn9  1  -0.33036302  0.33773911  0.04262885  1
  Zn  Zn10  1  -0.67186172  0.65917188  0.54087302  1
  Zn  Zn11  1  -0.32813811  0.65917170  0.54087336  1
  N  N12  1  -0.16538887  0.16616378  0.92585956  1
  N  N13  1  -0.83461100  0.16616394  0.92585955  1
  N  N14  1  -0.00000004  0.65488190  0.00746624  1
  N  N15  1  -0.83338337  0.83561029  0.42586858  1
  N  N16  1  -0.16661661  0.83561022  0.42586860  1
  N  N17  1  -0.00000007  0.34507921  0.48021215  1
  N  N18  1  -0.34330529  0.66417564  0.91494896  1
  N  N19  1  -0.65669480  0.66417586  0.91494882  1
  N  N20  1  -0.65765943  0.33233069  0.41620456  1
  N  N21  1  -0.34234067  0.33233070  0.41620469  1
  N  N22  1  -0.49999998  0.14852075  0.89412448  1
  N  N23  1  -0.49999997  0.84920930  0.39401785  1
