# generated using pymatgen
data_TaZn2N3
_symmetry_space_group_name_H-M   'P 1'
_cell_length_a   9.92202952
_cell_length_b   5.82669137
_cell_length_c   5.57472166
_cell_angle_alpha   89.99996956
_cell_angle_beta   89.99999525
_cell_angle_gamma   89.99999025
_symmetry_Int_Tables_number   1
_chemical_formula_structural   TaZn2N3
_chemical_formula_sum   'Ta4 Zn8 N12'
_cell_volume   322.28917435
_cell_formula_units_Z   4
loop_
 _symmetry_equiv_pos_site_id
 _symmetry_equiv_pos_as_xyz
  1  'x, y, z'
loop_
 _atom_site_type_symbol
 _atom_site_label
 _atom_site_symmetry_multiplicity
 _atom_site_fract_x
 _atom_site_fract_y
 _atom_site_fract_z
 _atom_site_occupancy
  Ta  Ta0  1  -0.00000002  0.33142453  0.92305018  1
  Ta  Ta1  1  -1.00000000  0.66857566  0.42305013  1
  Ta  Ta2  1  -0.50000001  0.83142421  0.04414016  1
  Ta  Ta3  1  -0.49999998  0.16857587  0.54414009  1
  Zn  Zn4  1  -0.83414576  0.84331782  0.91723971  1
  Zn  Zn5  1  -0.16585424  0.84331763  0.91723999  1
  Zn  Zn6  1  -0.83414577  0.15668245  0.41723979  1
  Zn  Zn7  1  -0.16585421  0.15668248  0.41723997  1
  Zn  Zn8  1  -0.66585344  0.34331766  0.04995355  1
  Zn  Zn9  1  -0.33414659  0.34331764  0.04995379  1
  Zn  Zn10  1  -0.66585344  0.65668234  0.54995363  1
  Zn  Zn11  1  -0.33414656  0.65668253  0.54995376  1
  N  N12  1  -0.15679201  0.16688427  0.03776719  1
  N  N13  1  -0.84320797  0.16688436  0.03776711  1
  N  N14  1  -0.99999998  0.65196537  0.05974872  1
  N  N15  1  -0.84320799  0.83311576  0.53776710  1
  N  N16  1  -0.15679200  0.83311579  0.53776723  1
  N  N17  1  -0.00000000  0.34803477  0.55974876  1
  N  N18  1  -0.34320836  0.66688342  0.92942196  1
  N  N19  1  -0.65679163  0.66688348  0.92942188  1
  N  N20  1  -0.65679164  0.33311666  0.42942186  1
  N  N21  1  -0.34320836  0.33311678  0.42942197  1
  N  N22  1  -0.49999998  0.15196512  0.90744146  1
  N  N23  1  -0.50000000  0.84803505  0.40744148  1
