# generated using pymatgen
data_TaZn2N3
_symmetry_space_group_name_H-M   'P 1'
_cell_length_a   10.02019063
_cell_length_b   5.87063413
_cell_length_c   5.51423721
_cell_angle_alpha   89.70664135
_cell_angle_beta   90.00001104
_cell_angle_gamma   89.99999097
_symmetry_Int_Tables_number   1
_chemical_formula_structural   TaZn2N3
_chemical_formula_sum   'Ta4 Zn8 N12'
_cell_volume   324.37005219
_cell_formula_units_Z   4
loop_
 _symmetry_equiv_pos_site_id
 _symmetry_equiv_pos_as_xyz
  1  'x, y, z'
loop_
 _atom_site_type_symbol
 _atom_site_label
 _atom_site_symmetry_multiplicity
 _atom_site_fract_x
 _atom_site_fract_y
 _atom_site_fract_z
 _atom_site_occupancy
  Ta  Ta0  1  -0.00000004  -0.32699166  -0.93785582  1
  Ta  Ta1  1  -0.00000008  -0.67519184  -0.37429886  1
  Ta  Ta2  1  0.50000004  -0.82876617  -0.02984736  1
  Ta  Ta3  1  0.50000005  -0.16833262  -0.52849209  1
  Zn  Zn4  1  0.81466711  -0.84362273  -0.02969897  1
  Zn  Zn5  1  0.18533289  -0.84362244  -0.02969912  1
  Zn  Zn6  1  0.82598136  -0.16272146  -0.52478914  1
  Zn  Zn7  1  0.17401856  -0.16272152  -0.52478908  1
  Zn  Zn8  1  0.66910166  -0.33788031  -0.04242549  1
  Zn  Zn9  1  0.33089846  -0.33787995  -0.04242559  1
  Zn  Zn10  1  0.67181981  -0.65904955  -0.54051378  1
  Zn  Zn11  1  0.32818016  -0.65904955  -0.54051399  1
  N  N12  1  0.16648386  -0.16562145  -0.92281345  1
  N  N13  1  0.83351608  -0.16562173  -0.92281337  1
  N  N14  1  0.99999995  -0.65966502  -0.00544533  1
  N  N15  1  0.83248511  -0.83594804  -0.42608732  1
  N  N16  1  0.16751487  -0.83594801  -0.42608729  1
  N  N17  1  0.99999998  -0.34096194  -0.44232075  1
  N  N18  1  0.34338948  -0.66412915  -0.91508105  1
  N  N19  1  0.65661056  -0.66412932  -0.91508092  1
  N  N20  1  0.65767286  -0.33215416  -0.41626044  1
  N  N21  1  0.34232721  -0.33215416  -0.41626054  1
  N  N22  1  0.50000004  -0.14855200  -0.89420306  1
  N  N23  1  0.50000003  -0.84928539  -0.39396997  1
