# generated using pymatgen
data_Al17BN18
_symmetry_space_group_name_H-M   'P 1'
_cell_length_a   9.31384260
_cell_length_b   9.32282790
_cell_length_c   10.05665479
_cell_angle_alpha   89.93426811
_cell_angle_beta   89.76120324
_cell_angle_gamma   60.09545057
_symmetry_Int_Tables_number   1
_chemical_formula_structural   Al17BN18
_chemical_formula_sum   'Al34 B2 N36'
_cell_volume   756.96121030
_cell_formula_units_Z   2
loop_
 _symmetry_equiv_pos_site_id
 _symmetry_equiv_pos_as_xyz
  1  'x, y, z'
loop_
 _atom_site_type_symbol
 _atom_site_label
 _atom_site_symmetry_multiplicity
 _atom_site_fract_x
 _atom_site_fract_y
 _atom_site_fract_z
 _atom_site_occupancy
  Al  Al0  1  0.10130615  0.10634733  0.30841734  1
  Al  Al1  1  0.21801648  0.20514934  0.06100689  1
  Al  Al2  1  0.78259436  0.08970300  0.82356747  1
  Al  Al3  1  0.89077096  0.19934109  0.56207828  1
  Al  Al4  1  0.44630877  0.09394458  0.30999314  1
  Al  Al5  1  0.56009426  0.20707319  0.05772622  1
  Al  Al6  1  0.10587787  0.10115327  0.82055460  1
  Al  Al7  1  0.22140823  0.20468593  0.55954242  1
  Al  Al8  1  0.77759401  0.10265325  0.30087978  1
  Al  Al9  1  0.44440083  0.09467785  0.80995260  1
  Al  Al10  1  0.56182131  0.19783138  0.56067913  1
  Al  Al11  1  0.11025162  0.43077668  0.31090607  1
  Al  Al12  1  0.22852356  0.52806141  0.06250321  1
  Al  Al13  1  0.77908251  0.42471926  0.81516034  1
  Al  Al14  1  0.89056455  0.54192497  0.56155458  1
  Al  Al15  1  0.44392220  0.42864508  0.31158118  1
  Al  Al16  1  0.55997685  0.53270156  0.06041280  1
  Al  Al17  1  0.11223103  0.42675380  0.80939834  1
  Al  Al18  1  0.21879266  0.53795163  0.56182545  1
  Al  Al19  1  0.78068844  0.42359354  0.30627754  1
  Al  Al20  1  0.89071192  0.53138198  0.05735960  1
  Al  Al21  1  0.44470399  0.42744077  0.80865674  1
  Al  Al22  1  0.55821005  0.53734977  0.55847188  1
  Al  Al23  1  0.09801299  0.77388649  0.37141718  1
  Al  Al24  1  0.21637890  0.87321215  0.12751467  1
  Al  Al25  1  0.78222758  0.76346269  0.81627648  1
  Al  Al26  1  0.45071628  0.75889609  0.31230606  1
  Al  Al27  1  0.55554404  0.87008376  0.05640825  1
  Al  Al28  1  0.11098009  0.76397900  0.88728580  1
  Al  Al29  1  0.21117775  0.87310043  0.62894612  1
  Al  Al30  1  0.77650152  0.75951082  0.30406680  1
  Al  Al31  1  0.88754620  0.87594950  0.09165550  1
  Al  Al32  1  0.45094414  0.75596832  0.81053498  1
  Al  Al33  1  0.55987102  0.87501729  0.56037165  1
  B  B34  1  0.88505848  0.20857221  0.05706057  1
  B  B35  1  0.88836637  0.87363020  0.60218757  1
  N  N36  1  0.22183566  0.20670611  0.36913090  1
  N  N37  1  0.08316619  0.11118554  0.11257552  1
  N  N38  1  0.88784576  0.20713824  0.89063474  1
  N  N39  1  0.79393771  0.06475568  0.62346374  1
  N  N40  1  0.55820231  0.20503070  0.37058735  1
  N  N41  1  0.44637188  0.09305805  0.11911620  1
  N  N42  1  0.22353326  0.20564754  0.87230867  1
  N  N43  1  0.10546809  0.10357447  0.62568951  1
  N  N44  1  0.88613616  0.20723046  0.37557177  1
  N  N45  1  0.78611378  0.11744212  0.10967236  1
  N  N46  1  0.55572541  0.20598827  0.86785090  1
  N  N47  1  0.44328434  0.09533506  0.62007530  1
  N  N48  1  0.22265570  0.53938402  0.37197187  1
  N  N49  1  0.11083417  0.42620942  0.12200566  1
  N  N50  1  0.88980598  0.53812868  0.86715800  1
  N  N51  1  0.77866770  0.42536619  0.62370471  1
  N  N52  1  0.55869653  0.53718086  0.36871550  1
  N  N53  1  0.44626960  0.42529969  0.12256808  1
  N  N54  1  0.22566327  0.53184514  0.86880875  1
  N  N55  1  0.11110903  0.42673945  0.62042995  1
  N  N56  1  0.88705898  0.53969740  0.37119667  1
  N  N57  1  0.79058644  0.40312218  0.11269263  1
  N  N58  1  0.55597292  0.53686064  0.87117689  1
  N  N59  1  0.44542970  0.42686372  0.61853399  1
  N  N60  1  0.21933044  0.87576258  0.32523664  1
  N  N61  1  0.11898888  0.75588780  0.07708601  1
  N  N62  1  0.88229682  0.87513128  0.88322830  1
  N  N63  1  0.79387713  0.77677433  0.61865701  1
  N  N64  1  0.55770216  0.87264835  0.37209268  1
  N  N65  1  0.45063295  0.75641171  0.11881809  1
  N  N66  1  0.21964266  0.86894140  0.82334782  1
  N  N67  1  0.07481366  0.78147623  0.57477099  1
  N  N68  1  0.88670083  0.87623225  0.31024595  1
  N  N69  1  0.77357627  0.75198817  0.11513870  1
  N  N70  1  0.55587684  0.87189813  0.86656733  1
  N  N71  1  0.44972074  0.75857438  0.61691620  1
