# generated using pymatgen
data_Al17BN18
_symmetry_space_group_name_H-M   'P 1'
_cell_length_a   9.31422824
_cell_length_b   9.33955595
_cell_length_c   10.14014978
_cell_angle_alpha   90.07188498
_cell_angle_beta   89.53472481
_cell_angle_gamma   59.93927912
_symmetry_Int_Tables_number   1
_chemical_formula_structural   Al17BN18
_chemical_formula_sum   'Al34 B2 N36'
_cell_volume   763.41294418
_cell_formula_units_Z   2
loop_
 _symmetry_equiv_pos_site_id
 _symmetry_equiv_pos_as_xyz
  1  'x, y, z'
loop_
 _atom_site_type_symbol
 _atom_site_label
 _atom_site_symmetry_multiplicity
 _atom_site_fract_x
 _atom_site_fract_y
 _atom_site_fract_z
 _atom_site_occupancy
  Al  Al0  1  0.11197157  0.09368150  0.39705941  1
  Al  Al1  1  0.22004244  0.20759137  0.08797771  1
  Al  Al2  1  0.78115313  0.08575699  0.82161256  1
  Al  Al3  1  0.88793369  0.20292421  0.60304592  1
  Al  Al4  1  0.44789203  0.09261601  0.31898554  1
  Al  Al5  1  0.56410084  0.20778479  0.06883322  1
  Al  Al6  1  0.09805319  0.09821194  0.88935991  1
  Al  Al7  1  0.22657606  0.20513402  0.59554922  1
  Al  Al8  1  0.77972653  0.10122853  0.32278759  1
  Al  Al9  1  0.44650496  0.09335250  0.82724641  1
  Al  Al10  1  0.56182730  0.19642591  0.56915337  1
  Al  Al11  1  0.11085189  0.43102595  0.32008002  1
  Al  Al12  1  0.22985811  0.53061655  0.07204187  1
  Al  Al13  1  0.77638641  0.43117476  0.81470688  1
  Al  Al14  1  0.89142691  0.54491314  0.57003742  1
  Al  Al15  1  0.44358864  0.42837313  0.32261122  1
  Al  Al16  1  0.55931890  0.53404043  0.07317726  1
  Al  Al17  1  0.11148126  0.42733956  0.82624852  1
  Al  Al18  1  0.22083205  0.53612281  0.57444826  1
  Al  Al19  1  0.78314102  0.42133404  0.32870333  1
  Al  Al20  1  0.89098572  0.53068673  0.06953276  1
  Al  Al21  1  0.44760148  0.42641250  0.82023948  1
  Al  Al22  1  0.55510215  0.54130598  0.56709674  1
  Al  Al23  1  0.09686148  0.77204803  0.38737875  1
  Al  Al24  1  0.20841965  0.88056292  0.14648007  1
  Al  Al25  1  0.78284011  0.76232343  0.82794127  1
  Al  Al26  1  0.44879827  0.76025410  0.32278440  1
  Al  Al27  1  0.55634637  0.86871135  0.06724001  1
  Al  Al28  1  0.10989652  0.76588482  0.89871098  1
  Al  Al29  1  0.20805865  0.87603115  0.64507839  1
  Al  Al30  1  0.77555410  0.75909812  0.31529393  1
  Al  Al31  1  0.88889889  0.87453911  0.10624464  1
  Al  Al32  1  0.44900873  0.75732680  0.82207322  1
  Al  Al33  1  0.55910487  0.87317181  0.57302789  1
  B  B34  1  0.88623366  0.20882337  0.11122869  1
  B  B35  1  0.88592316  0.87124365  0.61052557  1
  N  N36  1  0.22298899  0.20687480  0.36039647  1
  N  N37  1  0.07543724  0.11066226  0.08714619  1
  N  N38  1  0.88954733  0.20423905  0.81989344  1
  N  N39  1  0.78968522  0.05761751  0.62604319  1
  N  N40  1  0.55619738  0.20511067  0.38135068  1
  N  N41  1  0.45332825  0.09110777  0.12864555  1
  N  N42  1  0.22356713  0.20512956  0.88337613  1
  N  N43  1  0.11976203  0.08802413  0.58554733  1
  N  N44  1  0.88047834  0.20918908  0.39686396  1
  N  N45  1  0.79034372  0.11895475  0.12724307  1
  N  N46  1  0.55854876  0.20552559  0.88107392  1
  N  N47  1  0.44870470  0.09270459  0.63712386  1
  N  N48  1  0.22298563  0.53795629  0.38554563  1
  N  N49  1  0.10980125  0.43212779  0.13183256  1
  N  N50  1  0.88796131  0.53780802  0.88161780  1
  N  N51  1  0.77291657  0.44187938  0.62701010  1
  N  N52  1  0.55545040  0.53962728  0.37896546  1
  N  N53  1  0.44697283  0.42572775  0.13427899  1
  N  N54  1  0.22686197  0.53310657  0.88026105  1
  N  N55  1  0.11017437  0.42870539  0.63682580  1
  N  N56  1  0.88893878  0.54104049  0.38192809  1
  N  N57  1  0.79457432  0.39835134  0.13122255  1
  N  N58  1  0.55685289  0.53777926  0.88464484  1
  N  N59  1  0.44844408  0.42493642  0.63056525  1
  N  N60  1  0.21481360  0.87651596  0.33492560  1
  N  N61  1  0.11959840  0.75846685  0.08671923  1
  N  N62  1  0.88001429  0.87732743  0.89572339  1
  N  N63  1  0.79382578  0.77383678  0.63078048  1
  N  N64  1  0.55625344  0.87270923  0.38508982  1
  N  N65  1  0.44685127  0.76018508  0.13132925  1
  N  N66  1  0.21482640  0.87549707  0.83353693  1
  N  N67  1  0.07503767  0.77943861  0.58649404  1
  N  N68  1  0.88760895  0.87420372  0.32020669  1
  N  N69  1  0.77314721  0.75113724  0.12778516  1
  N  N70  1  0.55637359  0.86995791  0.87939096  1
  N  N71  1  0.44656388  0.75959678  0.63064351  1
