# generated using pymatgen
data_Al17BN18
_symmetry_space_group_name_H-M   'P 1'
_cell_length_a   9.30232561
_cell_length_b   9.31391109
_cell_length_c   10.10086006
_cell_angle_alpha   89.99003961
_cell_angle_beta   89.76787279
_cell_angle_gamma   60.08702029
_symmetry_Int_Tables_number   1
_chemical_formula_structural   Al17BN18
_chemical_formula_sum   'Al34 B2 N36'
_cell_volume   758.55699097
_cell_formula_units_Z   2
loop_
 _symmetry_equiv_pos_site_id
 _symmetry_equiv_pos_as_xyz
  1  'x, y, z'
loop_
 _atom_site_type_symbol
 _atom_site_label
 _atom_site_symmetry_multiplicity
 _atom_site_fract_x
 _atom_site_fract_y
 _atom_site_fract_z
 _atom_site_occupancy
  Al  Al0  1  0.10157853  0.10642843  0.31285769  1
  Al  Al1  1  0.21660770  0.20477747  0.06088276  1
  Al  Al2  1  0.78242500  0.08982887  0.82142458  1
  Al  Al3  1  0.89045871  0.20006158  0.56304528  1
  Al  Al4  1  0.44666727  0.09399063  0.30891587  1
  Al  Al5  1  0.56049838  0.20713396  0.05744044  1
  Al  Al6  1  0.10500730  0.10117113  0.81559412  1
  Al  Al7  1  0.22292342  0.20493768  0.55858579  1
  Al  Al8  1  0.77780230  0.10206090  0.30281526  1
  Al  Al9  1  0.44393939  0.09439268  0.81022187  1
  Al  Al10  1  0.56179198  0.19762843  0.56004439  1
  Al  Al11  1  0.11100402  0.43117926  0.30988663  1
  Al  Al12  1  0.22840633  0.52850082  0.06099380  1
  Al  Al13  1  0.77884169  0.42478196  0.81330484  1
  Al  Al14  1  0.89143932  0.54241096  0.56087833  1
  Al  Al15  1  0.44391511  0.42881084  0.31081980  1
  Al  Al16  1  0.55972511  0.53318357  0.06050683  1
  Al  Al17  1  0.11184857  0.42622445  0.80969138  1
  Al  Al18  1  0.22012860  0.53630659  0.56211977  1
  Al  Al19  1  0.78088077  0.42405428  0.30836953  1
  Al  Al20  1  0.89056379  0.53115588  0.05721046  1
  Al  Al21  1  0.44507743  0.42711609  0.80887922  1
  Al  Al22  1  0.55852071  0.53725081  0.55768475  1
  Al  Al23  1  0.09751971  0.77356215  0.37493738  1
  Al  Al24  1  0.21470972  0.87349262  0.13155510  1
  Al  Al25  1  0.78174109  0.76337441  0.81654416  1
  Al  Al26  1  0.45117445  0.75895989  0.31305040  1
  Al  Al27  1  0.55462471  0.87006407  0.05609368  1
  Al  Al28  1  0.11058032  0.76508714  0.88634668  1
  Al  Al29  1  0.21233521  0.87197085  0.62617477  1
  Al  Al30  1  0.77686452  0.75951234  0.30313253  1
  Al  Al31  1  0.88772270  0.87629750  0.09119622  1
  Al  Al32  1  0.45029891  0.75592439  0.80891821  1
  Al  Al33  1  0.56058584  0.87491092  0.55985695  1
  B  B34  1  0.88560211  0.20880405  0.06585055  1
  B  B35  1  0.88795120  0.87321205  0.60149430  1
  N  N36  1  0.22279685  0.20749370  0.36919723  1
  N  N37  1  0.08095796  0.11247281  0.11711673  1
  N  N38  1  0.88767739  0.20698497  0.88435315  1
  N  N39  1  0.79373140  0.06405047  0.62176543  1
  N  N40  1  0.55779029  0.20530445  0.37066325  1
  N  N41  1  0.44589347  0.09328279  0.11878555  1
  N  N42  1  0.22244949  0.20451170  0.87244595  1
  N  N43  1  0.10750278  0.10234730  0.62145591  1
  N  N44  1  0.88529514  0.20776979  0.37750914  1
  N  N45  1  0.78630231  0.11812622  0.11208929  1
  N  N46  1  0.55563026  0.20557546  0.86827882  1
  N  N47  1  0.44395975  0.09501793  0.62068562  1
  N  N48  1  0.22343990  0.53883386  0.37291100  1
  N  N49  1  0.11096951  0.42649607  0.12160116  1
  N  N50  1  0.88924378  0.53807688  0.86772591  1
  N  N51  1  0.77874563  0.42704442  0.62240478  1
  N  N52  1  0.55843483  0.53732376  0.36896307  1
  N  N53  1  0.44594917  0.42564728  0.12242869  1
  N  N54  1  0.22536686  0.53185705  0.86843252  1
  N  N55  1  0.11159692  0.42624932  0.62119670  1
  N  N56  1  0.88801500  0.54015906  0.37120838  1
  N  N57  1  0.79077813  0.40279102  0.11514196  1
  N  N58  1  0.55578542  0.53742420  0.87162888  1
  N  N59  1  0.44663766  0.42626264  0.61915993  1
  N  N60  1  0.21930338  0.87524195  0.32773675  1
  N  N61  1  0.11918402  0.75686535  0.07510848  1
  N  N62  1  0.88119990  0.87592132  0.88319586  1
  N  N63  1  0.79401632  0.77629838  0.61902512  1
  N  N64  1  0.55824320  0.87304072  0.37214765  1
  N  N65  1  0.44955470  0.75709206  0.12046936  1
  N  N66  1  0.21871052  0.86863172  0.81884249  1
  N  N67  1  0.07470990  0.78060410  0.57370680  1
  N  N68  1  0.88801114  0.87536013  0.30983090  1
  N  N69  1  0.77317603  0.75227403  0.11500673  1
  N  N70  1  0.55499999  0.87152957  0.86684411  1
  N  N71  1  0.45088703  0.75812371  0.61590638  1
