# generated using pymatgen
data_Al17BN18
_symmetry_space_group_name_H-M   'P 1'
_cell_length_a   9.34404018
_cell_length_b   9.33295558
_cell_length_c   10.18304061
_cell_angle_alpha   89.95203643
_cell_angle_beta   89.73256926
_cell_angle_gamma   59.83588830
_symmetry_Int_Tables_number   1
_chemical_formula_structural   Al17BN18
_chemical_formula_sum   'Al34 B2 N36'
_cell_volume   767.77866931
_cell_formula_units_Z   2
loop_
 _symmetry_equiv_pos_site_id
 _symmetry_equiv_pos_as_xyz
  1  'x, y, z'
loop_
 _atom_site_type_symbol
 _atom_site_label
 _atom_site_symmetry_multiplicity
 _atom_site_fract_x
 _atom_site_fract_y
 _atom_site_fract_z
 _atom_site_occupancy
  Al  Al0  1  0.11382522  0.09402434  0.39472100  1
  Al  Al1  1  0.20976092  0.21004322  0.13570173  1
  Al  Al2  1  0.78359311  0.08239114  0.81259070  1
  Al  Al3  1  0.89126460  0.20295819  0.60569814  1
  Al  Al4  1  0.45114719  0.09056308  0.31454096  1
  Al  Al5  1  0.56237085  0.20788352  0.06353355  1
  Al  Al6  1  0.10164027  0.09762322  0.88167737  1
  Al  Al7  1  0.21707190  0.20966079  0.64288281  1
  Al  Al8  1  0.78196387  0.10348232  0.31397703  1
  Al  Al9  1  0.45221136  0.08846381  0.81948011  1
  Al  Al10  1  0.56268376  0.19549921  0.56524342  1
  Al  Al11  1  0.11100818  0.42486109  0.39033068  1
  Al  Al12  1  0.22072430  0.53765911  0.14197787  1
  Al  Al13  1  0.78140806  0.42151589  0.88001741  1
  Al  Al14  1  0.89031477  0.54867255  0.64070619  1
  Al  Al15  1  0.44578286  0.42625555  0.34791944  1
  Al  Al16  1  0.56078612  0.53339661  0.13742224  1
  Al  Al17  1  0.11118475  0.42823218  0.89022501  1
  Al  Al18  1  0.21253184  0.54545059  0.63408714  1
  Al  Al19  1  0.77703817  0.43157866  0.39620741  1
  Al  Al20  1  0.89104751  0.52902002  0.14106051  1
  Al  Al21  1  0.44512871  0.42389046  0.83413478  1
  Al  Al22  1  0.55704418  0.54431579  0.63996467  1
  Al  Al23  1  0.10084430  0.76881032  0.38283841  1
  Al  Al24  1  0.21459901  0.87527012  0.14110882  1
  Al  Al25  1  0.78423441  0.75590769  0.89506536  1
  Al  Al26  1  0.43930845  0.75897785  0.38805294  1
  Al  Al27  1  0.55087722  0.87603359  0.07149061  1
  Al  Al28  1  0.11328917  0.75927053  0.89539932  1
  Al  Al29  1  0.21468057  0.87513682  0.64094777  1
  Al  Al30  1  0.78619527  0.76167417  0.37439872  1
  Al  Al31  1  0.89205220  0.87319208  0.10953265  1
  Al  Al32  1  0.43771584  0.75904747  0.88967287  1
  Al  Al33  1  0.55594601  0.87946137  0.56924838  1
  B  B34  1  0.88632048  0.20789729  0.09523480  1
  B  B35  1  0.88781302  0.87218403  0.59584567  1
  N  N36  1  0.21653801  0.20672041  0.32484826  1
  N  N37  1  0.07859302  0.10898441  0.07774548  1
  N  N38  1  0.88838746  0.20804337  0.81077638  1
  N  N39  1  0.79217917  0.05716315  0.62018203  1
  N  N40  1  0.56046035  0.19928564  0.37769316  1
  N  N41  1  0.45038893  0.09449005  0.12608647  1
  N  N42  1  0.21759404  0.20713340  0.83331944  1
  N  N43  1  0.12314930  0.09042066  0.58090016  1
  N  N44  1  0.88554607  0.20384516  0.38892453  1
  N  N45  1  0.79149215  0.11922280  0.12081109  1
  N  N46  1  0.56140846  0.20070027  0.87592441  1
  N  N47  1  0.44956550  0.09385432  0.63122002  1
  N  N48  1  0.21607243  0.54214498  0.33381181  1
  N  N49  1  0.11065840  0.42854887  0.07733619  1
  N  N50  1  0.88953106  0.53983014  0.82820937  1
  N  N51  1  0.77466866  0.44395535  0.58244726  1
  N  N52  1  0.56086762  0.54001788  0.32711682  1
  N  N53  1  0.44490547  0.42503820  0.11237492  1
  N  N54  1  0.21519573  0.54285067  0.82410656  1
  N  N55  1  0.11087180  0.42726460  0.57733944  1
  N  N56  1  0.89025807  0.53548659  0.32808771  1
  N  N57  1  0.79358878  0.39793783  0.07626968  1
  N  N58  1  0.55746410  0.54088353  0.82980349  1
  N  N59  1  0.44733708  0.42516556  0.60845855  1
  N  N60  1  0.21914251  0.87457986  0.32824866  1
  N  N61  1  0.12171545  0.75359785  0.08144193  1
  N  N62  1  0.88711518  0.87759613  0.88596651  1
  N  N63  1  0.79858656  0.77456048  0.57635144  1
  N  N64  1  0.55469954  0.87487801  0.37780304  1
  N  N65  1  0.43747152  0.75921237  0.08069224  1
  N  N66  1  0.21870574  0.87202686  0.82825271  1
  N  N67  1  0.07952758  0.77920440  0.57769212  1
  N  N68  1  0.88914904  0.87233076  0.31046329  1
  N  N69  1  0.77897226  0.74931136  0.08654914  1
  N  N70  1  0.55363107  0.87326830  0.87736858  1
  N  N71  1  0.43689210  0.76127150  0.57900996  1
