# generated using pymatgen
data_Al17BN18
_symmetry_space_group_name_H-M   'P 1'
_cell_length_a   9.31191529
_cell_length_b   9.33735897
_cell_length_c   10.12142113
_cell_angle_alpha   90.03967162
_cell_angle_beta   89.73157093
_cell_angle_gamma   60.01273219
_symmetry_Int_Tables_number   1
_chemical_formula_structural   Al17BN18
_chemical_formula_sum   'Al34 B2 N36'
_cell_volume   762.22549850
_cell_formula_units_Z   2
loop_
 _symmetry_equiv_pos_site_id
 _symmetry_equiv_pos_as_xyz
  1  'x, y, z'
loop_
 _atom_site_type_symbol
 _atom_site_label
 _atom_site_symmetry_multiplicity
 _atom_site_fract_x
 _atom_site_fract_y
 _atom_site_fract_z
 _atom_site_occupancy
  Al  Al0  1  0.10706673  0.09753342  0.36355060  1
  Al  Al1  1  0.21360870  0.20485978  0.06089031  1
  Al  Al2  1  0.78006101  0.08657187  0.81230106  1
  Al  Al3  1  0.88486446  0.20464224  0.58689428  1
  Al  Al4  1  0.44701032  0.09324975  0.30728406  1
  Al  Al5  1  0.56175281  0.20774359  0.05786321  1
  Al  Al6  1  0.10765970  0.10022700  0.80677042  1
  Al  Al7  1  0.22916829  0.20800647  0.56000550  1
  Al  Al8  1  0.77896201  0.10067580  0.31049324  1
  Al  Al9  1  0.44481956  0.09421875  0.81122400  1
  Al  Al10  1  0.56233491  0.19618836  0.55785435  1
  Al  Al11  1  0.11225004  0.42915389  0.30830042  1
  Al  Al12  1  0.22844812  0.52990847  0.06083358  1
  Al  Al13  1  0.77518980  0.43204790  0.80422667  1
  Al  Al14  1  0.89214863  0.54510660  0.55848214  1
  Al  Al15  1  0.44428117  0.42801816  0.30990502  1
  Al  Al16  1  0.55895642  0.53412925  0.06167803  1
  Al  Al17  1  0.11135142  0.42762097  0.81067335  1
  Al  Al18  1  0.22130020  0.53537352  0.56199836  1
  Al  Al19  1  0.78260999  0.42252907  0.31627677  1
  Al  Al20  1  0.89110732  0.53001886  0.05837156  1
  Al  Al21  1  0.44643589  0.42687620  0.80922422  1
  Al  Al22  1  0.55702865  0.53974963  0.55502306  1
  Al  Al23  1  0.09719532  0.76972987  0.37482872  1
  Al  Al24  1  0.20843313  0.88139172  0.13708383  1
  Al  Al25  1  0.78236960  0.76274047  0.81732971  1
  Al  Al26  1  0.45167579  0.75836511  0.31224823  1
  Al  Al27  1  0.55364522  0.87025362  0.05575663  1
  Al  Al28  1  0.11028435  0.76758765  0.88710686  1
  Al  Al29  1  0.21400303  0.86744954  0.62227481  1
  Al  Al30  1  0.77651644  0.75890992  0.30224141  1
  Al  Al31  1  0.88864267  0.87617449  0.09292738  1
  Al  Al32  1  0.44940617  0.75666045  0.80776035  1
  Al  Al33  1  0.56100585  0.87381907  0.56022631  1
  B  B34  1  0.88985024  0.20800167  0.10554772  1
  B  B35  1  0.88601021  0.87112068  0.59836613  1
  N  N36  1  0.22616784  0.20881969  0.37098038  1
  N  N37  1  0.07569758  0.11492732  0.11205723  1
  N  N38  1  0.88398043  0.20740519  0.81402158  1
  N  N39  1  0.79034454  0.05728733  0.61464280  1
  N  N40  1  0.55644034  0.20509101  0.36932595  1
  N  N41  1  0.44537094  0.09374173  0.11752976  1
  N  N42  1  0.22120804  0.20419652  0.87025194  1
  N  N43  1  0.11817190  0.09379052  0.59778146  1
  N  N44  1  0.88030062  0.20920811  0.38859052  1
  N  N45  1  0.78876505  0.11995379  0.11654195  1
  N  N46  1  0.55622615  0.20527713  0.86930865  1
  N  N47  1  0.44681127  0.09392106  0.62222975  1
  N  N48  1  0.22429304  0.53654061  0.37242303  1
  N  N49  1  0.11188703  0.42641929  0.12051536  1
  N  N50  1  0.88883459  0.53763751  0.86947197  1
  N  N51  1  0.77387066  0.44172802  0.61547669  1
  N  N52  1  0.55692754  0.53784317  0.36725948  1
  N  N53  1  0.44619949  0.42585267  0.12197896  1
  N  N54  1  0.22544615  0.53330631  0.86868280  1
  N  N55  1  0.11185497  0.42705681  0.62241262  1
  N  N56  1  0.89021131  0.54039416  0.36958500  1
  N  N57  1  0.79246898  0.40043592  0.12081754  1
  N  N58  1  0.55579519  0.53873765  0.87268819  1
  N  N59  1  0.44880396  0.42514231  0.61886206  1
  N  N60  1  0.21923143  0.87267136  0.33098954  1
  N  N61  1  0.12021173  0.75862724  0.07596509  1
  N  N62  1  0.88011905  0.87739963  0.88468593  1
  N  N63  1  0.79427909  0.77385447  0.61934624  1
  N  N64  1  0.55789899  0.87287158  0.37208061  1
  N  N65  1  0.44618630  0.76001181  0.12103788  1
  N  N66  1  0.21699296  0.87007560  0.81406288  1
  N  N67  1  0.07450724  0.77798692  0.57192222  1
  N  N68  1  0.88827723  0.87412168  0.30835248  1
  N  N69  1  0.77254930  0.75208710  0.11468500  1
  N  N70  1  0.55467412  0.87129520  0.86669555  1
  N  N71  1  0.45024872  0.75827565  0.61521261  1
