# generated using pymatgen
data_Al17BN18
_symmetry_space_group_name_H-M   'P 1'
_cell_length_a   9.32858710
_cell_length_b   9.33459266
_cell_length_c   10.01934579
_cell_angle_alpha   89.93253898
_cell_angle_beta   89.87472976
_cell_angle_gamma   60.04706218
_symmetry_Int_Tables_number   1
_chemical_formula_structural   Al17BN18
_chemical_formula_sum   'Al34 B2 N36'
_cell_volume   755.93762018
_cell_formula_units_Z   2
loop_
 _symmetry_equiv_pos_site_id
 _symmetry_equiv_pos_as_xyz
  1  'x, y, z'
loop_
 _atom_site_type_symbol
 _atom_site_label
 _atom_site_symmetry_multiplicity
 _atom_site_fract_x
 _atom_site_fract_y
 _atom_site_fract_z
 _atom_site_occupancy
  Al  Al0  1  0.10154441  0.10466399  0.30790647  1
  Al  Al1  1  0.21817154  0.20661039  0.06089598  1
  Al  Al2  1  0.78213200  0.09057013  0.82345895  1
  Al  Al3  1  0.89101974  0.19794211  0.56308565  1
  Al  Al4  1  0.44635864  0.09333853  0.31087992  1
  Al  Al5  1  0.56016765  0.20751135  0.05833131  1
  Al  Al6  1  0.10565880  0.10269367  0.82220815  1
  Al  Al7  1  0.22111269  0.20468158  0.56039479  1
  Al  Al8  1  0.77833671  0.10160167  0.30278859  1
  Al  Al9  1  0.44434577  0.09529125  0.81002253  1
  Al  Al10  1  0.56143944  0.19817532  0.56180070  1
  Al  Al11  1  0.10975941  0.42849918  0.31176918  1
  Al  Al12  1  0.22935470  0.52633650  0.06291024  1
  Al  Al13  1  0.77900468  0.42506588  0.81472301  1
  Al  Al14  1  0.89005369  0.54240193  0.56224643  1
  Al  Al15  1  0.44567229  0.42679850  0.31246425  1
  Al  Al16  1  0.56115497  0.53157854  0.06012642  1
  Al  Al17  1  0.11210182  0.42792950  0.80855470  1
  Al  Al18  1  0.21316292  0.54632473  0.56047945  1
  Al  Al19  1  0.78076141  0.42301862  0.30728922  1
  Al  Al20  1  0.89054064  0.53129359  0.05782136  1
  Al  Al21  1  0.44416423  0.42816913  0.80805125  1
  Al  Al22  1  0.55681934  0.53817242  0.55926732  1
  Al  Al23  1  0.10687415  0.76242918  0.32135756  1
  Al  Al24  1  0.22014686  0.87751108  0.11677786  1
  Al  Al25  1  0.78231304  0.76356815  0.81635753  1
  Al  Al26  1  0.45090154  0.75873632  0.31071255  1
  Al  Al27  1  0.55666571  0.87038404  0.05634313  1
  Al  Al28  1  0.10959445  0.76350974  0.88322054  1
  Al  Al29  1  0.20958282  0.87221731  0.63116978  1
  Al  Al30  1  0.77595048  0.75925406  0.30554729  1
  Al  Al31  1  0.88285749  0.87851794  0.08879371  1
  Al  Al32  1  0.45162102  0.75647046  0.81260713  1
  Al  Al33  1  0.55940839  0.87474345  0.56158513  1
  B  B34  1  0.88457398  0.20977980  0.05676341  1
  B  B35  1  0.89210413  0.87068981  0.60592099  1
  N  N36  1  0.22186496  0.20517700  0.36921644  1
  N  N37  1  0.08260804  0.11338346  0.11088856  1
  N  N38  1  0.88712574  0.20791133  0.89064407  1
  N  N39  1  0.79339971  0.06503777  0.62508961  1
  N  N40  1  0.55853527  0.20414466  0.37101263  1
  N  N41  1  0.44646353  0.09324534  0.11927229  1
  N  N42  1  0.22366202  0.20731134  0.87201247  1
  N  N43  1  0.10601303  0.10250735  0.62739857  1
  N  N44  1  0.88691181  0.20653387  0.37587280  1
  N  N45  1  0.78616033  0.11805343  0.11051904  1
  N  N46  1  0.55531317  0.20674885  0.86800636  1
  N  N47  1  0.44303972  0.09541767  0.62005540  1
  N  N48  1  0.22212848  0.53925907  0.36896644  1
  N  N49  1  0.11060776  0.42643605  0.12235851  1
  N  N50  1  0.89009211  0.53820299  0.86719700  1
  N  N51  1  0.77833487  0.42524955  0.62325682  1
  N  N52  1  0.55840858  0.53739256  0.36854892  1
  N  N53  1  0.44669943  0.42546375  0.12282637  1
  N  N54  1  0.22546420  0.53281309  0.87129339  1
  N  N55  1  0.11151162  0.42731437  0.61907257  1
  N  N56  1  0.88696036  0.53907613  0.37123329  1
  N  N57  1  0.79077750  0.40310666  0.11301503  1
  N  N58  1  0.55631691  0.53643410  0.87075096  1
  N  N59  1  0.44282419  0.42850770  0.61748640  1
  N  N60  1  0.22117905  0.87563329  0.32038875  1
  N  N61  1  0.11783128  0.75468299  0.09027579  1
  N  N62  1  0.88168721  0.87592448  0.88742630  1
  N  N63  1  0.79245478  0.77644941  0.61983726  1
  N  N64  1  0.55720912  0.87196095  0.37234455  1
  N  N65  1  0.45282891  0.75551184  0.11624037  1
  N  N66  1  0.22128165  0.87101371  0.83363357  1
  N  N67  1  0.07510463  0.77809952  0.59717161  1
  N  N68  1  0.88438118  0.87644755  0.31314571  1
  N  N69  1  0.77374195  0.75160524  0.11567455  1
  N  N70  1  0.55666623  0.87270939  0.86667333  1
  N  N71  1  0.44768706  0.75939957  0.61884916  1
