# generated using pymatgen
data_Al17BN18
_symmetry_space_group_name_H-M   'P 1'
_cell_length_a   9.33116456
_cell_length_b   9.33177547
_cell_length_c   10.14608781
_cell_angle_alpha   90.06416364
_cell_angle_beta   89.74909676
_cell_angle_gamma   59.91797027
_symmetry_Int_Tables_number   1
_chemical_formula_structural   Al17BN18
_chemical_formula_sum   'Al34 B2 N36'
_cell_volume   764.47352762
_cell_formula_units_Z   2
loop_
 _symmetry_equiv_pos_site_id
 _symmetry_equiv_pos_as_xyz
  1  'x, y, z'
loop_
 _atom_site_type_symbol
 _atom_site_label
 _atom_site_symmetry_multiplicity
 _atom_site_fract_x
 _atom_site_fract_y
 _atom_site_fract_z
 _atom_site_occupancy
  Al  Al0  1  0.11333666  0.09403818  0.39426084  1
  Al  Al1  1  0.20932800  0.21017449  0.13529339  1
  Al  Al2  1  0.78273545  0.08300263  0.81292742  1
  Al  Al3  1  0.89099833  0.20320253  0.60532253  1
  Al  Al4  1  0.44892059  0.09409008  0.31810428  1
  Al  Al5  1  0.56625955  0.20054805  0.06321947  1
  Al  Al6  1  0.10195321  0.09784857  0.88061258  1
  Al  Al7  1  0.21572976  0.21102720  0.64163560  1
  Al  Al8  1  0.78139094  0.10357290  0.31384060  1
  Al  Al9  1  0.45198011  0.09063636  0.81779252  1
  Al  Al10  1  0.56520699  0.19204086  0.56429348  1
  Al  Al11  1  0.11075859  0.42625738  0.38927859  1
  Al  Al12  1  0.22525707  0.53556972  0.14178720  1
  Al  Al13  1  0.78088266  0.42190579  0.87839184  1
  Al  Al14  1  0.88988015  0.54827866  0.64050839  1
  Al  Al15  1  0.44249104  0.43369864  0.38848052  1
  Al  Al16  1  0.55944260  0.53028167  0.13699241  1
  Al  Al17  1  0.11147275  0.42880324  0.88924173  1
  Al  Al18  1  0.21648913  0.54323741  0.63644235  1
  Al  Al19  1  0.77540180  0.43201611  0.39510720  1
  Al  Al20  1  0.89206522  0.52793308  0.14043830  1
  Al  Al21  1  0.44042472  0.43339037  0.88529164  1
  Al  Al22  1  0.55363533  0.54175798  0.64220627  1
  Al  Al23  1  0.10167027  0.76759040  0.38095562  1
  Al  Al24  1  0.21455448  0.87564696  0.14007529  1
  Al  Al25  1  0.78037873  0.75819787  0.89350260  1
  Al  Al26  1  0.43993755  0.75880569  0.38733550  1
  Al  Al27  1  0.55395483  0.87042417  0.09378664  1
  Al  Al28  1  0.11330426  0.75970596  0.89413744  1
  Al  Al29  1  0.21440400  0.87502186  0.64037993  1
  Al  Al30  1  0.78521384  0.76258118  0.37602293  1
  Al  Al31  1  0.89359636  0.87220284  0.10753893  1
  Al  Al32  1  0.44065267  0.76146639  0.88707857  1
  Al  Al33  1  0.55681995  0.87586283  0.58154009  1
  B  B34  1  0.88641929  0.20813600  0.09484160  1
  B  B35  1  0.88875051  0.87119888  0.59524797  1
  N  N36  1  0.21498657  0.20786639  0.32489559  1
  N  N37  1  0.07850887  0.10901092  0.07742717  1
  N  N38  1  0.88857709  0.20796759  0.81025906  1
  N  N39  1  0.79296071  0.05606767  0.61972525  1
  N  N40  1  0.56073891  0.20068382  0.37514768  1
  N  N41  1  0.44992202  0.09468524  0.12666424  1
  N  N42  1  0.21751610  0.20771934  0.83274097  1
  N  N43  1  0.12283967  0.09020679  0.58071026  1
  N  N44  1  0.88513132  0.20433069  0.38866663  1
  N  N45  1  0.79138601  0.11939046  0.12078369  1
  N  N46  1  0.56198933  0.20029674  0.87422896  1
  N  N47  1  0.44682919  0.09705700  0.62715991  1
  N  N48  1  0.22133269  0.53930069  0.33081720  1
  N  N49  1  0.11201887  0.42832291  0.07737121  1
  N  N50  1  0.89001218  0.53997721  0.82841004  1
  N  N51  1  0.77216010  0.44455481  0.58271323  1
  N  N52  1  0.55750876  0.53760648  0.32448142  1
  N  N53  1  0.44207162  0.43061398  0.07657069  1
  N  N54  1  0.22030336  0.54088681  0.82437953  1
  N  N55  1  0.11053414  0.42877864  0.57721772  1
  N  N56  1  0.88940549  0.53633033  0.32799665  1
  N  N57  1  0.79343217  0.39756550  0.07622552  1
  N  N58  1  0.55507296  0.53948210  0.82981737  1
  N  N59  1  0.44355672  0.43174221  0.57944699  1
  N  N60  1  0.21926741  0.87473676  0.32759433  1
  N  N61  1  0.12341728  0.75220329  0.08119937  1
  N  N62  1  0.88683032  0.87809148  0.88774970  1
  N  N63  1  0.79810437  0.77436699  0.57592139  1
  N  N64  1  0.55475453  0.87336402  0.37032012  1
  N  N65  1  0.43896099  0.75855626  0.07965586  1
  N  N66  1  0.21923512  0.87229957  0.82824924  1
  N  N67  1  0.08010034  0.77776508  0.57747590  1
  N  N68  1  0.88931176  0.87176693  0.30978793  1
  N  N69  1  0.77938971  0.74824979  0.08512793  1
  N  N70  1  0.55679892  0.86958678  0.85731073  1
  N  N71  1  0.43707564  0.75954621  0.57840765  1
