# generated using pymatgen
data_Al17BN18
_symmetry_space_group_name_H-M   'P 1'
_cell_length_a   9.34345640
_cell_length_b   9.33018670
_cell_length_c   10.19715630
_cell_angle_alpha   89.96081761
_cell_angle_beta   89.73003133
_cell_angle_gamma   59.82754962
_symmetry_Int_Tables_number   1
_chemical_formula_structural   Al17BN18
_chemical_formula_sum   'Al34 B2 N36'
_cell_volume   768.50137759
_cell_formula_units_Z   2
loop_
 _symmetry_equiv_pos_site_id
 _symmetry_equiv_pos_as_xyz
  1  'x, y, z'
loop_
 _atom_site_type_symbol
 _atom_site_label
 _atom_site_symmetry_multiplicity
 _atom_site_fract_x
 _atom_site_fract_y
 _atom_site_fract_z
 _atom_site_occupancy
  Al  Al0  1  0.11391117  0.09399124  0.39483545  1
  Al  Al1  1  0.20983438  0.20986109  0.13594812  1
  Al  Al2  1  0.78316094  0.08272517  0.81290425  1
  Al  Al3  1  0.89128127  0.20282803  0.60580635  1
  Al  Al4  1  0.45129060  0.09043500  0.31483286  1
  Al  Al5  1  0.56174956  0.20894132  0.06348174  1
  Al  Al6  1  0.10158490  0.09766438  0.88167297  1
  Al  Al7  1  0.21720367  0.20953758  0.64305728  1
  Al  Al8  1  0.78207465  0.10328823  0.31436406  1
  Al  Al9  1  0.45222892  0.08870315  0.81974917  1
  Al  Al10  1  0.56191098  0.19691782  0.56474476  1
  Al  Al11  1  0.11126119  0.42491287  0.39053092  1
  Al  Al12  1  0.21815632  0.53887126  0.14211453  1
  Al  Al13  1  0.78116067  0.42163514  0.88002327  1
  Al  Al14  1  0.89039564  0.54864340  0.64087699  1
  Al  Al15  1  0.44728650  0.42316397  0.32979037  1
  Al  Al16  1  0.56207960  0.53461604  0.13734600  1
  Al  Al17  1  0.11128398  0.42831789  0.89010147  1
  Al  Al18  1  0.21126666  0.54618628  0.63420433  1
  Al  Al19  1  0.77687812  0.43158415  0.39632525  1
  Al  Al20  1  0.89108346  0.52897760  0.14131469  1
  Al  Al21  1  0.44628561  0.42154596  0.82108543  1
  Al  Al22  1  0.55790254  0.54499237  0.64032135  1
  Al  Al23  1  0.10109165  0.76853352  0.38299796  1
  Al  Al24  1  0.21451360  0.87540436  0.14134260  1
  Al  Al25  1  0.78424674  0.75586260  0.89511636  1
  Al  Al26  1  0.43938655  0.75848431  0.38829860  1
  Al  Al27  1  0.55082876  0.87624017  0.07129027  1
  Al  Al28  1  0.11338592  0.75910779  0.89524834  1
  Al  Al29  1  0.21461681  0.87524278  0.64114551  1
  Al  Al30  1  0.78628076  0.76154026  0.37447280  1
  Al  Al31  1  0.89179539  0.87348528  0.10939672  1
  Al  Al32  1  0.43768898  0.75883893  0.88964758  1
  Al  Al33  1  0.55593585  0.87972585  0.56915514  1
  B  B34  1  0.88634043  0.20777681  0.09529217  1
  B  B35  1  0.88754080  0.87246123  0.59590401  1
  N  N36  1  0.21658423  0.20669202  0.32482023  1
  N  N37  1  0.07859041  0.10896431  0.07774896  1
  N  N38  1  0.88834063  0.20805505  0.81080644  1
  N  N39  1  0.79180191  0.05743421  0.62038030  1
  N  N40  1  0.55987325  0.20043660  0.37819288  1
  N  N41  1  0.45047842  0.09458861  0.12631682  1
  N  N42  1  0.21755168  0.20710990  0.83327382  1
  N  N43  1  0.12320659  0.09042686  0.58086795  1
  N  N44  1  0.88568286  0.20370133  0.38903261  1
  N  N45  1  0.79131117  0.11938808  0.12094086  1
  N  N46  1  0.56037163  0.20236199  0.87709978  1
  N  N47  1  0.44978650  0.09401914  0.63145844  1
  N  N48  1  0.21550354  0.54245411  0.33423090  1
  N  N49  1  0.11064802  0.42830601  0.07712147  1
  N  N50  1  0.88949971  0.53980618  0.82817755  1
  N  N51  1  0.77495240  0.44383041  0.58239814  1
  N  N52  1  0.56151902  0.54036470  0.32726406  1
  N  N53  1  0.44618688  0.42250761  0.12530291  1
  N  N54  1  0.21466172  0.54312505  0.82467352  1
  N  N55  1  0.11092225  0.42713009  0.57734200  1
  N  N56  1  0.89043651  0.53529658  0.32809513  1
  N  N57  1  0.79360254  0.39791796  0.07612284  1
  N  N58  1  0.55752530  0.54090232  0.83071213  1
  N  N59  1  0.44867390  0.42274767  0.61935971  1
  N  N60  1  0.21920847  0.87453513  0.32821754  1
  N  N61  1  0.12184128  0.75368185  0.08115868  1
  N  N62  1  0.88688712  0.87789758  0.88631300  1
  N  N63  1  0.79864442  0.77452653  0.57636149  1
  N  N64  1  0.55467835  0.87488412  0.37809301  1
  N  N65  1  0.43724873  0.75928827  0.08045996  1
  N  N66  1  0.21865428  0.87210082  0.82822021  1
  N  N67  1  0.07942770  0.77945779  0.57772608  1
  N  N68  1  0.88921011  0.87223721  0.31040356  1
  N  N69  1  0.77899217  0.74917713  0.08650447  1
  N  N70  1  0.55352954  0.87346727  0.87762678  1
  N  N71  1  0.43678185  0.76126609  0.57900544  1
