# generated using pymatgen
data_Al17BN18
_symmetry_space_group_name_H-M   'P 1'
_cell_length_a   9.30030114
_cell_length_b   9.31625452
_cell_length_c   10.13393942
_cell_angle_alpha   90.00882730
_cell_angle_beta   89.78050737
_cell_angle_gamma   60.07901313
_symmetry_Int_Tables_number   1
_chemical_formula_structural   Al17BN18
_chemical_formula_sum   'Al34 B2 N36'
_cell_volume   761.00603664
_cell_formula_units_Z   2
loop_
 _symmetry_equiv_pos_site_id
 _symmetry_equiv_pos_as_xyz
  1  'x, y, z'
loop_
 _atom_site_type_symbol
 _atom_site_label
 _atom_site_symmetry_multiplicity
 _atom_site_fract_x
 _atom_site_fract_y
 _atom_site_fract_z
 _atom_site_occupancy
  Al  Al0  1  0.10257711  0.10537490  0.31914236  1
  Al  Al1  1  0.21572697  0.20519229  0.06071201  1
  Al  Al2  1  0.78206887  0.08944269  0.81710439  1
  Al  Al3  1  0.89016739  0.20082901  0.56793608  1
  Al  Al4  1  0.44689429  0.09379270  0.30838166  1
  Al  Al5  1  0.56099462  0.20753570  0.05703510  1
  Al  Al6  1  0.10467014  0.10157363  0.80989549  1
  Al  Al7  1  0.22434136  0.20503380  0.55788129  1
  Al  Al8  1  0.77773930  0.10109016  0.30710260  1
  Al  Al9  1  0.44365109  0.09434321  0.81047081  1
  Al  Al10  1  0.56154926  0.19732703  0.55958364  1
  Al  Al11  1  0.11150302  0.43111857  0.30931107  1
  Al  Al12  1  0.22850685  0.52866956  0.06018842  1
  Al  Al13  1  0.77813102  0.42578895  0.80879088  1
  Al  Al14  1  0.89178047  0.54336915  0.56015962  1
  Al  Al15  1  0.44381381  0.42878791  0.31041003  1
  Al  Al16  1  0.55966835  0.53305780  0.06031547  1
  Al  Al17  1  0.11147413  0.42605572  0.80986849  1
  Al  Al18  1  0.22052373  0.53576413  0.56217396  1
  Al  Al19  1  0.78079133  0.42483138  0.31292587  1
  Al  Al20  1  0.89099122  0.53062625  0.05705781  1
  Al  Al21  1  0.44568727  0.42684233  0.80901580  1
  Al  Al22  1  0.55786149  0.53815662  0.55694903  1
  Al  Al23  1  0.09764588  0.77269568  0.37563881  1
  Al  Al24  1  0.21390203  0.87358870  0.13356175  1
  Al  Al25  1  0.78179994  0.76326604  0.81679386  1
  Al  Al26  1  0.45148632  0.75895321  0.31301747  1
  Al  Al27  1  0.55449427  0.87004452  0.05557043  1
  Al  Al28  1  0.11009552  0.76621357  0.88613138  1
  Al  Al29  1  0.21304118  0.87072445  0.62502209  1
  Al  Al30  1  0.77685031  0.75937232  0.30272090  1
  Al  Al31  1  0.88820089  0.87609641  0.09140431  1
  Al  Al32  1  0.44991763  0.75604972  0.80843315  1
  Al  Al33  1  0.56068119  0.87466159  0.56003550  1
  B  B34  1  0.88612140  0.20959393  0.09130496  1
  B  B35  1  0.88716462  0.87276724  0.60002170  1
  N  N36  1  0.22371059  0.20800928  0.36901344  1
  N  N37  1  0.07817458  0.11443120  0.12171738  1
  N  N38  1  0.88602927  0.20719677  0.85746847  1
  N  N39  1  0.79267025  0.06184576  0.61800356  1
  N  N40  1  0.55698575  0.20559255  0.37060939  1
  N  N41  1  0.44595037  0.09328419  0.11862909  1
  N  N42  1  0.22170097  0.20379728  0.87272036  1
  N  N43  1  0.11167405  0.09953411  0.61601183  1
  N  N44  1  0.88475625  0.20788113  0.38044992  1
  N  N45  1  0.78748892  0.11936048  0.11536355  1
  N  N46  1  0.55564520  0.20510589  0.86874460  1
  N  N47  1  0.44443584  0.09481330  0.62112933  1
  N  N48  1  0.22385096  0.53828083  0.37302469  1
  N  N49  1  0.11119639  0.42656101  0.12141550  1
  N  N50  1  0.88871173  0.53803078  0.86833799  1
  N  N51  1  0.77738129  0.43158723  0.61869078  1
  N  N52  1  0.55744171  0.53782621  0.36876935  1
  N  N53  1  0.44608446  0.42566893  0.12236961  1
  N  N54  1  0.22522731  0.53205121  0.86848459  1
  N  N55  1  0.11189234  0.42594820  0.62150816  1
  N  N56  1  0.88899781  0.54066711  0.37093906  1
  N  N57  1  0.79176743  0.40142047  0.11909768  1
  N  N58  1  0.55594845  0.53788321  0.87207602  1
  N  N59  1  0.44728417  0.42593786  0.61932370  1
  N  N60  1  0.21954794  0.87434313  0.32808691  1
  N  N61  1  0.11940675  0.75725953  0.07467997  1
  N  N62  1  0.88007128  0.87698499  0.88409774  1
  N  N63  1  0.79410919  0.77551159  0.61929468  1
  N  N64  1  0.55838972  0.87308589  0.37229549  1
  N  N65  1  0.44914011  0.75754660  0.12084997  1
  N  N66  1  0.21841594  0.86870379  0.81726300  1
  N  N67  1  0.07472610  0.77974762  0.57282613  1
  N  N68  1  0.88863145  0.87463270  0.30912462  1
  N  N69  1  0.77304385  0.75199077  0.11512577  1
  N  N70  1  0.55475091  0.87143556  0.86693631  1
  N  N71  1  0.45095437  0.75805786  0.61574714  1
