# generated using pymatgen
data_Al17BN18
_symmetry_space_group_name_H-M   'P 1'
_cell_length_a   9.31964305
_cell_length_b   9.35496281
_cell_length_c   10.15753954
_cell_angle_alpha   90.00208563
_cell_angle_beta   89.47127105
_cell_angle_gamma   59.92812684
_symmetry_Int_Tables_number   1
_chemical_formula_structural   Al17BN18
_chemical_formula_sum   'Al34 B2 N36'
_cell_volume   766.33862885
_cell_formula_units_Z   2
loop_
 _symmetry_equiv_pos_site_id
 _symmetry_equiv_pos_as_xyz
  1  'x, y, z'
loop_
 _atom_site_type_symbol
 _atom_site_label
 _atom_site_symmetry_multiplicity
 _atom_site_fract_x
 _atom_site_fract_y
 _atom_site_fract_z
 _atom_site_occupancy
  Al  Al0  1  0.11447209  0.09301838  0.39881604  1
  Al  Al1  1  0.21487167  0.20387497  0.13690066  1
  Al  Al2  1  0.78164186  0.08616757  0.82194516  1
  Al  Al3  1  0.88806376  0.20293583  0.60179883  1
  Al  Al4  1  0.45271502  0.08912723  0.32000538  1
  Al  Al5  1  0.56197852  0.20875438  0.06829282  1
  Al  Al6  1  0.09930567  0.10046745  0.88985949  1
  Al  Al7  1  0.22171669  0.19881734  0.64411942  1
  Al  Al8  1  0.78249357  0.09937541  0.32150777  1
  Al  Al9  1  0.45136158  0.09159892  0.82574991  1
  Al  Al10  1  0.56254880  0.19466861  0.56812869  1
  Al  Al11  1  0.10809513  0.43241177  0.32732833  1
  Al  Al12  1  0.22603999  0.53771030  0.10534117  1
  Al  Al13  1  0.77613555  0.43111315  0.81419430  1
  Al  Al14  1  0.89031074  0.54510641  0.56854831  1
  Al  Al15  1  0.44756172  0.42610751  0.32699216  1
  Al  Al16  1  0.55955619  0.53443833  0.07219766  1
  Al  Al17  1  0.10655701  0.43392590  0.82175464  1
  Al  Al18  1  0.21961452  0.53966086  0.59515393  1
  Al  Al19  1  0.78325412  0.42062443  0.32765031  1
  Al  Al20  1  0.89097717  0.53104034  0.06822375  1
  Al  Al21  1  0.44882528  0.42670033  0.81776486  1
  Al  Al22  1  0.55646869  0.54110736  0.56670256  1
  Al  Al23  1  0.09794398  0.77061078  0.38966394  1
  Al  Al24  1  0.20846221  0.88104585  0.14548734  1
  Al  Al25  1  0.78263598  0.76314820  0.82756514  1
  Al  Al26  1  0.44854979  0.75974325  0.32212733  1
  Al  Al27  1  0.55569754  0.86946911  0.06658705  1
  Al  Al28  1  0.11217833  0.76248118  0.89640118  1
  Al  Al29  1  0.20769632  0.87691603  0.64593414  1
  Al  Al30  1  0.77619512  0.75903993  0.31369266  1
  Al  Al31  1  0.88725603  0.87586738  0.10220030  1
  Al  Al32  1  0.44816609  0.75802105  0.82221008  1
  Al  Al33  1  0.55903799  0.87307574  0.57237398  1
  B  B34  1  0.88553521  0.20982051  0.10909209  1
  B  B35  1  0.88568331  0.87177195  0.61044693  1
  N  N36  1  0.21991493  0.20076507  0.32996647  1
  N  N37  1  0.07709140  0.11186302  0.08454314  1
  N  N38  1  0.88921092  0.20467518  0.82140517  1
  N  N39  1  0.79069179  0.05739286  0.62640446  1
  N  N40  1  0.55854599  0.20247191  0.38073244  1
  N  N41  1  0.45438846  0.09062018  0.12737466  1
  N  N42  1  0.21961758  0.20338568  0.84099435  1
  N  N43  1  0.12123212  0.08795658  0.58317799  1
  N  N44  1  0.88166527  0.20860264  0.39602212  1
  N  N45  1  0.79081890  0.11930264  0.12585888  1
  N  N46  1  0.55771330  0.20696849  0.88134362  1
  N  N47  1  0.45212017  0.09026591  0.63416493  1
  N  N48  1  0.22347540  0.53881465  0.37772762  1
  N  N49  1  0.10714081  0.43354322  0.13200542  1
  N  N50  1  0.88644420  0.53891037  0.88126191  1
  N  N51  1  0.77344078  0.44137331  0.62700964  1
  N  N52  1  0.55684271  0.53980354  0.37903610  1
  N  N53  1  0.44995729  0.42507643  0.13657537  1
  N  N54  1  0.22233371  0.54241611  0.84922229  1
  N  N55  1  0.10698131  0.42757382  0.62846951  1
  N  N56  1  0.88610781  0.54186068  0.38128436  1
  N  N57  1  0.79492088  0.39834384  0.13022614  1
  N  N58  1  0.55658623  0.53821775  0.88453633  1
  N  N59  1  0.45459444  0.42113880  0.62736601  1
  N  N60  1  0.21432759  0.87634087  0.33389873  1
  N  N61  1  0.11959623  0.75923503  0.08411958  1
  N  N62  1  0.88000395  0.87773294  0.89636038  1
  N  N63  1  0.79442164  0.77373107  0.63060040  1
  N  N64  1  0.55696129  0.87104031  0.38451490  1
  N  N65  1  0.44669550  0.76019284  0.13083467  1
  N  N66  1  0.21409544  0.87738899  0.83442890  1
  N  N67  1  0.07515805  0.78062416  0.58594243  1
  N  N68  1  0.88930563  0.87288273  0.31941690  1
  N  N69  1  0.77299075  0.75150304  0.12667390  1
  N  N70  1  0.55622355  0.87015818  0.87946262  1
  N  N71  1  0.44651941  0.75919379  0.63084868  1
