# generated using pymatgen
data_Al17BN18
_symmetry_space_group_name_H-M   'P 1'
_cell_length_a   9.34045100
_cell_length_b   9.34177343
_cell_length_c   10.21800303
_cell_angle_alpha   90.02587534
_cell_angle_beta   89.74374292
_cell_angle_gamma   59.89577810
_symmetry_Int_Tables_number   1
_chemical_formula_structural   Al17BN18
_chemical_formula_sum   'Al34 B2 N36'
_cell_volume   771.31242179
_cell_formula_units_Z   2
loop_
 _symmetry_equiv_pos_site_id
 _symmetry_equiv_pos_as_xyz
  1  'x, y, z'
loop_
 _atom_site_type_symbol
 _atom_site_label
 _atom_site_symmetry_multiplicity
 _atom_site_fract_x
 _atom_site_fract_y
 _atom_site_fract_z
 _atom_site_occupancy
  Al  Al0  1  0.11436067  0.09382363  0.39620859  1
  Al  Al1  1  0.21024168  0.20995947  0.13661077  1
  Al  Al2  1  0.78307776  0.08271791  0.81336809  1
  Al  Al3  1  0.89163809  0.20224043  0.60626105  1
  Al  Al4  1  0.45169349  0.09111425  0.31506315  1
  Al  Al5  1  0.56158202  0.20803285  0.06368732  1
  Al  Al6  1  0.10041699  0.09921755  0.88262656  1
  Al  Al7  1  0.21764740  0.20976041  0.64334161  1
  Al  Al8  1  0.78301747  0.10242354  0.31541237  1
  Al  Al9  1  0.45200783  0.09035741  0.81988223  1
  Al  Al10  1  0.56179176  0.19659831  0.56469391  1
  Al  Al11  1  0.11170754  0.42493721  0.39094893  1
  Al  Al12  1  0.21637380  0.53964127  0.14229888  1
  Al  Al13  1  0.78184353  0.42092908  0.88105438  1
  Al  Al14  1  0.89003696  0.54926345  0.64114789  1
  Al  Al15  1  0.44845878  0.42045216  0.32293019  1
  Al  Al16  1  0.56535619  0.52980437  0.13362212  1
  Al  Al17  1  0.11083357  0.42886911  0.89026964  1
  Al  Al18  1  0.21083658  0.54654362  0.63520179  1
  Al  Al19  1  0.77772939  0.43025885  0.39733869  1
  Al  Al20  1  0.89069448  0.52948725  0.14218044  1
  Al  Al21  1  0.44648051  0.42010899  0.81889183  1
  Al  Al22  1  0.56111491  0.54006210  0.63915781  1
  Al  Al23  1  0.10200799  0.76745582  0.38398293  1
  Al  Al24  1  0.20834822  0.87952581  0.14036080  1
  Al  Al25  1  0.78452360  0.75564543  0.89680890  1
  Al  Al26  1  0.44568897  0.76261417  0.32829116  1
  Al  Al27  1  0.54809065  0.87510418  0.07021130  1
  Al  Al28  1  0.11314704  0.75918167  0.89622357  1
  Al  Al29  1  0.21075869  0.87756590  0.64106200  1
  Al  Al30  1  0.78690139  0.76106351  0.37695841  1
  Al  Al31  1  0.89053112  0.87328864  0.11035455  1
  Al  Al32  1  0.44246628  0.76486484  0.83679650  1
  Al  Al33  1  0.55150347  0.87829257  0.56816273  1
  B  B34  1  0.88640777  0.20755800  0.09582624  1
  B  B35  1  0.88651372  0.87253806  0.59613362  1
  N  N36  1  0.21692196  0.20656605  0.32524214  1
  N  N37  1  0.07789499  0.11001827  0.07793681  1
  N  N38  1  0.88796407  0.20833558  0.81110138  1
  N  N39  1  0.79181560  0.05715809  0.62089711  1
  N  N40  1  0.56003133  0.20050431  0.37861139  1
  N  N41  1  0.45109474  0.09405893  0.12676983  1
  N  N42  1  0.21728582  0.20774162  0.83336346  1
  N  N43  1  0.12323985  0.09110432  0.58130012  1
  N  N44  1  0.88638154  0.20287694  0.39005318  1
  N  N45  1  0.79124112  0.11935254  0.12194544  1
  N  N46  1  0.56016633  0.20260880  0.87811065  1
  N  N47  1  0.45042687  0.09350737  0.63168488  1
  N  N48  1  0.21597005  0.54197710  0.33390110  1
  N  N49  1  0.11016991  0.42809045  0.07721455  1
  N  N50  1  0.88857488  0.54059700  0.82832137  1
  N  N51  1  0.77692408  0.44206180  0.58281334  1
  N  N52  1  0.56519111  0.53382042  0.32822122  1
  N  N53  1  0.44588626  0.42062615  0.12807093  1
  N  N54  1  0.21423109  0.54358935  0.82526859  1
  N  N55  1  0.11102326  0.42733230  0.57766069  1
  N  N56  1  0.89025546  0.53537398  0.32880204  1
  N  N57  1  0.79509447  0.39669708  0.07607648  1
  N  N58  1  0.55899628  0.53668885  0.83614954  1
  N  N59  1  0.44962188  0.42039931  0.62398897  1
  N  N60  1  0.21414907  0.87722494  0.32942270  1
  N  N61  1  0.12107267  0.75354019  0.08118744  1
  N  N62  1  0.88602755  0.87832656  0.88679281  1
  N  N63  1  0.79745826  0.77492383  0.57605578  1
  N  N64  1  0.55323300  0.87471221  0.37991904  1
  N  N65  1  0.44088106  0.76343277  0.11919182  1
  N  N66  1  0.21254131  0.87601274  0.83060712  1
  N  N67  1  0.07913404  0.77911508  0.57814921  1
  N  N68  1  0.88916419  0.87151570  0.31109551  1
  N  N69  1  0.77825037  0.74898293  0.08641833  1
  N  N70  1  0.55160764  0.87541112  0.88146599  1
  N  N71  1  0.44198621  0.76554389  0.61938743  1
