# generated using pymatgen
data_Al17BN18
_symmetry_space_group_name_H-M   'P 1'
_cell_length_a   9.31217977
_cell_length_b   9.33794071
_cell_length_c   10.12476160
_cell_angle_alpha   90.03995915
_cell_angle_beta   89.70609248
_cell_angle_gamma   59.99677446
_symmetry_Int_Tables_number   1
_chemical_formula_structural   Al17BN18
_chemical_formula_sum   'Al34 B2 N36'
_cell_volume   762.42124344
_cell_formula_units_Z   2
loop_
 _symmetry_equiv_pos_site_id
 _symmetry_equiv_pos_as_xyz
  1  'x, y, z'
loop_
 _atom_site_type_symbol
 _atom_site_label
 _atom_site_symmetry_multiplicity
 _atom_site_fract_x
 _atom_site_fract_y
 _atom_site_fract_z
 _atom_site_occupancy
  Al  Al0  1  0.10883045  0.09473689  0.37816505  1
  Al  Al1  1  0.21372575  0.20504193  0.06060537  1
  Al  Al2  1  0.77977617  0.08620043  0.81185713  1
  Al  Al3  1  0.88382694  0.20526883  0.58908610  1
  Al  Al4  1  0.44659751  0.09331741  0.30724961  1
  Al  Al5  1  0.56187961  0.20766655  0.05801070  1
  Al  Al6  1  0.10714692  0.09969815  0.81355276  1
  Al  Al7  1  0.23020511  0.20896045  0.56087805  1
  Al  Al8  1  0.77940312  0.10078109  0.31027508  1
  Al  Al9  1  0.44538715  0.09409818  0.81111430  1
  Al  Al10  1  0.56260215  0.19607786  0.55738459  1
  Al  Al11  1  0.11235061  0.42846178  0.30835532  1
  Al  Al12  1  0.22846007  0.53003812  0.06115393  1
  Al  Al13  1  0.77488643  0.43285124  0.80385000  1
  Al  Al14  1  0.89208903  0.54529338  0.55812376  1
  Al  Al15  1  0.44440525  0.42789958  0.30983242  1
  Al  Al16  1  0.55887420  0.53428862  0.06185586  1
  Al  Al17  1  0.11134155  0.42810917  0.81059495  1
  Al  Al18  1  0.22135393  0.53560072  0.56172635  1
  Al  Al19  1  0.78321640  0.42168952  0.31606669  1
  Al  Al20  1  0.89110734  0.52988393  0.05853673  1
  Al  Al21  1  0.44649138  0.42688107  0.80917484  1
  Al  Al22  1  0.55690660  0.53997635  0.55464979  1
  Al  Al23  1  0.09723225  0.76963455  0.37429442  1
  Al  Al24  1  0.20712757  0.88342434  0.13712949  1
  Al  Al25  1  0.78250468  0.76264749  0.81729213  1
  Al  Al26  1  0.45122732  0.75856383  0.31179750  1
  Al  Al27  1  0.55357804  0.87024229  0.05585183  1
  Al  Al28  1  0.11029330  0.76744304  0.88755577  1
  Al  Al29  1  0.21375131  0.86742029  0.62314594  1
  Al  Al30  1  0.77641145  0.75882033  0.30218466  1
  Al  Al31  1  0.88864670  0.87616365  0.09324745  1
  Al  Al32  1  0.44970340  0.75659817  0.80775516  1
  Al  Al33  1  0.56104091  0.87365845  0.56008357  1
  B  B34  1  0.89045868  0.20749295  0.10407292  1
  B  B35  1  0.88597215  0.87099286  0.59824799  1
  N  N36  1  0.22621923  0.20870124  0.37148924  1
  N  N37  1  0.07517675  0.11434739  0.10299879  1
  N  N38  1  0.88382980  0.20743690  0.81000367  1
  N  N39  1  0.79011845  0.05697155  0.61461237  1
  N  N40  1  0.55648509  0.20492363  0.36908561  1
  N  N41  1  0.44526697  0.09380641  0.11740088  1
  N  N42  1  0.22180486  0.20469771  0.86944465  1
  N  N43  1  0.11867389  0.09258212  0.59168380  1
  N  N44  1  0.87998477  0.20920263  0.38888514  1
  N  N45  1  0.78874780  0.11979241  0.11634309  1
  N  N46  1  0.55640396  0.20535314  0.86936873  1
  N  N47  1  0.44738988  0.09370621  0.62241823  1
  N  N48  1  0.22425036  0.53642558  0.37229912  1
  N  N49  1  0.11195493  0.42633649  0.12053047  1
  N  N50  1  0.88895661  0.53750602  0.86957425  1
  N  N51  1  0.77347598  0.44270789  0.61540843  1
  N  N52  1  0.55689656  0.53795745  0.36702325  1
  N  N53  1  0.44624706  0.42583644  0.12194893  1
  N  N54  1  0.22556004  0.53342842  0.86881784  1
  N  N55  1  0.11169369  0.42757743  0.62259036  1
  N  N56  1  0.89020303  0.54030266  0.36943565  1
  N  N57  1  0.79254793  0.40029957  0.12052467  1
  N  N58  1  0.55580849  0.53873218  0.87271038  1
  N  N59  1  0.44891777  0.42509283  0.61879518  1
  N  N60  1  0.21836969  0.87370970  0.33035202  1
  N  N61  1  0.12031153  0.75874906  0.07617203  1
  N  N62  1  0.88026307  0.87736321  0.88454324  1
  N  N63  1  0.79430791  0.77372568  0.61931253  1
  N  N64  1  0.55766525  0.87280252  0.37205231  1
  N  N65  1  0.44570488  0.76037261  0.12083095  1
  N  N66  1  0.21676316  0.87037760  0.81395550  1
  N  N67  1  0.07459643  0.77803212  0.57187833  1
  N  N68  1  0.88811117  0.87406051  0.30829729  1
  N  N69  1  0.77251873  0.75207809  0.11461841  1
  N  N70  1  0.55473196  0.87129789  0.86671468  1
  N  N71  1  0.44993883  0.75842912  0.61541578  1
