# generated using pymatgen
data_Al17BN18
_symmetry_space_group_name_H-M   'P 1'
_cell_length_a   9.30053743
_cell_length_b   9.29830610
_cell_length_c   9.94034441
_cell_angle_alpha   90.00000132
_cell_angle_beta   90.03194890
_cell_angle_gamma   60.00793744
_symmetry_Int_Tables_number   1
_chemical_formula_structural   Al17BN18
_chemical_formula_sum   'Al34 B2 N36'
_cell_volume   744.52380500
_cell_formula_units_Z   2
loop_
 _symmetry_equiv_pos_site_id
 _symmetry_equiv_pos_as_xyz
  1  'x, y, z'
loop_
 _atom_site_type_symbol
 _atom_site_label
 _atom_site_symmetry_multiplicity
 _atom_site_fract_x
 _atom_site_fract_y
 _atom_site_fract_z
 _atom_site_occupancy
  Al  Al0  1  0.10841939  0.09559487  0.39713021  1
  Al  Al1  1  0.21709049  0.20741461  0.15410041  1
  Al  Al2  1  0.78171970  0.09439584  0.90177533  1
  Al  Al3  1  0.89029942  0.19999573  0.65235746  1
  Al  Al4  1  0.44447445  0.09478827  0.40388309  1
  Al  Al5  1  0.56082266  0.20654320  0.15421122  1
  Al  Al6  1  0.10550105  0.09713479  0.90847082  1
  Al  Al7  1  0.22100244  0.20463986  0.65403494  1
  Al  Al8  1  0.78171974  0.09055153  0.40177518  1
  Al  Al9  1  0.44441549  0.09421101  0.90469895  1
  Al  Al10  1  0.56082316  0.19930083  0.65421115  1
  Al  Al11  1  0.11080443  0.42809798  0.40419503  1
  Al  Al12  1  0.22100234  0.54102458  0.15403495  1
  Al  Al13  1  0.78074166  0.42209489  0.90798409  1
  Al  Al14  1  0.88961668  0.54103047  0.65374087  1
  Al  Al15  1  0.44441539  0.42804010  0.40469905  1
  Al  Al16  1  0.55900211  0.53388066  0.15400935  1
  Al  Al17  1  0.11080428  0.42776380  0.90419517  1
  Al  Al18  1  0.21709062  0.54216163  0.65410044  1
  Al  Al19  1  0.77894250  0.42517706  0.39723021  1
  Al  Al20  1  0.88961626  0.53601957  0.15374086  1
  Al  Al21  1  0.44447407  0.42740377  0.90388315  1
  Al  Al22  1  0.55729515  0.53758029  0.65450699  1
  Al  Al23  1  0.10550123  0.76403039  0.40847074  1
  Al  Al24  1  0.21611705  0.87502421  0.15382730  1
  Al  Al25  1  0.77894270  0.76254709  0.89723000  1
  Al  Al26  1  0.44435768  0.76075319  0.40392340  1
  Al  Al27  1  0.55729549  0.87179119  0.15450686  1
  Al  Al28  1  0.10841913  0.76265217  0.89713020  1
  Al  Al29  1  0.21611732  0.87552599  0.65382735  1
  Al  Al30  1  0.78074229  0.76382989  0.40798414  1
  Al  Al31  1  0.89029905  0.87637180  0.15235743  1
  Al  Al32  1  0.44435757  0.76155648  0.90392334  1
  Al  Al33  1  0.55900261  0.87378410  0.65400927  1
  B  B34  1  0.88899512  0.20472670  0.15667375  1
  B  B35  1  0.88899548  0.87294488  0.65667366  1
  N  N36  1  0.22227672  0.20610245  0.34414377  1
  N  N37  1  0.08588451  0.10691736  0.10262463  1
  N  N38  1  0.88929645  0.20562492  0.84054376  1
  N  N39  1  0.79091279  0.06992066  0.59793397  1
  N  N40  1  0.55745900  0.20512621  0.34611183  1
  N  N41  1  0.44438274  0.09521322  0.09629788  1
  N  N42  1  0.22098531  0.20427330  0.84684987  1
  N  N43  1  0.10940484  0.09547255  0.58922596  1
  N  N44  1  0.88799280  0.20442473  0.32409612  1
  N  N45  1  0.79091247  0.10583366  0.09793409  1
  N  N46  1  0.55745901  0.20408150  0.84611182  1
  N  N47  1  0.44337196  0.09514278  0.59492540  1
  N  N48  1  0.22098534  0.54140769  0.34684989  1
  N  N49  1  0.11100893  0.42874832  0.09495319  1
  N  N50  1  0.88786650  0.53731926  0.84552050  1
  N  N51  1  0.77911742  0.42505103  0.59032371  1
  N  N52  1  0.55501636  0.53894622  0.34425474  1
  N  N53  1  0.44337163  0.42815233  0.09492545  1
  N  N54  1  0.22227636  0.53828724  0.84414383  1
  N  N55  1  0.11100914  0.42690939  0.59495303  1
  N  N56  1  0.88786660  0.54148060  0.34552048  1
  N  N57  1  0.79060406  0.40283046  0.10234630  1
  N  N58  1  0.55786183  0.53773239  0.84684909  1
  N  N59  1  0.44438269  0.42707076  0.59629798  1
  N  N60  1  0.22113616  0.87042389  0.34559353  1
  N  N61  1  0.10940467  0.76178966  0.08922604  1
  N  N62  1  0.88799273  0.87424951  0.82409598  1
  N  N63  1  0.79060455  0.77323184  0.60234630  1
  N  N64  1  0.55786246  0.87107214  0.34684891  1
  N  N65  1  0.44390724  0.76145513  0.09589924  1
  N  N66  1  0.22113601  0.87510657  0.84559357  1
  N  N67  1  0.08588495  0.77386486  0.60262464  1
  N  N68  1  0.88929658  0.87174542  0.34054370  1
  N  N69  1  0.77911744  0.76249819  0.09032348  1
  N  N70  1  0.55501668  0.87270413  0.84425455  1
  N  N71  1  0.44390746  0.76130473  0.59589932  1
