# generated using pymatgen
data_Al17BN18
_symmetry_space_group_name_H-M   'P 1'
_cell_length_a   9.31828651
_cell_length_b   9.33468202
_cell_length_c   10.06129648
_cell_angle_alpha   90.00002206
_cell_angle_beta   89.74125253
_cell_angle_gamma   59.94152590
_symmetry_Int_Tables_number   1
_chemical_formula_structural   Al17BN18
_chemical_formula_sum   'Al34 B2 N36'
_cell_volume   757.45712630
_cell_formula_units_Z   2
loop_
 _symmetry_equiv_pos_site_id
 _symmetry_equiv_pos_as_xyz
  1  'x, y, z'
loop_
 _atom_site_type_symbol
 _atom_site_label
 _atom_site_symmetry_multiplicity
 _atom_site_fract_x
 _atom_site_fract_y
 _atom_site_fract_z
 _atom_site_occupancy
  Al  Al0  1  0.11323628  0.09339443  0.40552958  1
  Al  Al1  1  0.21529907  0.20747277  0.14803807  1
  Al  Al2  1  0.78276534  0.08306415  0.82773837  1
  Al  Al3  1  0.89231549  0.20253254  0.61744268  1
  Al  Al4  1  0.44204632  0.09306884  0.39618714  1
  Al  Al5  1  0.56236468  0.20654135  0.10501269  1
  Al  Al6  1  0.10215776  0.09774594  0.89217599  1
  Al  Al7  1  0.22380627  0.20569557  0.65385571  1
  Al  Al8  1  0.78276605  0.10083587  0.32773842  1
  Al  Al9  1  0.44474658  0.09152442  0.89794721  1
  Al  Al10  1  0.56236373  0.19776174  0.60501212  1
  Al  Al11  1  0.11109404  0.42593118  0.40036847  1
  Al  Al12  1  0.22380637  0.53716568  0.15385552  1
  Al  Al13  1  0.78099759  0.42149472  0.89073460  1
  Al  Al14  1  0.89148459  0.54593562  0.65140455  1
  Al  Al15  1  0.44474705  0.43039647  0.39794696  1
  Al  Al16  1  0.55949254  0.53364646  0.14785499  1
  Al  Al17  1  0.11109295  0.42964263  0.90036849  1
  Al  Al18  1  0.21529851  0.54389611  0.64803817  1
  Al  Al19  1  0.77557210  0.43119864  0.40615566  1
  Al  Al20  1  0.89148466  0.52924585  0.15140480  1
  Al  Al21  1  0.44204597  0.43155173  0.89618707  1
  Al  Al22  1  0.55450152  0.54273469  0.65344434  1
  Al  Al23  1  0.10215801  0.76676324  0.39217597  1
  Al  Al24  1  0.21598941  0.87615733  0.15124686  1
  Al  Al25  1  0.77557075  0.75989545  0.90615566  1
  Al  Al26  1  0.44329202  0.76023612  0.40029917  1
  Al  Al27  1  0.55450134  0.86943037  0.15344446  1
  Al  Al28  1  0.11323557  0.76003685  0.90552949  1
  Al  Al29  1  0.21598967  0.87452014  0.65124689  1
  Al  Al30  1  0.78099827  0.76417325  0.39073478  1
  Al  Al31  1  0.89231511  0.87181726  0.11744246  1
  Al  Al32  1  0.44329172  0.76313906  0.90029903  1
  Al  Al33  1  0.55949246  0.87352800  0.64785503  1
  B  B34  1  0.88794166  0.20789491  0.10678868  1
  B  B35  1  0.88794132  0.87083009  0.60678855  1
  N  N36  1  0.21997561  0.20472972  0.33668896  1
  N  N37  1  0.07972358  0.10976017  0.08989932  1
  N  N38  1  0.88887220  0.20765878  0.82275298  1
  N  N39  1  0.79418224  0.05462213  0.63102175  1
  N  N40  1  0.55701973  0.20428398  0.36344690  1
  N  N41  1  0.44378719  0.09063582  0.09066807  1
  N  N42  1  0.22136105  0.20582998  0.84347487  1
  N  N43  1  0.12336122  0.09003812  0.59369515  1
  N  N44  1  0.88559432  0.20378392  0.40051155  1
  N  N45  1  0.79418296  0.11786182  0.13102188  1
  N  N46  1  0.55701924  0.20536302  0.86344624  1
  N  N47  1  0.44167824  0.09233508  0.58810841  1
  N  N48  1  0.22136164  0.53947551  0.34347457  1
  N  N49  1  0.11248982  0.42791866  0.09006825  1
  N  N50  1  0.88909355  0.54062417  0.84078776  1
  N  N51  1  0.77306186  0.44280201  0.59499709  1
  N  N52  1  0.55728154  0.53892158  0.33687218  1
  N  N53  1  0.44167847  0.43265402  0.08810841  1
  N  N54  1  0.21997508  0.54196150  0.83668905  1
  N  N55  1  0.11248995  0.42625926  0.59006820  1
  N  N56  1  0.88909439  0.53694727  0.34078797  1
  N  N57  1  0.79382395  0.39748051  0.08873039  1
  N  N58  1  0.55506171  0.54127789  0.84250693  1
  N  N59  1  0.44378639  0.43224524  0.59066779  1
  N  N60  1  0.22071690  0.87379082  0.34067756  1
  N  N61  1  0.12336085  0.75326846  0.09369494  1
  N  N62  1  0.88559336  0.87728710  0.90051153  1
  N  N63  1  0.79382401  0.77536213  0.58873040  1
  N  N64  1  0.55506218  0.87032639  0.34250703  1
  N  N65  1  0.44218631  0.76242966  0.09046349  1
  N  N66  1  0.22071658  0.87215886  0.84067748  1
  N  N67  1  0.07972331  0.77718363  0.58989912  1
  N  N68  1  0.88887255  0.87013398  0.32275277  1
  N  N69  1  0.77306137  0.75080230  0.09499706  1
  N  N70  1  0.55728060  0.87046403  0.83687221  1
  N  N71  1  0.44218661  0.76205119  0.59046359  1
