# generated using pymatgen
data_Al17BN18
_symmetry_space_group_name_H-M   'P 1'
_cell_length_a   9.28806183
_cell_length_b   9.35745728
_cell_length_c   10.25870383
_cell_angle_alpha   89.95777716
_cell_angle_beta   89.38125755
_cell_angle_gamma   59.77897499
_symmetry_Int_Tables_number   1
_chemical_formula_structural   Al17BN18
_chemical_formula_sum   'Al34 B2 N36'
_cell_volume   770.37601880
_cell_formula_units_Z   2
loop_
 _symmetry_equiv_pos_site_id
 _symmetry_equiv_pos_as_xyz
  1  'x, y, z'
loop_
 _atom_site_type_symbol
 _atom_site_label
 _atom_site_symmetry_multiplicity
 _atom_site_fract_x
 _atom_site_fract_y
 _atom_site_fract_z
 _atom_site_occupancy
  Al  Al0  1  0.11711457  0.09138946  0.39700967  1
  Al  Al1  1  0.21159446  0.20892082  0.13798053  1
  Al  Al2  1  0.78160959  0.08602681  0.81876068  1
  Al  Al3  1  0.89016926  0.19974413  0.59786108  1
  Al  Al4  1  0.45110073  0.09105358  0.31754135  1
  Al  Al5  1  0.56046482  0.20877850  0.06742639  1
  Al  Al6  1  0.09970678  0.09977674  0.88847837  1
  Al  Al7  1  0.21776857  0.20806523  0.64486459  1
  Al  Al8  1  0.78239307  0.09866880  0.31964014  1
  Al  Al9  1  0.44943539  0.09291887  0.82267647  1
  Al  Al10  1  0.56047210  0.19752024  0.56702992  1
  Al  Al11  1  0.11202111  0.42608327  0.39121835  1
  Al  Al12  1  0.21666180  0.54152503  0.14432058  1
  Al  Al13  1  0.77362171  0.42748535  0.81110236  1
  Al  Al14  1  0.89593578  0.54373427  0.63543696  1
  Al  Al15  1  0.44970250  0.42461729  0.32147937  1
  Al  Al16  1  0.56083529  0.53157317  0.07008217  1
  Al  Al17  1  0.10912936  0.43007785  0.89157251  1
  Al  Al18  1  0.21157727  0.54583449  0.63901235  1
  Al  Al19  1  0.78036103  0.41803431  0.34001733  1
  Al  Al20  1  0.89476630  0.52634252  0.13932678  1
  Al  Al21  1  0.45034639  0.42472228  0.81855877  1
  Al  Al22  1  0.55245643  0.54272367  0.56687820  1
  Al  Al23  1  0.10091921  0.76698348  0.38917239  1
  Al  Al24  1  0.20909948  0.87883057  0.14357293  1
  Al  Al25  1  0.78001099  0.76977223  0.82902360  1
  Al  Al26  1  0.44966656  0.75901573  0.31956449  1
  Al  Al27  1  0.55538490  0.86978749  0.06585093  1
  Al  Al28  1  0.11610006  0.75844579  0.89669877  1
  Al  Al29  1  0.20954793  0.87842025  0.64460434  1
  Al  Al30  1  0.77435637  0.76613472  0.31388542  1
  Al  Al31  1  0.88809928  0.87673183  0.09406495  1
  Al  Al32  1  0.44943439  0.75849324  0.82089727  1
  Al  Al33  1  0.55917745  0.87495757  0.57019930  1
  B  B34  1  0.88534555  0.20812416  0.10773307  1
  B  B35  1  0.88580656  0.87346141  0.60608557  1
  N  N36  1  0.21541039  0.20750981  0.32562187  1
  N  N37  1  0.07893855  0.10974642  0.08227415  1
  N  N38  1  0.89009007  0.20289224  0.81892339  1
  N  N39  1  0.79140340  0.05860758  0.62521602  1
  N  N40  1  0.55627048  0.20435615  0.38079332  1
  N  N41  1  0.45296108  0.09068370  0.12767497  1
  N  N42  1  0.21495677  0.20887317  0.83437220  1
  N  N43  1  0.12489474  0.08903804  0.58073750  1
  N  N44  1  0.88343606  0.20389262  0.39682783  1
  N  N45  1  0.79161423  0.11568312  0.12552199  1
  N  N46  1  0.55662683  0.20633452  0.88130160  1
  N  N47  1  0.45130215  0.09211038  0.63394984  1
  N  N48  1  0.21540870  0.54327181  0.33368812  1
  N  N49  1  0.11376364  0.42702912  0.07698070  1
  N  N50  1  0.89146972  0.54007681  0.82750360  1
  N  N51  1  0.77303695  0.43635737  0.61931790  1
  N  N52  1  0.55197644  0.54121968  0.38147478  1
  N  N53  1  0.45058288  0.42382266  0.13297089  1
  N  N54  1  0.21466504  0.54388576  0.82655528  1
  N  N55  1  0.11591689  0.42458341  0.57631398  1
  N  N56  1  0.89195472  0.53515463  0.33160345  1
  N  N57  1  0.79290166  0.39336739  0.12824062  1
  N  N58  1  0.55553451  0.53852317  0.88332012  1
  N  N59  1  0.45249601  0.42256276  0.62880974  1
  N  N60  1  0.21494931  0.87583314  0.33119845  1
  N  N61  1  0.12272974  0.75382563  0.08052510  1
  N  N62  1  0.88196848  0.87890924  0.89512021  1
  N  N63  1  0.79298254  0.78009692  0.62813519  1
  N  N64  1  0.55496626  0.87274411  0.38394909  1
  N  N65  1  0.44983339  0.75721218  0.13033155  1
  N  N66  1  0.21447955  0.87638419  0.83219879  1
  N  N67  1  0.07990615  0.77745681  0.58328233  1
  N  N68  1  0.88913339  0.87457953  0.32631868  1
  N  N69  1  0.77350395  0.75713260  0.12376217  1
  N  N70  1  0.55394947  0.87284957  0.88035198  1
  N  N71  1  0.44953145  0.75974898  0.63177402  1
