# generated using pymatgen
data_Al17BN18
_symmetry_space_group_name_H-M   'P 1'
_cell_length_a   9.29362661
_cell_length_b   9.34516271
_cell_length_c   10.21902470
_cell_angle_alpha   90.00088922
_cell_angle_beta   89.36351869
_cell_angle_gamma   59.79621090
_symmetry_Int_Tables_number   1
_chemical_formula_structural   Al17BN18
_chemical_formula_sum   'Al34 B2 N36'
_cell_volume   766.97417563
_cell_formula_units_Z   2
loop_
 _symmetry_equiv_pos_site_id
 _symmetry_equiv_pos_as_xyz
  1  'x, y, z'
loop_
 _atom_site_type_symbol
 _atom_site_label
 _atom_site_symmetry_multiplicity
 _atom_site_fract_x
 _atom_site_fract_y
 _atom_site_fract_z
 _atom_site_occupancy
  Al  Al0  1  0.11538996  0.09248611  0.39731518  1
  Al  Al1  1  0.21085997  0.21022020  0.13941340  1
  Al  Al2  1  0.78202774  0.08547564  0.82061175  1
  Al  Al3  1  0.88844060  0.20173838  0.59808397  1
  Al  Al4  1  0.45213082  0.08993037  0.31775179  1
  Al  Al5  1  0.56000399  0.20934773  0.06741953  1
  Al  Al6  1  0.09979764  0.09921574  0.88901139  1
  Al  Al7  1  0.21671924  0.20819133  0.64580770  1
  Al  Al8  1  0.78202572  0.09917664  0.32061065  1
  Al  Al9  1  0.45100363  0.09117326  0.82252023  1
  Al  Al10  1  0.55999633  0.19731252  0.56742063  1
  Al  Al11  1  0.11797105  0.42307869  0.39129071  1
  Al  Al12  1  0.21672099  0.54173256  0.14580791  1
  Al  Al13  1  0.77775114  0.42968297  0.81363043  1
  Al  Al14  1  0.88543515  0.54837310  0.57511311  1
  Al  Al15  1  0.45100372  0.42451436  0.32252100  1
  Al  Al16  1  0.55728853  0.53366156  0.07043243  1
  Al  Al17  1  0.11796892  0.42562628  0.89129224  1
  Al  Al18  1  0.21085625  0.54556805  0.63941271  1
  Al  Al19  1  0.78371485  0.42021464  0.32812083  1
  Al  Al20  1  0.88543185  0.53284242  0.07511187  1
  Al  Al21  1  0.45212851  0.42463151  0.81775299  1
  Al  Al22  1  0.55456860  0.54132566  0.56590881  1
  Al  Al23  1  0.09979890  0.76766073  0.38901218  1
  Al  Al24  1  0.20895155  0.87928702  0.14426018  1
  Al  Al25  1  0.78371828  0.76274582  0.82811883  1
  Al  Al26  1  0.44968040  0.75923185  0.32063590  1
  Al  Al27  1  0.55456754  0.87077270  0.06590857  1
  Al  Al28  1  0.11539161  0.75879683  0.89731573  1
  Al  Al29  1  0.20895422  0.87840899  0.64426261  1
  Al  Al30  1  0.77775661  0.75924298  0.31363008  1
  Al  Al31  1  0.88844648  0.87646928  0.09808726  1
  Al  Al32  1  0.44968216  0.75777989  0.82063605  1
  Al  Al33  1  0.55728990  0.87570881  0.57043174  1
  B  B34  1  0.88626319  0.20808675  0.10823259  1
  B  B35  1  0.88626394  0.87231767  0.60823352  1
  N  N36  1  0.21594672  0.20667478  0.32637260  1
  N  N37  1  0.07857629  0.11069501  0.08365249  1
  N  N38  1  0.88911507  0.20359397  0.82256095  1
  N  N39  1  0.79118156  0.05773725  0.62545327  1
  N  N40  1  0.55636010  0.20393118  0.38097872  1
  N  N41  1  0.45297874  0.09103824  0.12769792  1
  N  N42  1  0.21660595  0.20655675  0.83495775  1
  N  N43  1  0.12278339  0.08992285  0.58150128  1
  N  N44  1  0.88158467  0.20766838  0.39566364  1
  N  N45  1  0.79120245  0.11776416  0.12545130  1
  N  N46  1  0.55635636  0.20635897  0.88097942  1
  N  N47  1  0.45059674  0.09211137  0.63370368  1
  N  N48  1  0.21660872  0.54345991  0.33495751  1
  N  N49  1  0.11848408  0.42553582  0.07908154  1
  N  N50  1  0.88471572  0.53976995  0.87676805  1
  N  N51  1  0.77327195  0.43902155  0.62687860  1
  N  N52  1  0.55537465  0.53987402  0.37961604  1
  N  N53  1  0.45059932  0.42399773  0.13370401  1
  N  N54  1  0.21594503  0.54400411  0.82637417  1
  N  N55  1  0.11849101  0.42266242  0.57907917  1
  N  N56  1  0.88471613  0.54214364  0.37676818  1
  N  N57  1  0.79433474  0.39689534  0.13117288  1
  N  N58  1  0.55575265  0.53830430  0.88373368  1
  N  N59  1  0.45297778  0.42269561  0.62769604  1
  N  N60  1  0.21470292  0.87600650  0.33246069  1
  N  N61  1  0.12279074  0.75397836  0.08150071  1
  N  N62  1  0.88158545  0.87737804  0.89566420  1
  N  N63  1  0.79435257  0.77545250  0.63117296  1
  N  N64  1  0.55575269  0.87259145  0.38373396  1
  N  N65  1  0.44847260  0.75879644  0.13046786  1
  N  N66  1  0.21470652  0.87591324  0.83246000  1
  N  N67  1  0.07857616  0.77740350  0.58365386  1
  N  N68  1  0.88911709  0.87391687  0.32255948  1
  N  N69  1  0.77326987  0.75440629  0.12688097  1
  N  N70  1  0.55537901  0.87139776  0.87961449  1
  N  N71  1  0.44847323  0.75944309  0.63047078  1
