# generated using pymatgen
data_Al17BN18
_symmetry_space_group_name_H-M   'P 1'
_cell_length_a   9.31679870
_cell_length_b   9.33034141
_cell_length_c   10.05897578
_cell_angle_alpha   90.00044933
_cell_angle_beta   89.72904381
_cell_angle_gamma   59.94340900
_symmetry_Int_Tables_number   1
_chemical_formula_structural   Al17BN18
_chemical_formula_sum   'Al34 B2 N36'
_cell_volume   756.82280558
_cell_formula_units_Z   2
loop_
 _symmetry_equiv_pos_site_id
 _symmetry_equiv_pos_as_xyz
  1  'x, y, z'
loop_
 _atom_site_type_symbol
 _atom_site_label
 _atom_site_symmetry_multiplicity
 _atom_site_fract_x
 _atom_site_fract_y
 _atom_site_fract_z
 _atom_site_occupancy
  Al  Al0  1  0.11350106  0.09337524  0.40547694  1
  Al  Al1  1  0.21527291  0.20740085  0.14776912  1
  Al  Al2  1  0.78434926  0.08246260  0.82844491  1
  Al  Al3  1  0.89208040  0.20235984  0.61702118  1
  Al  Al4  1  0.44305437  0.09396414  0.39630285  1
  Al  Al5  1  0.55860995  0.20842564  0.12704934  1
  Al  Al6  1  0.10248292  0.09775177  0.89219123  1
  Al  Al7  1  0.22383119  0.20563917  0.65357853  1
  Al  Al8  1  0.78434941  0.09986057  0.32844533  1
  Al  Al9  1  0.44559419  0.09240125  0.89796101  1
  Al  Al10  1  0.55860406  0.19962685  0.62704985  1
  Al  Al11  1  0.11114668  0.42590533  0.40023487  1
  Al  Al12  1  0.22383154  0.53718968  0.15357875  1
  Al  Al13  1  0.78096128  0.42160886  0.89077954  1
  Al  Al14  1  0.89146686  0.54596762  0.65136796  1
  Al  Al15  1  0.44559522  0.42867849  0.39796044  1
  Al  Al16  1  0.55956243  0.53352546  0.14744647  1
  Al  Al17  1  0.11114526  0.42962307  0.90023496  1
  Al  Al18  1  0.21526970  0.54398966  0.64776973  1
  Al  Al19  1  0.77542181  0.43139617  0.40611028  1
  Al  Al20  1  0.89146593  0.52922837  0.15136829  1
  Al  Al21  1  0.44305375  0.42965563  0.89630329  1
  Al  Al22  1  0.55450543  0.54258094  0.65320808  1
  Al  Al23  1  0.10248190  0.76643889  0.39219157  1
  Al  Al24  1  0.21591490  0.87626043  0.15120066  1
  Al  Al25  1  0.77541993  0.75985581  0.90611155  1
  Al  Al26  1  0.44327248  0.76025202  0.40012107  1
  Al  Al27  1  0.55450370  0.86957661  0.15320859  1
  Al  Al28  1  0.11350060  0.75979739  0.90547784  1
  Al  Al29  1  0.21591699  0.87448526  0.65120010  1
  Al  Al30  1  0.78096336  0.76410263  0.39078016  1
  Al  Al31  1  0.89208131  0.87222056  0.11702054  1
  Al  Al32  1  0.44327189  0.76314961  0.90012055  1
  Al  Al33  1  0.55956432  0.87357082  0.64744617  1
  B  B34  1  0.88777155  0.20771028  0.10647989  1
  B  B35  1  0.88777187  0.87118504  0.60647914  1
  N  N36  1  0.22031689  0.20455694  0.33659543  1
  N  N37  1  0.07994100  0.10971808  0.08978587  1
  N  N38  1  0.88908855  0.20769695  0.82286483  1
  N  N39  1  0.79447702  0.05447087  0.63020115  1
  N  N40  1  0.55448882  0.20565453  0.34678294  1
  N  N41  1  0.44452277  0.09131512  0.08943097  1
  N  N42  1  0.22168880  0.20571736  0.84334502  1
  N  N43  1  0.12342732  0.09002149  0.59364119  1
  N  N44  1  0.88560489  0.20390066  0.40081000  1
  N  N45  1  0.79448290  0.11772739  0.13020283  1
  N  N46  1  0.55448598  0.20651195  0.84678354  1
  N  N47  1  0.44251306  0.09320447  0.58685739  1
  N  N48  1  0.22169036  0.53924762  0.34334433  1
  N  N49  1  0.11248042  0.42794386  0.08998984  1
  N  N50  1  0.88912701  0.54062423  0.84075765  1
  N  N51  1  0.77306525  0.44281195  0.59497585  1
  N  N52  1  0.55717044  0.53872830  0.33671016  1
  N  N53  1  0.44251343  0.43096012  0.08685764  1
  N  N54  1  0.22031561  0.54178200  0.83659591  1
  N  N55  1  0.11248267  0.42625160  0.58998943  1
  N  N56  1  0.88912755  0.53690264  0.34075812  1
  N  N57  1  0.79384868  0.39759480  0.08866897  1
  N  N58  1  0.55497717  0.54101326  0.84244895  1
  N  N59  1  0.44452171  0.43084208  0.58943130  1
  N  N60  1  0.22068455  0.87380984  0.34060536  1
  N  N61  1  0.12342863  0.75322953  0.09364106  1
  N  N62  1  0.88560262  0.87714700  0.90081097  1
  N  N63  1  0.79385428  0.77523057  0.58866867  1
  N  N64  1  0.55497897  0.87066329  0.34245016  1
  N  N65  1  0.44214920  0.76246749  0.09037800  1
  N  N66  1  0.22068486  0.87215939  0.84060440  1
  N  N67  1  0.07994047  0.77701109  0.58978453  1
  N  N68  1  0.88908919  0.86986715  0.32286510  1
  N  N69  1  0.77306348  0.75080317  0.09497501  1
  N  N70  1  0.55716885  0.87075704  0.83670985  1
  N  N71  1  0.44214951  0.76206175  0.59037738  1
