# generated using pymatgen
data_Al17BN18
_symmetry_space_group_name_H-M   'P 1'
_cell_length_a   9.32824512
_cell_length_b   9.33919287
_cell_length_c   10.24537240
_cell_angle_alpha   89.99497822
_cell_angle_beta   89.73159920
_cell_angle_gamma   59.91415659
_symmetry_Int_Tables_number   1
_chemical_formula_structural   Al17BN18
_chemical_formula_sum   'Al34 B2 N36'
_cell_volume   772.29834782
_cell_formula_units_Z   2
loop_
 _symmetry_equiv_pos_site_id
 _symmetry_equiv_pos_as_xyz
  1  'x, y, z'
loop_
 _atom_site_type_symbol
 _atom_site_label
 _atom_site_symmetry_multiplicity
 _atom_site_fract_x
 _atom_site_fract_y
 _atom_site_fract_z
 _atom_site_occupancy
  Al  Al0  1  0.11525433  0.09275823  0.39636894  1
  Al  Al1  1  0.21018629  0.21013313  0.13717522  1
  Al  Al2  1  0.78338125  0.08275857  0.81360292  1
  Al  Al3  1  0.89213923  0.20180646  0.60580592  1
  Al  Al4  1  0.45189174  0.09028781  0.31557330  1
  Al  Al5  1  0.56179922  0.20703223  0.06383322  1
  Al  Al6  1  0.10074221  0.09913763  0.88276517  1
  Al  Al7  1  0.21772263  0.20998380  0.64382227  1
  Al  Al8  1  0.78320011  0.10187189  0.31565362  1
  Al  Al9  1  0.45198155  0.09121260  0.82027004  1
  Al  Al10  1  0.56200127  0.19642786  0.56476370  1
  Al  Al11  1  0.11198534  0.42474485  0.39108019  1
  Al  Al12  1  0.21567994  0.53962216  0.14258710  1
  Al  Al13  1  0.78187164  0.42120938  0.88080658  1
  Al  Al14  1  0.89019296  0.54934512  0.64129424  1
  Al  Al15  1  0.44925031  0.42042787  0.32152425  1
  Al  Al16  1  0.56407681  0.52979228  0.12689630  1
  Al  Al17  1  0.11055568  0.42931707  0.89062057  1
  Al  Al18  1  0.21069200  0.54631107  0.63655810  1
  Al  Al19  1  0.77775644  0.42966078  0.39637084  1
  Al  Al20  1  0.89012728  0.52961488  0.14247540  1
  Al  Al21  1  0.44697683  0.42147705  0.82084124  1
  Al  Al22  1  0.56130749  0.53842651  0.63503285  1
  Al  Al23  1  0.10258609  0.76672956  0.38366336  1
  Al  Al24  1  0.20621320  0.88103118  0.14109619  1
  Al  Al25  1  0.78409212  0.75603367  0.89689095  1
  Al  Al26  1  0.44758843  0.76241118  0.31820192  1
  Al  Al27  1  0.54665852  0.87527358  0.06833304  1
  Al  Al28  1  0.11400956  0.75953902  0.89675480  1
  Al  Al29  1  0.20805958  0.87862602  0.64201592  1
  Al  Al30  1  0.78620688  0.76074511  0.37754550  1
  Al  Al31  1  0.89007262  0.87286601  0.11037057  1
  Al  Al32  1  0.44465615  0.76645111  0.82342596  1
  Al  Al33  1  0.55123003  0.87870727  0.56823219  1
  B  B34  1  0.88650090  0.20741644  0.09595409  1
  B  B35  1  0.88655767  0.87226234  0.59610773  1
  N  N36  1  0.21681418  0.20651239  0.32526969  1
  N  N37  1  0.07801713  0.11007340  0.07788820  1
  N  N38  1  0.88812886  0.20873877  0.81062424  1
  N  N39  1  0.79228697  0.05671756  0.62128507  1
  N  N40  1  0.55976116  0.20053674  0.37895116  1
  N  N41  1  0.45135033  0.09326394  0.12736621  1
  N  N42  1  0.21700152  0.20846951  0.83326567  1
  N  N43  1  0.12425750  0.09064568  0.58100202  1
  N  N44  1  0.88673808  0.20197472  0.39092089  1
  N  N45  1  0.79142482  0.11900038  0.12256815  1
  N  N46  1  0.56036467  0.20295809  0.87868330  1
  N  N47  1  0.45072461  0.09353864  0.63230465  1
  N  N48  1  0.21625404  0.54143028  0.33333171  1
  N  N49  1  0.10973681  0.42808743  0.07719368  1
  N  N50  1  0.88832441  0.54121178  0.82790223  1
  N  N51  1  0.77765150  0.44165600  0.58225034  1
  N  N52  1  0.56461449  0.53382911  0.32946965  1
  N  N53  1  0.44544046  0.42008733  0.12743420  1
  N  N54  1  0.21412954  0.54394829  0.82571657  1
  N  N55  1  0.11128661  0.42729119  0.57761331  1
  N  N56  1  0.89027965  0.53525719  0.32870532  1
  N  N57  1  0.79581923  0.39605373  0.07593769  1
  N  N58  1  0.55749569  0.53844198  0.84257254  1
  N  N59  1  0.44987337  0.42007747  0.62552557  1
  N  N60  1  0.21436704  0.87682856  0.32969608  1
  N  N61  1  0.12124424  0.75344304  0.08134729  1
  N  N62  1  0.88619074  0.87849958  0.88743578  1
  N  N63  1  0.79730985  0.77487947  0.57606200  1
  N  N64  1  0.55176495  0.87389637  0.38160077  1
  N  N65  1  0.44118423  0.76506759  0.12570354  1
  N  N66  1  0.21235902  0.87667872  0.83046749  1
  N  N67  1  0.07954956  0.77840953  0.57796796  1
  N  N68  1  0.88882548  0.87083833  0.31116900  1
  N  N69  1  0.77735010  0.74881639  0.08591883  1
  N  N70  1  0.55050007  0.87606151  0.88153577  1
  N  N71  1  0.44411346  0.76645794  0.62956860  1
