# generated using pymatgen
data_Al17BN18
_symmetry_space_group_name_H-M   'P 1'
_cell_length_a   9.30431494
_cell_length_b   9.31540191
_cell_length_c   10.16790584
_cell_angle_alpha   90.02597302
_cell_angle_beta   89.73227001
_cell_angle_gamma   60.03074549
_symmetry_Int_Tables_number   1
_chemical_formula_structural   Al17BN18
_chemical_formula_sum   'Al34 B2 N36'
_cell_volume   763.44125303
_cell_formula_units_Z   2
loop_
 _symmetry_equiv_pos_site_id
 _symmetry_equiv_pos_as_xyz
  1  'x, y, z'
loop_
 _atom_site_type_symbol
 _atom_site_label
 _atom_site_symmetry_multiplicity
 _atom_site_fract_x
 _atom_site_fract_y
 _atom_site_fract_z
 _atom_site_occupancy
  Al  Al0  1  0.11327666  0.09368637  0.40202397  1
  Al  Al1  1  0.20983216  0.21000186  0.14150566  1
  Al  Al2  1  0.78297072  0.08276480  0.82067694  1
  Al  Al3  1  0.89092984  0.20267183  0.61306461  1
  Al  Al4  1  0.44570866  0.09915824  0.32493771  1
  Al  Al5  1  0.56547222  0.20016005  0.07120293  1
  Al  Al6  1  0.10161742  0.09748814  0.88885614  1
  Al  Al7  1  0.21611607  0.21054027  0.64897286  1
  Al  Al8  1  0.78152805  0.10276154  0.32128135  1
  Al  Al9  1  0.44876442  0.09653850  0.82848953  1
  Al  Al10  1  0.56471968  0.19060518  0.57151796  1
  Al  Al11  1  0.10957008  0.42721676  0.39679083  1
  Al  Al12  1  0.22511427  0.53589674  0.14972975  1
  Al  Al13  1  0.78103048  0.42168955  0.88647207  1
  Al  Al14  1  0.89086697  0.54661052  0.64815567  1
  Al  Al15  1  0.44233552  0.43448910  0.39656341  1
  Al  Al16  1  0.55935175  0.53092296  0.14471690  1
  Al  Al17  1  0.11015165  0.43035188  0.89745328  1
  Al  Al18  1  0.21659227  0.54303724  0.64450944  1
  Al  Al19  1  0.77526012  0.43173476  0.40276280  1
  Al  Al20  1  0.89141484  0.52891882  0.14818218  1
  Al  Al21  1  0.44040918  0.43483747  0.89387089  1
  Al  Al22  1  0.55390845  0.54145506  0.64970283  1
  Al  Al23  1  0.10158574  0.76742906  0.38830060  1
  Al  Al24  1  0.21613459  0.87541745  0.14772462  1
  Al  Al25  1  0.77658119  0.75966257  0.90291585  1
  Al  Al26  1  0.44278079  0.76130208  0.39695588  1
  Al  Al27  1  0.55852740  0.86225191  0.14803898  1
  Al  Al28  1  0.11337903  0.76011949  0.90203672  1
  Al  Al29  1  0.21590797  0.87469235  0.64778044  1
  Al  Al30  1  0.78069176  0.76464196  0.38760006  1
  Al  Al31  1  0.89255599  0.87178912  0.11502859  1
  Al  Al32  1  0.44369424  0.76325544  0.89702317  1
  Al  Al33  1  0.56272896  0.86732546  0.64257135  1
  B  B34  1  0.88633655  0.20771294  0.10271499  1
  B  B35  1  0.88799563  0.87138196  0.60275163  1
  N  N36  1  0.21340720  0.20904950  0.33201123  1
  N  N37  1  0.07838892  0.10873510  0.08490605  1
  N  N38  1  0.88868640  0.20794169  0.81785303  1
  N  N39  1  0.79260305  0.05562398  0.62779158  1
  N  N40  1  0.56066973  0.20070864  0.38334248  1
  N  N41  1  0.44861642  0.09493751  0.13065372  1
  N  N42  1  0.21622811  0.20877306  0.84104192  1
  N  N43  1  0.12267582  0.08986864  0.58824501  1
  N  N44  1  0.88485349  0.20392838  0.39655648  1
  N  N45  1  0.79103503  0.11882330  0.12892101  1
  N  N46  1  0.56263169  0.20131774  0.88270180  1
  N  N47  1  0.44594203  0.09752226  0.63461362  1
  N  N48  1  0.22135406  0.53924300  0.33829851  1
  N  N49  1  0.11121140  0.42924705  0.08500748  1
  N  N50  1  0.88932002  0.54084514  0.83593134  1
  N  N51  1  0.77260140  0.44336066  0.59030648  1
  N  N52  1  0.55704133  0.53867045  0.33247944  1
  N  N53  1  0.44197061  0.43114357  0.08430091  1
  N  N54  1  0.22039815  0.54120737  0.83209524  1
  N  N55  1  0.11067516  0.42851847  0.58462169  1
  N  N56  1  0.88815513  0.53783970  0.33602788  1
  N  N57  1  0.79348914  0.39718708  0.08394717  1
  N  N58  1  0.55508658  0.54083715  0.83745543  1
  N  N59  1  0.44339531  0.43200407  0.58691443  1
  N  N60  1  0.22063809  0.87415024  0.33578112  1
  N  N61  1  0.12331735  0.75274488  0.08900636  1
  N  N62  1  0.88619345  0.87785273  0.89539825  1
  N  N63  1  0.79407127  0.77532690  0.58321499  1
  N  N64  1  0.55679675  0.86737773  0.33943713  1
  N  N65  1  0.44213374  0.76091222  0.08563974  1
  N  N66  1  0.22124789  0.87200395  0.83594798  1
  N  N67  1  0.07972019  0.77742369  0.58517713  1
  N  N68  1  0.88825470  0.87089013  0.31837079  1
  N  N69  1  0.77538677  0.74937176  0.08973491  1
  N  N70  1  0.56144827  0.86395154  0.83359608  1
  N  N71  1  0.44159341  0.76160277  0.58540628  1
