# generated using pymatgen
data_Al17BN18
_symmetry_space_group_name_H-M   'P 1'
_cell_length_a   9.31481513
_cell_length_b   9.32569614
_cell_length_c   10.24853204
_cell_angle_alpha   89.99697178
_cell_angle_beta   89.74510433
_cell_angle_gamma   59.92610894
_symmetry_Int_Tables_number   1
_chemical_formula_structural   Al17BN18
_chemical_formula_sum   'Al34 B2 N36'
_cell_volume   770.40355320
_cell_formula_units_Z   2
loop_
 _symmetry_equiv_pos_site_id
 _symmetry_equiv_pos_as_xyz
  1  'x, y, z'
loop_
 _atom_site_type_symbol
 _atom_site_label
 _atom_site_symmetry_multiplicity
 _atom_site_fract_x
 _atom_site_fract_y
 _atom_site_fract_z
 _atom_site_occupancy
  Al  Al0  1  0.11605445  0.09188363  0.39644793  1
  Al  Al1  1  0.20984801  0.21022988  0.13742622  1
  Al  Al2  1  0.78282073  0.08278500  0.81393497  1
  Al  Al3  1  0.89201076  0.20230651  0.60735593  1
  Al  Al4  1  0.45173590  0.09053271  0.31615775  1
  Al  Al5  1  0.56214589  0.20723778  0.06479519  1
  Al  Al6  1  0.10155164  0.09828646  0.88335563  1
  Al  Al7  1  0.21752951  0.21013399  0.64405447  1
  Al  Al8  1  0.78285983  0.10164130  0.31535410  1
  Al  Al9  1  0.45173698  0.09143121  0.82096675  1
  Al  Al10  1  0.56227609  0.19646105  0.56520042  1
  Al  Al11  1  0.11264467  0.42482269  0.39114495  1
  Al  Al12  1  0.21620990  0.53937963  0.14369712  1
  Al  Al13  1  0.78437180  0.42024188  0.87854412  1
  Al  Al14  1  0.88965941  0.54918662  0.64166585  1
  Al  Al15  1  0.45155866  0.42298873  0.32052101  1
  Al  Al16  1  0.55249538  0.53608177  0.07350096  1
  Al  Al17  1  0.11142745  0.42935947  0.89096314  1
  Al  Al18  1  0.21052055  0.54639355  0.63779154  1
  Al  Al19  1  0.78332525  0.42681403  0.39638264  1
  Al  Al20  1  0.88893937  0.52917982  0.14212546  1
  Al  Al21  1  0.45057030  0.42437261  0.81876977  1
  Al  Al22  1  0.55010950  0.54409846  0.57512877  1
  Al  Al23  1  0.10288410  0.76647983  0.38363460  1
  Al  Al24  1  0.20667118  0.88078167  0.14221882  1
  Al  Al25  1  0.78367357  0.75646305  0.89719102  1
  Al  Al26  1  0.44940980  0.75828887  0.31804916  1
  Al  Al27  1  0.54676109  0.87485723  0.06905663  1
  Al  Al28  1  0.11438572  0.75940302  0.89663144  1
  Al  Al29  1  0.20815826  0.87840213  0.64309426  1
  Al  Al30  1  0.78563760  0.76121154  0.37768363  1
  Al  Al31  1  0.89050786  0.87263987  0.11031879  1
  Al  Al32  1  0.44831104  0.76022903  0.82144779  1
  Al  Al33  1  0.55149212  0.87853722  0.56901207  1
  B  B34  1  0.88641507  0.20789978  0.09670006  1
  B  B35  1  0.88674059  0.87217413  0.59623937  1
  N  N36  1  0.21656086  0.20669564  0.32540907  1
  N  N37  1  0.07907223  0.10916415  0.07797778  1
  N  N38  1  0.88829218  0.20814527  0.81059687  1
  N  N39  1  0.79243595  0.05668385  0.62151383  1
  N  N40  1  0.55928538  0.20169522  0.37919373  1
  N  N41  1  0.45125793  0.09339862  0.12765454  1
  N  N42  1  0.21663021  0.20869150  0.83329867  1
  N  N43  1  0.12470588  0.09001774  0.58100409  1
  N  N44  1  0.88737449  0.20104814  0.38994422  1
  N  N45  1  0.79184705  0.11811276  0.12258592  1
  N  N46  1  0.55964575  0.20458612  0.87908886  1
  N  N47  1  0.45077171  0.09358254  0.63276522  1
  N  N48  1  0.21665278  0.54116476  0.33314180  1
  N  N49  1  0.11017471  0.42823839  0.07738289  1
  N  N50  1  0.88840538  0.54172287  0.82797860  1
  N  N51  1  0.77966847  0.43989624  0.58507624  1
  N  N52  1  0.55221249  0.54072686  0.37636112  1
  N  N53  1  0.44903540  0.42184089  0.13163535  1
  N  N54  1  0.21546544  0.54360785  0.82588323  1
  N  N55  1  0.11161145  0.42743264  0.57764605  1
  N  N56  1  0.88984019  0.53566444  0.32816053  1
  N  N57  1  0.79710597  0.39491019  0.07757387  1
  N  N58  1  0.55067852  0.54183072  0.88294823  1
  N  N59  1  0.45212888  0.42145267  0.62896252  1
  N  N60  1  0.21473572  0.87655170  0.32964223  1
  N  N61  1  0.12236200  0.75288413  0.08116968  1
  N  N62  1  0.88641411  0.87836542  0.88736562  1
  N  N63  1  0.79736669  0.77480758  0.57620130  1
  N  N64  1  0.55105464  0.87376192  0.38208415  1
  N  N65  1  0.44469331  0.76061937  0.12978875  1
  N  N66  1  0.21375019  0.87581694  0.83048189  1
  N  N67  1  0.08005501  0.77812673  0.57808126  1
  N  N68  1  0.88891796  0.87052977  0.31120938  1
  N  N69  1  0.77750480  0.74883960  0.08590256  1
  N  N70  1  0.54966518  0.87533192  0.88174152  1
  N  N71  1  0.44690967  0.76196910  0.63255545  1
