# generated using pymatgen
data_Al17BN18
_symmetry_space_group_name_H-M   'P 1'
_cell_length_a   9.28333116
_cell_length_b   9.33274637
_cell_length_c   10.28199085
_cell_angle_alpha   89.81330159
_cell_angle_beta   89.54030434
_cell_angle_gamma   59.93341963
_symmetry_Int_Tables_number   1
_chemical_formula_structural   Al17BN18
_chemical_formula_sum   'Al34 B2 N36'
_cell_volume   770.93052605
_cell_formula_units_Z   2
loop_
 _symmetry_equiv_pos_site_id
 _symmetry_equiv_pos_as_xyz
  1  'x, y, z'
loop_
 _atom_site_type_symbol
 _atom_site_label
 _atom_site_symmetry_multiplicity
 _atom_site_fract_x
 _atom_site_fract_y
 _atom_site_fract_z
 _atom_site_occupancy
  Al  Al0  1  0.11448114  0.09257245  0.39694033  1
  Al  Al1  1  0.21190846  0.20842803  0.13919898  1
  Al  Al2  1  0.78183764  0.08530441  0.81793889  1
  Al  Al3  1  0.89118346  0.20279391  0.61061055  1
  Al  Al4  1  0.45185052  0.09114237  0.31851227  1
  Al  Al5  1  0.56006330  0.20928544  0.06630784  1
  Al  Al6  1  0.10361365  0.09717122  0.88403025  1
  Al  Al7  1  0.21890777  0.20861507  0.64243913  1
  Al  Al8  1  0.78267881  0.10209726  0.31431669  1
  Al  Al9  1  0.45159303  0.09186029  0.81982987  1
  Al  Al10  1  0.56331533  0.19652530  0.56593384  1
  Al  Al11  1  0.10976655  0.42661212  0.39095608  1
  Al  Al12  1  0.21610279  0.54019446  0.14595076  1
  Al  Al13  1  0.78399820  0.41892307  0.87992597  1
  Al  Al14  1  0.89135619  0.54361005  0.64457230  1
  Al  Al15  1  0.45052389  0.42471610  0.32294101  1
  Al  Al16  1  0.54878651  0.53828664  0.06981243  1
  Al  Al17  1  0.11393277  0.42744635  0.89173674  1
  Al  Al18  1  0.20917359  0.54666392  0.63747443  1
  Al  Al19  1  0.78365196  0.42719917  0.39776329  1
  Al  Al20  1  0.89250191  0.52043018  0.13577108  1
  Al  Al21  1  0.45047843  0.42496500  0.81625497  1
  Al  Al22  1  0.54703543  0.54603927  0.57019936  1
  Al  Al23  1  0.09809044  0.76815351  0.38704045  1
  Al  Al24  1  0.20775463  0.87994921  0.14499453  1
  Al  Al25  1  0.78090879  0.76546676  0.85131644  1
  Al  Al26  1  0.44858341  0.75870171  0.32119805  1
  Al  Al27  1  0.55057033  0.87244781  0.06758573  1
  Al  Al28  1  0.11740146  0.75789423  0.89722632  1
  Al  Al29  1  0.20901967  0.87838534  0.64181273  1
  Al  Al30  1  0.77411975  0.76327282  0.30770045  1
  Al  Al31  1  0.89120059  0.87604270  0.09979108  1
  Al  Al32  1  0.44933285  0.75912155  0.81818749  1
  Al  Al33  1  0.56387747  0.87311705  0.56922017  1
  B  B34  1  0.88608820  0.20745574  0.09578689  1
  B  B35  1  0.88536272  0.87155107  0.60794526  1
  N  N36  1  0.21666750  0.20687815  0.32654547  1
  N  N37  1  0.08030542  0.10836228  0.07834689  1
  N  N38  1  0.88938545  0.20760076  0.81251183  1
  N  N39  1  0.79262274  0.05823640  0.62655514  1
  N  N40  1  0.55881367  0.20320616  0.38036819  1
  N  N41  1  0.45287409  0.09155000  0.12887607  1
  N  N42  1  0.21737733  0.20811125  0.83188908  1
  N  N43  1  0.12338278  0.09056374  0.58088269  1
  N  N44  1  0.88597467  0.20261270  0.38770029  1
  N  N45  1  0.79101496  0.11879517  0.12076913  1
  N  N46  1  0.55734219  0.20656467  0.88046353  1
  N  N47  1  0.45255068  0.09148275  0.63182050  1
  N  N48  1  0.21453733  0.54302342  0.33426521  1
  N  N49  1  0.11428969  0.42574973  0.07666295  1
  N  N50  1  0.89049403  0.53688578  0.83264728  1
  N  N51  1  0.77861025  0.43912744  0.58612398  1
  N  N52  1  0.54855777  0.54312595  0.38338820  1
  N  N53  1  0.45003967  0.42278270  0.13496212  1
  N  N54  1  0.21434071  0.54438786  0.82500996  1
  N  N55  1  0.11103188  0.42694622  0.57711033  1
  N  N56  1  0.89076263  0.53063186  0.32307796  1
  N  N57  1  0.79571355  0.39371914  0.07473543  1
  N  N58  1  0.54874360  0.54273132  0.88313196  1
  N  N59  1  0.45156302  0.42198730  0.62868861  1
  N  N60  1  0.21390051  0.87656055  0.33176927  1
  N  N61  1  0.12572856  0.75178293  0.08030935  1
  N  N62  1  0.88419362  0.88030013  0.89754055  1
  N  N63  1  0.79448421  0.77794725  0.62620716  1
  N  N64  1  0.55771090  0.87085828  0.38216730  1
  N  N65  1  0.44707340  0.75910571  0.13249852  1
  N  N66  1  0.21429899  0.87570071  0.82907827  1
  N  N67  1  0.07877871  0.77801391  0.58052171  1
  N  N68  1  0.88956622  0.87402247  0.31229377  1
  N  N69  1  0.77377272  0.75327269  0.11471714  1
  N  N70  1  0.55119176  0.87397063  0.88253788  1
  N  N71  1  0.44899181  0.76209080  0.63117304  1
