# generated using pymatgen
data_Al17BN18
_symmetry_space_group_name_H-M   'P 1'
_cell_length_a   9.30435596
_cell_length_b   9.31554779
_cell_length_c   10.16753069
_cell_angle_alpha   90.02587903
_cell_angle_beta   89.73244686
_cell_angle_gamma   60.03097747
_symmetry_Int_Tables_number   1
_chemical_formula_structural   Al17BN18
_chemical_formula_sum   'Al34 B2 N36'
_cell_volume   763.43020802
_cell_formula_units_Z   2
loop_
 _symmetry_equiv_pos_site_id
 _symmetry_equiv_pos_as_xyz
  1  'x, y, z'
loop_
 _atom_site_type_symbol
 _atom_site_label
 _atom_site_symmetry_multiplicity
 _atom_site_fract_x
 _atom_site_fract_y
 _atom_site_fract_z
 _atom_site_occupancy
  Al  Al0  1  0.11330880  0.09368668  0.39384248  1
  Al  Al1  1  0.20984681  0.21000131  0.13331894  1
  Al  Al2  1  0.78296680  0.08275103  0.81248926  1
  Al  Al3  1  0.89094385  0.20265771  0.60487963  1
  Al  Al4  1  0.44573432  0.09916388  0.31675040  1
  Al  Al5  1  0.56548331  0.20016371  0.06301219  1
  Al  Al6  1  0.10161554  0.09747389  0.88067765  1
  Al  Al7  1  0.21612899  0.21052509  0.64079015  1
  Al  Al8  1  0.78155492  0.10277193  0.31310516  1
  Al  Al9  1  0.44876041  0.09652276  0.82031851  1
  Al  Al10  1  0.56472551  0.19059612  0.56333313  1
  Al  Al11  1  0.10959606  0.42721733  0.38860704  1
  Al  Al12  1  0.22512249  0.53590051  0.14153949  1
  Al  Al13  1  0.78102710  0.42167319  0.87828929  1
  Al  Al14  1  0.89087505  0.54659757  0.63997969  1
  Al  Al15  1  0.44236147  0.43449056  0.38837251  1
  Al  Al16  1  0.55936250  0.53092423  0.13652767  1
  Al  Al17  1  0.11014511  0.43033951  0.88926958  1
  Al  Al18  1  0.21659609  0.54302693  0.63632048  1
  Al  Al19  1  0.77528901  0.43173666  0.39458058  1
  Al  Al20  1  0.89142560  0.52891703  0.14000544  1
  Al  Al21  1  0.44039911  0.43483083  0.88566976  1
  Al  Al22  1  0.55391728  0.54143985  0.64151366  1
  Al  Al23  1  0.10160985  0.76743234  0.38012067  1
  Al  Al24  1  0.21613973  0.87542209  0.13954085  1
  Al  Al25  1  0.77657509  0.75964874  0.89474596  1
  Al  Al26  1  0.44280418  0.76130461  0.38877183  1
  Al  Al27  1  0.55853412  0.86225232  0.13985727  1
  Al  Al28  1  0.11336303  0.76011231  0.89385114  1
  Al  Al29  1  0.21591739  0.87467709  0.63960010  1
  Al  Al30  1  0.78071177  0.76464834  0.37942726  1
  Al  Al31  1  0.89255982  0.87179173  0.10686166  1
  Al  Al32  1  0.44368695  0.76324099  0.88884200  1
  Al  Al33  1  0.56273739  0.86731215  0.63439818  1
  B  B34  1  0.88634895  0.20771775  0.09453785  1
  B  B35  1  0.88800662  0.87137110  0.59457681  1
  N  N36  1  0.21343801  0.20905186  0.32383171  1
  N  N37  1  0.07839737  0.10873725  0.07673311  1
  N  N38  1  0.88868363  0.20792410  0.80967759  1
  N  N39  1  0.79261444  0.05561284  0.61959799  1
  N  N40  1  0.56069348  0.20071648  0.37514901  1
  N  N41  1  0.44863041  0.09493397  0.12245630  1
  N  N42  1  0.21622759  0.20875877  0.83286565  1
  N  N43  1  0.12268968  0.08985243  0.58006975  1
  N  N44  1  0.88488654  0.20393514  0.38836418  1
  N  N45  1  0.79104282  0.11882218  0.12073497  1
  N  N46  1  0.56262503  0.20131682  0.87450453  1
  N  N47  1  0.44595328  0.09750346  0.62642797  1
  N  N48  1  0.22137545  0.53925000  0.33011524  1
  N  N49  1  0.11122005  0.42924679  0.07682756  1
  N  N50  1  0.88931069  0.54083390  0.82775910  1
  N  N51  1  0.77261482  0.44334445  0.58212987  1
  N  N52  1  0.55706849  0.53867453  0.32429573  1
  N  N53  1  0.44197949  0.43114270  0.07610865  1
  N  N54  1  0.22038320  0.54120197  0.82391022  1
  N  N55  1  0.11068285  0.42850386  0.57644267  1
  N  N56  1  0.88817856  0.53784941  0.32785491  1
  N  N57  1  0.79349944  0.39718498  0.07577067  1
  N  N58  1  0.55508323  0.54082664  0.82927019  1
  N  N59  1  0.44340239  0.43199063  0.57873060  1
  N  N60  1  0.22066043  0.87415332  0.32760146  1
  N  N61  1  0.12331536  0.75275106  0.08082669  1
  N  N62  1  0.88617699  0.87784645  0.88721079  1
  N  N63  1  0.79408426  0.77531392  0.57505136  1
  N  N64  1  0.55681627  0.86738877  0.33126394  1
  N  N65  1  0.44213911  0.76091211  0.07746220  1
  N  N66  1  0.22123986  0.87199099  0.82777143  1
  N  N67  1  0.07973154  0.77741162  0.57699916  1
  N  N68  1  0.88827098  0.87090462  0.31020383  1
  N  N69  1  0.77539663  0.74937062  0.08157015  1
  N  N70  1  0.56144000  0.86394312  0.82542823  1
  N  N71  1  0.44160528  0.76158875  0.57722769  1
