# generated using pymatgen
data_Al17BN18
_symmetry_space_group_name_H-M   'P 1'
_cell_length_a   9.31924301
_cell_length_b   9.32960383
_cell_length_c   10.24171632
_cell_angle_alpha   89.99598162
_cell_angle_beta   89.74004633
_cell_angle_gamma   59.92369656
_symmetry_Int_Tables_number   1
_chemical_formula_structural   Al17BN18
_chemical_formula_sum   'Al34 B2 N36'
_cell_volume   770.56077759
_cell_formula_units_Z   2
loop_
 _symmetry_equiv_pos_site_id
 _symmetry_equiv_pos_as_xyz
  1  'x, y, z'
loop_
 _atom_site_type_symbol
 _atom_site_label
 _atom_site_symmetry_multiplicity
 _atom_site_fract_x
 _atom_site_fract_y
 _atom_site_fract_z
 _atom_site_occupancy
  Al  Al0  1  0.11597081  0.09199250  0.39636211  1
  Al  Al1  1  0.20989855  0.21021325  0.13734373  1
  Al  Al2  1  0.78292051  0.08279119  0.81392026  1
  Al  Al3  1  0.89223619  0.20193741  0.60690007  1
  Al  Al4  1  0.45174599  0.09049982  0.31608302  1
  Al  Al5  1  0.56212059  0.20700954  0.06459712  1
  Al  Al6  1  0.10135953  0.09847901  0.88323805  1
  Al  Al7  1  0.21757812  0.21010459  0.64400207  1
  Al  Al8  1  0.78289991  0.10177308  0.31548774  1
  Al  Al9  1  0.45176554  0.09141249  0.82084597  1
  Al  Al10  1  0.56235900  0.19623172  0.56505156  1
  Al  Al11  1  0.11259599  0.42480266  0.39107250  1
  Al  Al12  1  0.21595440  0.53943705  0.14352178  1
  Al  Al13  1  0.78407567  0.42033362  0.87888928  1
  Al  Al14  1  0.88996168  0.54928023  0.64167839  1
  Al  Al15  1  0.45140460  0.42267657  0.32028770  1
  Al  Al16  1  0.55370140  0.53547745  0.07744507  1
  Al  Al17  1  0.11124729  0.42933642  0.89091168  1
  Al  Al18  1  0.21036441  0.54647560  0.63767173  1
  Al  Al19  1  0.78234377  0.42726682  0.39600769  1
  Al  Al20  1  0.88913554  0.52923985  0.14233865  1
  Al  Al21  1  0.45004303  0.42415112  0.81965613  1
  Al  Al22  1  0.55181376  0.54324219  0.58174427  1
  Al  Al23  1  0.10292708  0.76647330  0.38352191  1
  Al  Al24  1  0.20642395  0.88096045  0.14202605  1
  Al  Al25  1  0.78374794  0.75638423  0.89709891  1
  Al  Al26  1  0.44929854  0.75866449  0.31776032  1
  Al  Al27  1  0.54675302  0.87508900  0.06886963  1
  Al  Al28  1  0.11427965  0.75943730  0.89665611  1
  Al  Al29  1  0.20794441  0.87852685  0.64302337  1
  Al  Al30  1  0.78571725  0.76111447  0.37753551  1
  Al  Al31  1  0.89040054  0.87270277  0.11033788  1
  Al  Al32  1  0.44777205  0.76094388  0.82229881  1
  Al  Al33  1  0.55155512  0.87868031  0.56882631  1
  B  B34  1  0.88650670  0.20779457  0.09667962  1
  B  B35  1  0.88669601  0.87216827  0.59622560  1
  N  N36  1  0.21662483  0.20664878  0.32540532  1
  N  N37  1  0.07889399  0.10930518  0.07796401  1
  N  N38  1  0.88823185  0.20825181  0.81054203  1
  N  N39  1  0.79242008  0.05662740  0.62143636  1
  N  N40  1  0.55930795  0.20151955  0.37910838  1
  N  N41  1  0.45122878  0.09341408  0.12755032  1
  N  N42  1  0.21670690  0.20863902  0.83332732  1
  N  N43  1  0.12480739  0.09001993  0.58104112  1
  N  N44  1  0.88734468  0.20112335  0.39043704  1
  N  N45  1  0.79177233  0.11828881  0.12257005  1
  N  N46  1  0.55979590  0.20420948  0.87892932  1
  N  N47  1  0.45071134  0.09362819  0.63260682  1
  N  N48  1  0.21661769  0.54115698  0.33317988  1
  N  N49  1  0.11001888  0.42821679  0.07737557  1
  N  N50  1  0.88840470  0.54161488  0.82800074  1
  N  N51  1  0.78001294  0.43985903  0.58497666  1
  N  N52  1  0.55421140  0.53962944  0.37018477  1
  N  N53  1  0.44824616  0.42141365  0.13080143  1
  N  N54  1  0.21517299  0.54367352  0.82587799  1
  N  N55  1  0.11165411  0.42737558  0.57768037  1
  N  N56  1  0.89008699  0.53555309  0.32841004  1
  N  N57  1  0.79730279  0.39487547  0.07766568  1
  N  N58  1  0.55115577  0.54157549  0.88115555  1
  N  N59  1  0.45185000  0.42110222  0.62897253  1
  N  N60  1  0.21466312  0.87664870  0.32964096  1
  N  N61  1  0.12212810  0.75298922  0.08124528  1
  N  N62  1  0.88637687  0.87836302  0.88737542  1
  N  N63  1  0.79736374  0.77481305  0.57624685  1
  N  N64  1  0.55115860  0.87380909  0.38196238  1
  N  N65  1  0.44384610  0.76177035  0.12896838  1
  N  N66  1  0.21344362  0.87600895  0.83051620  1
  N  N67  1  0.07995840  0.77816848  0.57811218  1
  N  N68  1  0.88888216  0.87064603  0.31123899  1
  N  N69  1  0.77742566  0.74881735  0.08596264  1
  N  N70  1  0.54987528  0.87550516  0.88157635  1
  N  N71  1  0.44651802  0.76276521  0.63260783  1
