# generated using pymatgen
data_Al17BN18
_symmetry_space_group_name_H-M   'P 1'
_cell_length_a   9.30868977
_cell_length_b   9.31510469
_cell_length_c   10.02565890
_cell_angle_alpha   89.93536072
_cell_angle_beta   89.77518835
_cell_angle_gamma   60.01599450
_symmetry_Int_Tables_number   1
_chemical_formula_structural   Al17BN18
_chemical_formula_sum   'Al34 B2 N36'
_cell_volume   752.98492657
_cell_formula_units_Z   2
loop_
 _symmetry_equiv_pos_site_id
 _symmetry_equiv_pos_as_xyz
  1  'x, y, z'
loop_
 _atom_site_type_symbol
 _atom_site_label
 _atom_site_symmetry_multiplicity
 _atom_site_fract_x
 _atom_site_fract_y
 _atom_site_fract_z
 _atom_site_occupancy
  Al  Al0  1  0.11434254  0.09323834  0.40289461  1
  Al  Al1  1  0.21490220  0.20796283  0.14755813  1
  Al  Al2  1  0.78413732  0.08831894  0.82611769  1
  Al  Al3  1  0.89220783  0.20388897  0.61595010  1
  Al  Al4  1  0.44251212  0.09496114  0.39722629  1
  Al  Al5  1  0.56011853  0.20855374  0.14714833  1
  Al  Al6  1  0.10515585  0.09658788  0.89317959  1
  Al  Al7  1  0.22352923  0.20485601  0.65201340  1
  Al  Al8  1  0.77928523  0.09470229  0.37903724  1
  Al  Al9  1  0.44622082  0.09291704  0.90001838  1
  Al  Al10  1  0.55195394  0.20327752  0.64304349  1
  Al  Al11  1  0.10976576  0.42795181  0.39887052  1
  Al  Al12  1  0.22062872  0.54095277  0.14988925  1
  Al  Al13  1  0.78115524  0.42010993  0.89255284  1
  Al  Al14  1  0.89051732  0.54407335  0.65238249  1
  Al  Al15  1  0.44355077  0.43011531  0.39829698  1
  Al  Al16  1  0.55990201  0.53219867  0.14759182  1
  Al  Al17  1  0.11218987  0.42713147  0.90009013  1
  Al  Al18  1  0.21690686  0.54242500  0.64857966  1
  Al  Al19  1  0.77501000  0.43376010  0.40358442  1
  Al  Al20  1  0.89015797  0.53399413  0.14802833  1
  Al  Al21  1  0.44542699  0.42579724  0.89862069  1
  Al  Al22  1  0.55429876  0.54151794  0.65183003  1
  Al  Al23  1  0.10451406  0.76571739  0.40299934  1
  Al  Al24  1  0.21375891  0.87664708  0.14785672  1
  Al  Al25  1  0.77874243  0.76039630  0.89524067  1
  Al  Al26  1  0.44319163  0.76127434  0.39824561  1
  Al  Al27  1  0.55683641  0.87191434  0.15032294  1
  Al  Al28  1  0.11105610  0.75884962  0.89420523  1
  Al  Al29  1  0.21799553  0.87285627  0.65135138  1
  Al  Al30  1  0.78033491  0.76399164  0.40242960  1
  Al  Al31  1  0.89076304  0.87770977  0.14607912  1
  Al  Al32  1  0.44457599  0.76133139  0.90013443  1
  Al  Al33  1  0.55902944  0.87317239  0.64808053  1
  B  B34  1  0.88624882  0.20377968  0.10640396  1
  B  B35  1  0.89063197  0.86489101  0.65039442  1
  N  N36  1  0.22079647  0.20587577  0.33652640  1
  N  N37  1  0.08042544  0.10952661  0.08967287  1
  N  N38  1  0.89238483  0.20680752  0.82231450  1
  N  N39  1  0.78734791  0.06551450  0.61516609  1
  N  N40  1  0.55262032  0.20754535  0.33940062  1
  N  N41  1  0.44469781  0.09484855  0.09044307  1
  N  N42  1  0.22353391  0.20428329  0.84280736  1
  N  N43  1  0.12346138  0.08875419  0.59196081  1
  N  N44  1  0.88782176  0.20778434  0.39383642  1
  N  N45  1  0.79439973  0.11175206  0.11454106  1
  N  N46  1  0.55344319  0.20548276  0.83624308  1
  N  N47  1  0.44273503  0.09398995  0.58663923  1
  N  N48  1  0.21992678  0.54242114  0.34116105  1
  N  N49  1  0.11135132  0.42873363  0.08968828  1
  N  N50  1  0.89000121  0.53694414  0.84233813  1
  N  N51  1  0.77268422  0.44181346  0.59350315  1
  N  N52  1  0.55606299  0.53925606  0.33688095  1
  N  N53  1  0.44255177  0.42880558  0.08839535  1
  N  N54  1  0.22426370  0.53623646  0.83798737  1
  N  N55  1  0.11155920  0.42639394  0.58940255  1
  N  N56  1  0.88700867  0.54187272  0.33853164  1
  N  N57  1  0.79286761  0.39773837  0.08960628  1
  N  N58  1  0.55566463  0.53861798  0.84227906  1
  N  N59  1  0.44410824  0.42929661  0.58863397  1
  N  N60  1  0.21982340  0.87275267  0.33849871  1
  N  N61  1  0.10987764  0.76098293  0.08428977  1
  N  N62  1  0.89572252  0.85862245  0.81827516  1
  N  N63  1  0.79161085  0.77215239  0.59567118  1
  N  N64  1  0.55736564  0.87130261  0.34125291  1
  N  N65  1  0.44377214  0.76168055  0.09083336  1
  N  N66  1  0.22242259  0.87156947  0.84143756  1
  N  N67  1  0.08645473  0.77310549  0.59568798  1
  N  N68  1  0.88871470  0.87157585  0.33492298  1
  N  N69  1  0.77881065  0.76235438  0.08627772  1
  N  N70  1  0.55597373  0.87166785  0.83817510  1
  N  N71  1  0.44291453  0.76174641  0.58942137  1
