# generated using pymatgen
data_Al17BN18
_symmetry_space_group_name_H-M   'P 1'
_cell_length_a   9.30340337
_cell_length_b   9.31730014
_cell_length_c   10.27334221
_cell_angle_alpha   89.99952361
_cell_angle_beta   89.75713392
_cell_angle_gamma   59.93218023
_symmetry_Int_Tables_number   1
_chemical_formula_structural   Al17BN18
_chemical_formula_sum   'Al34 B2 N36'
_cell_volume   770.67615638
_cell_formula_units_Z   2
loop_
 _symmetry_equiv_pos_site_id
 _symmetry_equiv_pos_as_xyz
  1  'x, y, z'
loop_
 _atom_site_type_symbol
 _atom_site_label
 _atom_site_symmetry_multiplicity
 _atom_site_fract_x
 _atom_site_fract_y
 _atom_site_fract_z
 _atom_site_occupancy
  Al  Al0  1  0.11597032  0.09186860  0.39662062  1
  Al  Al1  1  0.20980106  0.21025978  0.13773663  1
  Al  Al2  1  0.78268432  0.08271072  0.81402632  1
  Al  Al3  1  0.89165959  0.20288387  0.60857892  1
  Al  Al4  1  0.45173654  0.09058979  0.31623382  1
  Al  Al5  1  0.56213599  0.20765454  0.06506171  1
  Al  Al6  1  0.10204968  0.09785085  0.88364714  1
  Al  Al7  1  0.21738421  0.21024127  0.64426646  1
  Al  Al8  1  0.78276786  0.10150319  0.31495407  1
  Al  Al9  1  0.45171748  0.09145573  0.82121964  1
  Al  Al10  1  0.56219433  0.19666682  0.56526278  1
  Al  Al11  1  0.11248298  0.42491836  0.39124042  1
  Al  Al12  1  0.21669837  0.53925058  0.14410551  1
  Al  Al13  1  0.78484830  0.42010562  0.87819951  1
  Al  Al14  1  0.88910239  0.54915645  0.64171454  1
  Al  Al15  1  0.45168718  0.42335042  0.32100793  1
  Al  Al16  1  0.55130530  0.53666885  0.07019554  1
  Al  Al17  1  0.11178556  0.42943756  0.89110658  1
  Al  Al18  1  0.21038928  0.54639775  0.63798051  1
  Al  Al19  1  0.78395074  0.42647450  0.39711563  1
  Al  Al20  1  0.88864814  0.52903518  0.14184674  1
  Al  Al21  1  0.45130911  0.42442387  0.81723630  1
  Al  Al22  1  0.54803389  0.54510792  0.57041086  1
  Al  Al23  1  0.10279020  0.76650175  0.38386351  1
  Al  Al24  1  0.20722259  0.88040649  0.14270457  1
  Al  Al25  1  0.78360565  0.75656263  0.89744183  1
  Al  Al26  1  0.44953060  0.75788417  0.31858126  1
  Al  Al27  1  0.54676331  0.87445673  0.06933557  1
  Al  Al28  1  0.11483713  0.75924100  0.89664020  1
  Al  Al29  1  0.20814843  0.87846971  0.64318974  1
  Al  Al30  1  0.78548013  0.76130143  0.37799315  1
  Al  Al31  1  0.89086065  0.87237640  0.11036271  1
  Al  Al32  1  0.44909843  0.75951305  0.81994435  1
  Al  Al33  1  0.55131612  0.87855158  0.56909824  1
  B  B34  1  0.88639423  0.20787352  0.09656331  1
  B  B35  1  0.88678405  0.87225080  0.59626078  1
  N  N36  1  0.21638922  0.20682674  0.32535767  1
  N  N37  1  0.07951296  0.10880978  0.07788576  1
  N  N38  1  0.88855411  0.20793285  0.81062306  1
  N  N39  1  0.79243565  0.05686686  0.62181704  1
  N  N40  1  0.55925216  0.20187406  0.37950905  1
  N  N41  1  0.45145942  0.09325802  0.12800923  1
  N  N42  1  0.21644955  0.20886502  0.83313244  1
  N  N43  1  0.12437247  0.09019782  0.58084089  1
  N  N44  1  0.88731656  0.20114448  0.38880275  1
  N  N45  1  0.79204218  0.11770385  0.12257171  1
  N  N46  1  0.55940349  0.20519945  0.87945713  1
  N  N47  1  0.45094253  0.09349419  0.63329289  1
  N  N48  1  0.21653673  0.54122455  0.33304326  1
  N  N49  1  0.11050429  0.42823103  0.07730690  1
  N  N50  1  0.88845008  0.54194952  0.82775211  1
  N  N51  1  0.77885858  0.44003060  0.58510426  1
  N  N52  1  0.55001612  0.54193862  0.38117589  1
  N  N53  1  0.45017910  0.42220508  0.13294946  1
  N  N54  1  0.21594239  0.54350798  0.82563241  1
  N  N55  1  0.11134082  0.42753075  0.57746607  1
  N  N56  1  0.88924120  0.53584185  0.32771460  1
  N  N57  1  0.79689375  0.39485382  0.07679323  1
  N  N58  1  0.55036926  0.54204307  0.88332978  1
  N  N59  1  0.45214305  0.42179110  0.62865355  1
  N  N60  1  0.21472513  0.87651041  0.32963186  1
  N  N61  1  0.12298783  0.75260540  0.08090402  1
  N  N62  1  0.88664730  0.87829457  0.88728526  1
  N  N63  1  0.79731283  0.77483319  0.57602640  1
  N  N64  1  0.55074346  0.87388317  0.38251049  1
  N  N65  1  0.44599622  0.75906220  0.13109772  1
  N  N66  1  0.21427145  0.87552857  0.83012702  1
  N  N67  1  0.08019229  0.77809692  0.57792566  1
  N  N68  1  0.88894159  0.87027368  0.31105901  1
  N  N69  1  0.77778914  0.74875182  0.08559982  1
  N  N70  1  0.54923660  0.87516155  0.88220530  1
  N  N71  1  0.44711504  0.76140626  0.63222826  1
