# generated using pymatgen
data_Al17BN18
_symmetry_space_group_name_H-M   'P 1'
_cell_length_a   9.31543327
_cell_length_b   9.34138252
_cell_length_c   10.14210644
_cell_angle_alpha   90.07744630
_cell_angle_beta   89.54154730
_cell_angle_gamma   59.95026652
_symmetry_Int_Tables_number   1
_chemical_formula_structural   Al17BN18
_chemical_formula_sum   'Al34 B2 N36'
_cell_volume   763.89368943
_cell_formula_units_Z   2
loop_
 _symmetry_equiv_pos_site_id
 _symmetry_equiv_pos_as_xyz
  1  'x, y, z'
loop_
 _atom_site_type_symbol
 _atom_site_label
 _atom_site_symmetry_multiplicity
 _atom_site_fract_x
 _atom_site_fract_y
 _atom_site_fract_z
 _atom_site_occupancy
  Al  Al0  1  0.11323143  0.09475320  0.39673675  1
  Al  Al1  1  0.21849207  0.20615398  0.10676324  1
  Al  Al2  1  0.78148151  0.08576287  0.82146313  1
  Al  Al3  1  0.88779505  0.20296165  0.60247055  1
  Al  Al4  1  0.44900341  0.09182885  0.31845482  1
  Al  Al5  1  0.56429632  0.20782150  0.06854112  1
  Al  Al6  1  0.09849976  0.09878420  0.89008121  1
  Al  Al7  1  0.22445397  0.20312237  0.61949856  1
  Al  Al8  1  0.77994372  0.10119464  0.32282409  1
  Al  Al9  1  0.44857067  0.09245221  0.82828440  1
  Al  Al10  1  0.56164696  0.19651034  0.56895936  1
  Al  Al11  1  0.11001620  0.43235495  0.31943509  1
  Al  Al12  1  0.23002405  0.53072954  0.07154626  1
  Al  Al13  1  0.77643619  0.43102042  0.81460776  1
  Al  Al14  1  0.89131399  0.54499336  0.56984418  1
  Al  Al15  1  0.44357647  0.42836248  0.32246539  1
  Al  Al16  1  0.55929333  0.53409513  0.07313566  1
  Al  Al17  1  0.11043026  0.42963160  0.82714050  1
  Al  Al18  1  0.22100143  0.53579641  0.57416640  1
  Al  Al19  1  0.78323735  0.42115024  0.32872743  1
  Al  Al20  1  0.89075048  0.53095998  0.06911666  1
  Al  Al21  1  0.44768892  0.42647077  0.82009305  1
  Al  Al22  1  0.55509361  0.54130319  0.56706471  1
  Al  Al23  1  0.09681740  0.77217920  0.38740129  1
  Al  Al24  1  0.20842443  0.88025407  0.14661526  1
  Al  Al25  1  0.78276764  0.76239552  0.82774782  1
  Al  Al26  1  0.44862113  0.76028213  0.32279300  1
  Al  Al27  1  0.55659875  0.86850766  0.06698647  1
  Al  Al28  1  0.10984656  0.76628037  0.89867337  1
  Al  Al29  1  0.20802527  0.87586024  0.64483566  1
  Al  Al30  1  0.77550141  0.75909232  0.31514893  1
  Al  Al31  1  0.88883600  0.87445849  0.10619831  1
  Al  Al32  1  0.44886280  0.75738453  0.82201466  1
  Al  Al33  1  0.55915151  0.87311828  0.57278805  1
  B  B34  1  0.88603981  0.20889975  0.11094207  1
  B  B35  1  0.88589676  0.87125525  0.61041706  1
  N  N36  1  0.22078699  0.20466063  0.34093186  1
  N  N37  1  0.07552166  0.11053266  0.08615567  1
  N  N38  1  0.88987236  0.20408469  0.81975406  1
  N  N39  1  0.78984064  0.05760030  0.62588258  1
  N  N40  1  0.55599424  0.20513925  0.38128706  1
  N  N41  1  0.45557318  0.09022586  0.12719151  1
  N  N42  1  0.22273911  0.20455055  0.87105758  1
  N  N43  1  0.12053759  0.08841709  0.58429427  1
  N  N44  1  0.88085270  0.20900849  0.39704638  1
  N  N45  1  0.79053048  0.11896503  0.12724550  1
  N  N46  1  0.55901411  0.20579734  0.88098347  1
  N  N47  1  0.45038156  0.09180156  0.63681960  1
  N  N48  1  0.22300391  0.53769922  0.38548789  1
  N  N49  1  0.10869030  0.43445292  0.13022540  1
  N  N50  1  0.88734342  0.53825612  0.88149972  1
  N  N51  1  0.77295153  0.44183554  0.62691866  1
  N  N52  1  0.55547568  0.53957199  0.37892954  1
  N  N53  1  0.44699791  0.42573088  0.13421169  1
  N  N54  1  0.22711651  0.53362897  0.88011032  1
  N  N55  1  0.10937794  0.43004800  0.63639385  1
  N  N56  1  0.88882569  0.54108452  0.38191601  1
  N  N57  1  0.79475317  0.39823532  0.13118649  1
  N  N58  1  0.55689159  0.53781288  0.88460447  1
  N  N59  1  0.44843766  0.42490615  0.63045922  1
  N  N60  1  0.21467482  0.87655784  0.33514717  1
  N  N61  1  0.11952404  0.75861806  0.08661192  1
  N  N62  1  0.87994911  0.87735268  0.89564115  1
  N  N63  1  0.79384163  0.77383601  0.63065486  1
  N  N64  1  0.55622873  0.87263733  0.38504752  1
  N  N65  1  0.44679664  0.76027894  0.13134936  1
  N  N66  1  0.21464942  0.87576594  0.83328266  1
  N  N67  1  0.07505917  0.77949043  0.58634441  1
  N  N68  1  0.88754810  0.87419415  0.32019141  1
  N  N69  1  0.77310200  0.75106660  0.12780739  1
  N  N70  1  0.55668727  0.86944801  0.87937136  1
  N  N71  1  0.44650117  0.75965674  0.63054507  1
