# generated using pymatgen
data_Al17BN18
_symmetry_space_group_name_H-M   'P 1'
_cell_length_a   9.29632334
_cell_length_b   9.29569048
_cell_length_c   9.96298909
_cell_angle_alpha   89.98768724
_cell_angle_beta   89.97795780
_cell_angle_gamma   60.01000840
_symmetry_Int_Tables_number   1
_chemical_formula_structural   Al17BN18
_chemical_formula_sum   'Al34 B2 N36'
_cell_volume   745.68759713
_cell_formula_units_Z   2
loop_
 _symmetry_equiv_pos_site_id
 _symmetry_equiv_pos_as_xyz
  1  'x, y, z'
loop_
 _atom_site_type_symbol
 _atom_site_label
 _atom_site_symmetry_multiplicity
 _atom_site_fract_x
 _atom_site_fract_y
 _atom_site_fract_z
 _atom_site_occupancy
  Al  Al0  1  0.10530785  0.09697220  0.30768891  1
  Al  Al1  1  0.21742926  0.20703086  0.06207558  1
  Al  Al2  1  0.78186747  0.09068747  0.81745615  1
  Al  Al3  1  0.89031556  0.19942150  0.56348147  1
  Al  Al4  1  0.44501458  0.09407680  0.31139131  1
  Al  Al5  1  0.56017218  0.20691971  0.06130713  1
  Al  Al6  1  0.10863348  0.09588924  0.81851560  1
  Al  Al7  1  0.22103616  0.20475701  0.56116419  1
  Al  Al8  1  0.78156271  0.09468165  0.31175418  1
  Al  Al9  1  0.44437520  0.09482545  0.81153747  1
  Al  Al10  1  0.56137394  0.19889428  0.56162093  1
  Al  Al11  1  0.11053996  0.42839760  0.31183514  1
  Al  Al12  1  0.22200290  0.53957602  0.06133804  1
  Al  Al13  1  0.77881989  0.42515389  0.81772113  1
  Al  Al14  1  0.88960031  0.54192821  0.56204817  1
  Al  Al15  1  0.44417367  0.42776210  0.31227436  1
  Al  Al16  1  0.55904548  0.53377388  0.06195163  1
  Al  Al17  1  0.11128138  0.42746640  0.81103538  1
  Al  Al18  1  0.21620290  0.54324538  0.56177905  1
  Al  Al19  1  0.78075314  0.42232125  0.30811091  1
  Al  Al20  1  0.89021679  0.53429282  0.06126064  1
  Al  Al21  1  0.44469981  0.42794115  0.81053657  1
  Al  Al22  1  0.55717366  0.53780776  0.56067163  1
  Al  Al23  1  0.10800702  0.76309342  0.31594627  1
  Al  Al24  1  0.21683630  0.87525591  0.06160691  1
  Al  Al25  1  0.78071611  0.76353048  0.81106732  1
  Al  Al26  1  0.44409481  0.76188195  0.31223745  1
  Al  Al27  1  0.55651771  0.87161037  0.06081184  1
  Al  Al28  1  0.10585872  0.76371306  0.81102368  1
  Al  Al29  1  0.21527826  0.87568737  0.56246743  1
  Al  Al30  1  0.77892262  0.76265340  0.31565288  1
  Al  Al31  1  0.89039746  0.87581412  0.06572614  1
  Al  Al32  1  0.44451530  0.76053244  0.81139273  1
  Al  Al33  1  0.55970196  0.87394547  0.56179726  1
  B  B34  1  0.88852616  0.20535703  0.05906557  1
  B  B35  1  0.88875134  0.87319390  0.56971933  1
  N  N36  1  0.22105754  0.20440121  0.36889768  1
  N  N37  1  0.08605105  0.10672579  0.11362409  1
  N  N38  1  0.88842253  0.20505112  0.89184342  1
  N  N39  1  0.79166694  0.06852677  0.62092106  1
  N  N40  1  0.55772714  0.20444798  0.37013518  1
  N  N41  1  0.44494789  0.09473597  0.11994533  1
  N  N42  1  0.22260288  0.20596426  0.87208001  1
  N  N43  1  0.10939701  0.09575752  0.62672618  1
  N  N44  1  0.88877531  0.20567517  0.37554104  1
  N  N45  1  0.79034294  0.10717790  0.11619838  1
  N  N46  1  0.55682830  0.20545343  0.86992932  1
  N  N47  1  0.44339687  0.09526858  0.62086037  1
  N  N48  1  0.22179355  0.53940226  0.37202716  1
  N  N49  1  0.11124344  0.42838232  0.12124343  1
  N  N50  1  0.88858743  0.54021091  0.87003881  1
  N  N51  1  0.77902610  0.42517603  0.62508737  1
  N  N52  1  0.55775858  0.53799150  0.36893902  1
  N  N53  1  0.44366970  0.42784070  0.12144873  1
  N  N54  1  0.22173508  0.54015174  0.86914134  1
  N  N55  1  0.11108424  0.42696245  0.62068653  1
  N  N56  1  0.88741410  0.53810821  0.37062266  1
  N  N57  1  0.79070112  0.40254878  0.11376194  1
  N  N58  1  0.55511813  0.53885350  0.87175280  1
  N  N59  1  0.44430025  0.42728438  0.61936348  1
  N  N60  1  0.22079894  0.87479759  0.37088573  1
  N  N61  1  0.11146170  0.76049431  0.12433240  1
  N  N62  1  0.88925810  0.87162954  0.87792921  1
  N  N63  1  0.79132843  0.77427698  0.61656177  1
  N  N64  1  0.55564069  0.87234332  0.37186105  1
  N  N65  1  0.44386960  0.76130105  0.12043786  1
  N  N66  1  0.22171313  0.87085794  0.87040228  1
  N  N67  1  0.08417974  0.77479836  0.61666534  1
  N  N68  1  0.88754839  0.87467547  0.38326735  1
  N  N69  1  0.77850243  0.76051908  0.12312175  1
  N  N70  1  0.55706274  0.87135173  0.86907551  1
  N  N71  1  0.44397385  0.76141045  0.61986139  1
