# generated using pymatgen
data_Al17BN18
_symmetry_space_group_name_H-M   'P 1'
_cell_length_a   9.32864488
_cell_length_b   9.32932821
_cell_length_c   9.99354741
_cell_angle_alpha   89.95689455
_cell_angle_beta   89.95730870
_cell_angle_gamma   60.01678837
_symmetry_Int_Tables_number   1
_chemical_formula_structural   Al17BN18
_chemical_formula_sum   'Al34 B2 N36'
_cell_volume   753.34259647
_cell_formula_units_Z   2
loop_
 _symmetry_equiv_pos_site_id
 _symmetry_equiv_pos_as_xyz
  1  'x, y, z'
loop_
 _atom_site_type_symbol
 _atom_site_label
 _atom_site_symmetry_multiplicity
 _atom_site_fract_x
 _atom_site_fract_y
 _atom_site_fract_z
 _atom_site_occupancy
  Al  Al0  1  0.10308200  0.10128340  0.30781253  1
  Al  Al1  1  0.21806198  0.20756434  0.06178963  1
  Al  Al2  1  0.78132408  0.09162655  0.82385945  1
  Al  Al3  1  0.89074575  0.19838338  0.56252962  1
  Al  Al4  1  0.44601318  0.09352830  0.31118567  1
  Al  Al5  1  0.55960268  0.20772427  0.05996503  1
  Al  Al6  1  0.10635948  0.10124556  0.82294956  1
  Al  Al7  1  0.22106509  0.20533225  0.55968916  1
  Al  Al8  1  0.78019943  0.09798868  0.30495369  1
  Al  Al9  1  0.44411366  0.09526288  0.81051269  1
  Al  Al10  1  0.56113823  0.19838440  0.56115025  1
  Al  Al11  1  0.10988253  0.42960818  0.31186774  1
  Al  Al12  1  0.22549188  0.53338728  0.06020433  1
  Al  Al13  1  0.77893477  0.42499341  0.81530319  1
  Al  Al14  1  0.89006351  0.54194024  0.56162654  1
  Al  Al15  1  0.44406527  0.42809116  0.31260238  1
  Al  Al16  1  0.56077228  0.53149438  0.06080344  1
  Al  Al17  1  0.11183096  0.42659189  0.80910340  1
  Al  Al18  1  0.21399229  0.54536308  0.56109149  1
  Al  Al19  1  0.78065564  0.42283287  0.30761493  1
  Al  Al20  1  0.89067039  0.53202279  0.05921542  1
  Al  Al21  1  0.44500791  0.42745662  0.80878248  1
  Al  Al22  1  0.55718535  0.53770808  0.55891932  1
  Al  Al23  1  0.10818533  0.76138533  0.30675303  1
  Al  Al24  1  0.21915669  0.87665232  0.09812039  1
  Al  Al25  1  0.78050090  0.76304737  0.81678279  1
  Al  Al26  1  0.44786984  0.76040275  0.31082881  1
  Al  Al27  1  0.55692646  0.87100467  0.05808992  1
  Al  Al28  1  0.10470228  0.76087819  0.83310235  1
  Al  Al29  1  0.21395693  0.87464611  0.61695392  1
  Al  Al30  1  0.77750102  0.76122908  0.30787641  1
  Al  Al31  1  0.88704271  0.87655422  0.07848774  1
  Al  Al32  1  0.45063468  0.75696000  0.81411014  1
  Al  Al33  1  0.55977578  0.87499886  0.56091354  1
  B  B34  1  0.88545276  0.20887301  0.05726299  1
  B  B35  1  0.88891603  0.87202177  0.60603734  1
  N  N36  1  0.22137384  0.20568648  0.36866024  1
  N  N37  1  0.08310251  0.11242251  0.11076999  1
  N  N38  1  0.88713959  0.20757678  0.89078728  1
  N  N39  1  0.79349237  0.06485209  0.62521440  1
  N  N40  1  0.55809185  0.20481137  0.37051165  1
  N  N41  1  0.44596878  0.09367968  0.11949057  1
  N  N42  1  0.22368704  0.20694409  0.87229005  1
  N  N43  1  0.10606225  0.10274704  0.62806106  1
  N  N44  1  0.88716397  0.20655083  0.37552639  1
  N  N45  1  0.78764613  0.11447849  0.11106659  1
  N  N46  1  0.55543619  0.20624129  0.86878525  1
  N  N47  1  0.44302304  0.09547160  0.62016537  1
  N  N48  1  0.22087046  0.54133616  0.37152737  1
  N  N49  1  0.11109971  0.42764434  0.12157244  1
  N  N50  1  0.88981803  0.53826407  0.86788898  1
  N  N51  1  0.77852078  0.42512318  0.62349825  1
  N  N52  1  0.55823320  0.53768400  0.36828307  1
  N  N53  1  0.44475945  0.42675265  0.12193853  1
  N  N54  1  0.22433642  0.53446347  0.86941041  1
  N  N55  1  0.11116177  0.42734490  0.61937744  1
  N  N56  1  0.88669249  0.53905754  0.37082264  1
  N  N57  1  0.79078316  0.40286844  0.11309553  1
  N  N58  1  0.55658176  0.53620760  0.87097986  1
  N  N59  1  0.44344063  0.42818964  0.61806409  1
  N  N60  1  0.22129824  0.87531437  0.33435824  1
  N  N61  1  0.11541043  0.75382816  0.11006601  1
  N  N62  1  0.88458885  0.87386369  0.88459927  1
  N  N63  1  0.79223804  0.77633881  0.62038969  1
  N  N64  1  0.55710490  0.87179686  0.37198722  1
  N  N65  1  0.45142912  0.75656036  0.11642901  1
  N  N66  1  0.22268817  0.87140254  0.84506193  1
  N  N67  1  0.07786660  0.77453214  0.62360450  1
  N  N68  1  0.88566597  0.87574245  0.33456305  1
  N  N69  1  0.77549264  0.75446847  0.11672486  1
  N  N70  1  0.55663340  0.87280181  0.86766845  1
  N  N71  1  0.44892638  0.75913030  0.62019636  1
