# generated using pymatgen
data_Al17BN18
_symmetry_space_group_name_H-M   'P 1'
_cell_length_a   9.31514506
_cell_length_b   9.34078296
_cell_length_c   10.14059581
_cell_angle_alpha   90.07575883
_cell_angle_beta   89.53876507
_cell_angle_gamma   59.94490516
_symmetry_Int_Tables_number   1
_chemical_formula_structural   Al17BN18
_chemical_formula_sum   'Al34 B2 N36'
_cell_volume   763.66564019
_cell_formula_units_Z   2
loop_
 _symmetry_equiv_pos_site_id
 _symmetry_equiv_pos_as_xyz
  1  'x, y, z'
loop_
 _atom_site_type_symbol
 _atom_site_label
 _atom_site_symmetry_multiplicity
 _atom_site_fract_x
 _atom_site_fract_y
 _atom_site_fract_z
 _atom_site_occupancy
  Al  Al0  1  0.11268989  0.09431570  0.39680621  1
  Al  Al1  1  0.21932437  0.20689182  0.09660765  1
  Al  Al2  1  0.78133746  0.08576120  0.82153738  1
  Al  Al3  1  0.88777689  0.20296318  0.60270346  1
  Al  Al4  1  0.44836350  0.09224828  0.31862438  1
  Al  Al5  1  0.56423631  0.20780011  0.06867812  1
  Al  Al6  1  0.09826007  0.09849356  0.88977932  1
  Al  Al7  1  0.22547981  0.20408319  0.60792731  1
  Al  Al8  1  0.77984112  0.10120962  0.32281800  1
  Al  Al9  1  0.44754058  0.09291045  0.82796621  1
  Al  Al10  1  0.56175074  0.19649431  0.56901561  1
  Al  Al11  1  0.11045002  0.43160989  0.31965139  1
  Al  Al12  1  0.22994330  0.53071497  0.07177588  1
  Al  Al13  1  0.77641354  0.43109186  0.81466203  1
  Al  Al14  1  0.89130628  0.54498436  0.56990165  1
  Al  Al15  1  0.44356813  0.42835328  0.32253905  1
  Al  Al16  1  0.55930585  0.53407091  0.07316748  1
  Al  Al17  1  0.11096372  0.42848636  0.82689668  1
  Al  Al18  1  0.22094758  0.53596357  0.57426720  1
  Al  Al19  1  0.78322583  0.42121413  0.32872220  1
  Al  Al20  1  0.89083311  0.53086103  0.06931457  1
  Al  Al21  1  0.44765398  0.42644915  0.82017106  1
  Al  Al22  1  0.55509773  0.54130284  0.56706133  1
  Al  Al23  1  0.09684101  0.77210531  0.38736688  1
  Al  Al24  1  0.20840886  0.88042120  0.14659599  1
  Al  Al25  1  0.78280364  0.76236352  0.82784447  1
  Al  Al26  1  0.44869175  0.76028765  0.32280029  1
  Al  Al27  1  0.55650823  0.86858125  0.06710809  1
  Al  Al28  1  0.10986494  0.76611176  0.89869393  1
  Al  Al29  1  0.20805645  0.87585187  0.64496619  1
  Al  Al30  1  0.77552466  0.75909626  0.31522155  1
  Al  Al31  1  0.88886348  0.87449824  0.10623401  1
  Al  Al32  1  0.44893297  0.75735728  0.82205651  1
  Al  Al33  1  0.55916760  0.87307476  0.57287252  1
  B  B34  1  0.88613076  0.20884770  0.11109635  1
  B  B35  1  0.88590651  0.87124607  0.61046352  1
  N  N36  1  0.22179118  0.20569213  0.34994729  1
  N  N37  1  0.07540763  0.11055199  0.08666892  1
  N  N38  1  0.88973627  0.20415609  0.81978918  1
  N  N39  1  0.78974601  0.05759885  0.62595376  1
  N  N40  1  0.55609998  0.20510753  0.38132231  1
  N  N41  1  0.45464221  0.09058882  0.12783619  1
  N  N42  1  0.22320350  0.20489880  0.87816591  1
  N  N43  1  0.12008281  0.08814810  0.58496848  1
  N  N44  1  0.88067832  0.20907349  0.39701436  1
  N  N45  1  0.79042992  0.11896400  0.12724740  1
  N  N46  1  0.55882134  0.20568156  0.88100589  1
  N  N47  1  0.44963837  0.09218954  0.63712322  1
  N  N48  1  0.22297389  0.53782533  0.38552435  1
  N  N49  1  0.10915662  0.43347612  0.13094416  1
  N  N50  1  0.88761214  0.53806311  0.88153850  1
  N  N51  1  0.77293556  0.44185993  0.62696110  1
  N  N52  1  0.55546829  0.53959049  0.37893950  1
  N  N53  1  0.44698274  0.42573168  0.13423422  1
  N  N54  1  0.22700367  0.53341839  0.88015502  1
  N  N55  1  0.10972644  0.42944727  0.63675254  1
  N  N56  1  0.88887398  0.54108348  0.38192899  1
  N  N57  1  0.79466899  0.39828805  0.13119909  1
  N  N58  1  0.55687655  0.53779878  0.88461595  1
  N  N59  1  0.44843477  0.42491038  0.63050660  1
  N  N60  1  0.21473629  0.87651192  0.33509074  1
  N  N61  1  0.11955719  0.75856824  0.08666178  1
  N  N62  1  0.87998196  0.87734406  0.89566966  1
  N  N63  1  0.79383571  0.77383257  0.63070944  1
  N  N64  1  0.55625721  0.87266936  0.38507789  1
  N  N65  1  0.44681556  0.76024492  0.13133458  1
  N  N66  1  0.21473417  0.87564842  0.83339165  1
  N  N67  1  0.07503959  0.77945014  0.58643107  1
  N  N68  1  0.88757345  0.87419973  0.32020088  1
  N  N69  1  0.77312523  0.75110023  0.12779326  1
  N  N70  1  0.55655801  0.86966584  0.87936395  1
  N  N71  1  0.44652248  0.75963437  0.63058704  1
