# generated using pymatgen
data_Al17BN18
_symmetry_space_group_name_H-M   'P 1'
_cell_length_a   9.33489649
_cell_length_b   9.32908781
_cell_length_c   10.17943825
_cell_angle_alpha   89.96435053
_cell_angle_beta   89.73379946
_cell_angle_gamma   59.85994085
_symmetry_Int_Tables_number   1
_chemical_formula_structural   Al17BN18
_chemical_formula_sum   'Al34 B2 N36'
_cell_volume   766.62491673
_cell_formula_units_Z   2
loop_
 _symmetry_equiv_pos_site_id
 _symmetry_equiv_pos_as_xyz
  1  'x, y, z'
loop_
 _atom_site_type_symbol
 _atom_site_label
 _atom_site_symmetry_multiplicity
 _atom_site_fract_x
 _atom_site_fract_y
 _atom_site_fract_z
 _atom_site_occupancy
  Al  Al0  1  0.11380540  0.09396278  0.39466778  1
  Al  Al1  1  0.20937685  0.21028039  0.13566041  1
  Al  Al2  1  0.78325273  0.08271796  0.81228131  1
  Al  Al3  1  0.89132920  0.20314044  0.60550645  1
  Al  Al4  1  0.45107159  0.09106399  0.31465577  1
  Al  Al5  1  0.56496595  0.20330471  0.06348118  1
  Al  Al6  1  0.10168696  0.09763181  0.88154105  1
  Al  Al7  1  0.21682783  0.20990723  0.64277598  1
  Al  Al8  1  0.78128628  0.10396412  0.31407749  1
  Al  Al9  1  0.45238119  0.08902364  0.81912727  1
  Al  Al10  1  0.56442799  0.19239141  0.56515418  1
  Al  Al11  1  0.11149306  0.42490914  0.38967840  1
  Al  Al12  1  0.22419044  0.53611902  0.14185193  1
  Al  Al13  1  0.78115700  0.42156653  0.87928072  1
  Al  Al14  1  0.89012661  0.54869566  0.64030018  1
  Al  Al15  1  0.44326586  0.43172237  0.38381556  1
  Al  Al16  1  0.55897389  0.53191694  0.13745946  1
  Al  Al17  1  0.11137535  0.42825168  0.88976925  1
  Al  Al18  1  0.21551163  0.54385247  0.63512633  1
  Al  Al19  1  0.77642812  0.43160814  0.39560209  1
  Al  Al20  1  0.89103854  0.52912161  0.14082893  1
  Al  Al21  1  0.44151408  0.43083163  0.87596041  1
  Al  Al22  1  0.55489567  0.54253542  0.64054739  1
  Al  Al23  1  0.10136646  0.76807603  0.38212371  1
  Al  Al24  1  0.21459211  0.87529607  0.14090562  1
  Al  Al25  1  0.78417782  0.75608536  0.89493691  1
  Al  Al26  1  0.43952651  0.75858714  0.38721441  1
  Al  Al27  1  0.55081998  0.87579579  0.07150148  1
  Al  Al28  1  0.11311830  0.75940046  0.89491338  1
  Al  Al29  1  0.21475712  0.87496884  0.64064608  1
  Al  Al30  1  0.78611216  0.76182024  0.37437230  1
  Al  Al31  1  0.89259488  0.87252180  0.10988483  1
  Al  Al32  1  0.43798261  0.75919274  0.88892201  1
  Al  Al33  1  0.55576242  0.87896263  0.56918833  1
  B  B34  1  0.88628456  0.20823044  0.09513053  1
  B  B35  1  0.88834391  0.87164325  0.59565737  1
  N  N36  1  0.21637253  0.20666194  0.32469959  1
  N  N37  1  0.07846437  0.10902545  0.07768459  1
  N  N38  1  0.88861216  0.20800120  0.81061002  1
  N  N39  1  0.79276327  0.05683849  0.61992813  1
  N  N40  1  0.56063204  0.19893485  0.37599141  1
  N  N41  1  0.45021405  0.09468593  0.12618143  1
  N  N42  1  0.21759416  0.20715694  0.83322244  1
  N  N43  1  0.12322723  0.09034928  0.58082179  1
  N  N44  1  0.88551305  0.20392861  0.38884056  1
  N  N45  1  0.79120518  0.11954241  0.12111411  1
  N  N46  1  0.56253554  0.19919039  0.87441925  1
  N  N47  1  0.44933924  0.09380133  0.63094584  1
  N  N48  1  0.22002957  0.53990595  0.33142070  1
  N  N49  1  0.11111042  0.42871955  0.07729830  1
  N  N50  1  0.88953526  0.53996708  0.82800705  1
  N  N51  1  0.77356489  0.44425263  0.58235383  1
  N  N52  1  0.55862442  0.53777033  0.32524361  1
  N  N53  1  0.44199902  0.43080784  0.08035534  1
  N  N54  1  0.21867778  0.54120979  0.82325086  1
  N  N55  1  0.11120190  0.42760209  0.57718670  1
  N  N56  1  0.89011849  0.53560548  0.32800045  1
  N  N57  1  0.79322157  0.39805574  0.07623247  1
  N  N58  1  0.55604831  0.53976467  0.82825674  1
  N  N59  1  0.44452586  0.43043870  0.58225553  1
  N  N60  1  0.21910384  0.87465192  0.32806403  1
  N  N61  1  0.12194676  0.75321422  0.08139587  1
  N  N62  1  0.88730612  0.87752748  0.88559278  1
  N  N63  1  0.79841942  0.77462720  0.57621616  1
  N  N64  1  0.55460815  0.87467206  0.37745951  1
  N  N65  1  0.43765663  0.75887608  0.08062335  1
  N  N66  1  0.21870270  0.87213698  0.82809372  1
  N  N67  1  0.07996951  0.77846028  0.57744587  1
  N  N68  1  0.88941205  0.87217102  0.31033369  1
  N  N69  1  0.77893616  0.74945517  0.08645432  1
  N  N70  1  0.55356225  0.87340817  0.87717023  1
  N  N71  1  0.43716373  0.76061326  0.57885261  1
