# generated using pymatgen
data_Al17BN18
_symmetry_space_group_name_H-M   'P 1'
_cell_length_a   9.28839526
_cell_length_b   9.34718810
_cell_length_c   10.25939792
_cell_angle_alpha   89.85611611
_cell_angle_beta   89.42404055
_cell_angle_gamma   59.86467600
_symmetry_Int_Tables_number   1
_chemical_formula_structural   Al17BN18
_chemical_formula_sum   'Al34 B2 N36'
_cell_volume   770.29404552
_cell_formula_units_Z   2
loop_
 _symmetry_equiv_pos_site_id
 _symmetry_equiv_pos_as_xyz
  1  'x, y, z'
loop_
 _atom_site_type_symbol
 _atom_site_label
 _atom_site_symmetry_multiplicity
 _atom_site_fract_x
 _atom_site_fract_y
 _atom_site_fract_z
 _atom_site_occupancy
  Al  Al0  1  0.11700551  0.09116346  0.39661449  1
  Al  Al1  1  0.21204421  0.20826105  0.13784607  1
  Al  Al2  1  0.78094518  0.08583744  0.81804062  1
  Al  Al3  1  0.89228544  0.19806973  0.60441661  1
  Al  Al4  1  0.45242815  0.09052368  0.31725723  1
  Al  Al5  1  0.56091390  0.20890837  0.06744159  1
  Al  Al6  1  0.10130257  0.09874846  0.88648725  1
  Al  Al7  1  0.21865394  0.20807137  0.64401836  1
  Al  Al8  1  0.78344853  0.10112675  0.31698513  1
  Al  Al9  1  0.44977751  0.09306800  0.82245260  1
  Al  Al10  1  0.56129055  0.19701627  0.56600633  1
  Al  Al11  1  0.11302395  0.42539406  0.39015039  1
  Al  Al12  1  0.21614958  0.54110640  0.14495070  1
  Al  Al13  1  0.77970517  0.42340547  0.85232152  1
  Al  Al14  1  0.89493157  0.54181727  0.63852704  1
  Al  Al15  1  0.45150650  0.42494808  0.32142726  1
  Al  Al16  1  0.55673866  0.53376688  0.06868230  1
  Al  Al17  1  0.10990936  0.42977399  0.89271563  1
  Al  Al18  1  0.20979691  0.54612508  0.63862229  1
  Al  Al19  1  0.78343712  0.42687881  0.39847701  1
  Al  Al20  1  0.89133533  0.52132922  0.13934158  1
  Al  Al21  1  0.44871895  0.42485568  0.81783602  1
  Al  Al22  1  0.54472018  0.54672683  0.57099650  1
  Al  Al23  1  0.10033678  0.76755146  0.38803570  1
  Al  Al24  1  0.20889317  0.87909050  0.14348293  1
  Al  Al25  1  0.77950270  0.77032792  0.82912020  1
  Al  Al26  1  0.45036951  0.75801126  0.31932631  1
  Al  Al27  1  0.55594292  0.86940703  0.06609247  1
  Al  Al28  1  0.11531369  0.75863239  0.89722251  1
  Al  Al29  1  0.20886108  0.87853064  0.64391154  1
  Al  Al30  1  0.77521785  0.76434257  0.31215090  1
  Al  Al31  1  0.88847083  0.87596631  0.09669303  1
  Al  Al32  1  0.44791239  0.76046925  0.82030406  1
  Al  Al33  1  0.55972991  0.87489417  0.56978372  1
  B  B34  1  0.88487707  0.20973592  0.09853047  1
  B  B35  1  0.88568157  0.87280452  0.60656925  1
  N  N36  1  0.21713769  0.20642812  0.32559760  1
  N  N37  1  0.08027204  0.10835901  0.07958220  1
  N  N38  1  0.89071883  0.20431853  0.81039783  1
  N  N39  1  0.79129547  0.05775806  0.62557513  1
  N  N40  1  0.55760216  0.20414367  0.38014257  1
  N  N41  1  0.45362266  0.09032646  0.12733614  1
  N  N42  1  0.21531975  0.20933791  0.83369857  1
  N  N43  1  0.12576010  0.08886746  0.58084291  1
  N  N44  1  0.88606645  0.20151579  0.39471678  1
  N  N45  1  0.79164325  0.11720954  0.12326829  1
  N  N46  1  0.55696863  0.20685547  0.88113060  1
  N  N47  1  0.45189542  0.09193240  0.63367717  1
  N  N48  1  0.21598704  0.54319054  0.33389716  1
  N  N49  1  0.11281290  0.42702491  0.07787828  1
  N  N50  1  0.89084579  0.53916604  0.82677168  1
  N  N51  1  0.77628266  0.43810933  0.59295362  1
  N  N52  1  0.54929222  0.54304007  0.38419735  1
  N  N53  1  0.45035725  0.42389015  0.13315180  1
  N  N54  1  0.21321835  0.54449459  0.82632188  1
  N  N55  1  0.11447143  0.42499190  0.57610169  1
  N  N56  1  0.89153515  0.53149362  0.32953289  1
  N  N57  1  0.79582027  0.39347331  0.08457207  1
  N  N58  1  0.54975960  0.54177487  0.88075885  1
  N  N59  1  0.45094238  0.42177681  0.62955035  1
  N  N60  1  0.21553665  0.87565504  0.33091032  1
  N  N61  1  0.12296397  0.75341836  0.08058642  1
  N  N62  1  0.88167697  0.87927812  0.89531296  1
  N  N63  1  0.79327931  0.77899634  0.62896155  1
  N  N64  1  0.55649479  0.87157952  0.38367559  1
  N  N65  1  0.44933337  0.75743260  0.12998305  1
  N  N66  1  0.21327909  0.87655922  0.83135481  1
  N  N67  1  0.07918879  0.77762721  0.58257681  1
  N  N68  1  0.88896076  0.87505987  0.32270100  1
  N  N69  1  0.77418672  0.75440859  0.12300855  1
  N  N70  1  0.55390608  0.87291120  0.88039024  1
  N  N71  1  0.44812640  0.76203944  0.63261707  1
