# generated using pymatgen
data_Al17BN18
_symmetry_space_group_name_H-M   'P 1'
_cell_length_a   9.33216655
_cell_length_b   9.33504442
_cell_length_c   10.00320999
_cell_angle_alpha   89.94127126
_cell_angle_beta   89.92846806
_cell_angle_gamma   60.02791297
_symmetry_Int_Tables_number   1
_chemical_formula_structural   Al17BN18
_chemical_formula_sum   'Al34 B2 N36'
_cell_volume   754.90202041
_cell_formula_units_Z   2
loop_
 _symmetry_equiv_pos_site_id
 _symmetry_equiv_pos_as_xyz
  1  'x, y, z'
loop_
 _atom_site_type_symbol
 _atom_site_label
 _atom_site_symmetry_multiplicity
 _atom_site_fract_x
 _atom_site_fract_y
 _atom_site_fract_z
 _atom_site_occupancy
  Al  Al0  1  0.10207149  0.10321896  0.30771921  1
  Al  Al1  1  0.21808255  0.20728336  0.06138913  1
  Al  Al2  1  0.78142060  0.09149258  0.82378205  1
  Al  Al3  1  0.89098365  0.19795312  0.56291765  1
  Al  Al4  1  0.44621299  0.09336228  0.31109504  1
  Al  Al5  1  0.55984881  0.20772587  0.05927977  1
  Al  Al6  1  0.10573384  0.10277981  0.82300772  1
  Al  Al7  1  0.22106160  0.20494730  0.56005118  1
  Al  Al8  1  0.77938230  0.09969088  0.30387680  1
  Al  Al9  1  0.44422252  0.09536990  0.81023174  1
  Al  Al10  1  0.56124287  0.19826797  0.56152934  1
  Al  Al11  1  0.10980670  0.42902467  0.31202243  1
  Al  Al12  1  0.22762822  0.52953394  0.06137627  1
  Al  Al13  1  0.77897307  0.42506299  0.81489844  1
  Al  Al14  1  0.89001807  0.54218792  0.56196569  1
  Al  Al15  1  0.44482026  0.42741795  0.31275076  1
  Al  Al16  1  0.56110672  0.53137841  0.06045042  1
  Al  Al17  1  0.11190120  0.42716968  0.80848551  1
  Al  Al18  1  0.21279231  0.54704375  0.56083040  1
  Al  Al19  1  0.78069248  0.42288721  0.30751908  1
  Al  Al20  1  0.89060121  0.53161309  0.05860409  1
  Al  Al21  1  0.44486909  0.42760143  0.80814040  1
  Al  Al22  1  0.55683440  0.53806077  0.55911248  1
  Al  Al23  1  0.10831899  0.76020329  0.30677729  1
  Al  Al24  1  0.22012886  0.87760169  0.11055245  1
  Al  Al25  1  0.78123107  0.76326442  0.81663751  1
  Al  Al26  1  0.44972805  0.75937874  0.31047379  1
  Al  Al27  1  0.55692334  0.87066965  0.05718203  1
  Al  Al28  1  0.10672484  0.76183798  0.85739852  1
  Al  Al29  1  0.21166381  0.87331724  0.62870199  1
  Al  Al30  1  0.77669467  0.76020214  0.30668602  1
  Al  Al31  1  0.88428434  0.87791926  0.08406265  1
  Al  Al32  1  0.45198025  0.75641022  0.81371025  1
  Al  Al33  1  0.55947213  0.87487385  0.56134468  1
  B  B34  1  0.88498866  0.20953508  0.05696881  1
  B  B35  1  0.89108350  0.87087732  0.60798289  1
  N  N36  1  0.22162732  0.20529623  0.36891717  1
  N  N37  1  0.08246533  0.11359572  0.11032811  1
  N  N38  1  0.88697448  0.20789507  0.89061632  1
  N  N39  1  0.79344706  0.06483777  0.62544734  1
  N  N40  1  0.55836251  0.20439100  0.37079097  1
  N  N41  1  0.44622340  0.09344502  0.11936546  1
  N  N42  1  0.22376879  0.20736417  0.87214282  1
  N  N43  1  0.10602231  0.10269211  0.62779824  1
  N  N44  1  0.88706160  0.20648761  0.37576390  1
  N  N45  1  0.78677299  0.11665408  0.11072994  1
  N  N46  1  0.55525682  0.20659044  0.86843344  1
  N  N47  1  0.44299108  0.09545910  0.62009324  1
  N  N48  1  0.22110238  0.54098538  0.37006008  1
  N  N49  1  0.11087407  0.42709314  0.12203485  1
  N  N50  1  0.89005973  0.53820189  0.86748986  1
  N  N51  1  0.77837101  0.42517533  0.62331027  1
  N  N52  1  0.55829490  0.53755258  0.36839012  1
  N  N53  1  0.44572983  0.42613315  0.12245681  1
  N  N54  1  0.22537501  0.53281719  0.87052030  1
  N  N55  1  0.11138474  0.42732627  0.61896225  1
  N  N56  1  0.88677325  0.53901670  0.37103319  1
  N  N57  1  0.79077646  0.40302831  0.11303424  1
  N  N58  1  0.55653765  0.53611746  0.87077936  1
  N  N59  1  0.44291815  0.42846623  0.61759415  1
  N  N60  1  0.22125140  0.87540218  0.32264477  1
  N  N61  1  0.11660974  0.75375638  0.10080593  1
  N  N62  1  0.88217692  0.87545344  0.88685301  1
  N  N63  1  0.79218895  0.77642856  0.62030428  1
  N  N64  1  0.55711369  0.87181498  0.37220545  1
  N  N65  1  0.45288799  0.75560175  0.11570485  1
  N  N66  1  0.22264782  0.87178828  0.83798040  1
  N  N67  1  0.07641051  0.77567150  0.61502282  1
  N  N68  1  0.88523857  0.87590043  0.32233819  1
  N  N69  1  0.77452155  0.75281407  0.11608846  1
  N  N70  1  0.55674820  0.87293724  0.86713926  1
  N  N71  1  0.44821229  0.75929036  0.61959303  1
