# generated using pymatgen
data_Al17BN18
_symmetry_space_group_name_H-M   'P 1'
_cell_length_a   9.34439617
_cell_length_b   9.33227324
_cell_length_c   10.18711974
_cell_angle_alpha   89.95457130
_cell_angle_beta   89.73185973
_cell_angle_gamma   59.83148071
_symmetry_Int_Tables_number   1
_chemical_formula_structural   Al17BN18
_chemical_formula_sum   'Al34 B2 N36'
_cell_volume   768.02486550
_cell_formula_units_Z   2
loop_
 _symmetry_equiv_pos_site_id
 _symmetry_equiv_pos_as_xyz
  1  'x, y, z'
loop_
 _atom_site_type_symbol
 _atom_site_label
 _atom_site_symmetry_multiplicity
 _atom_site_fract_x
 _atom_site_fract_y
 _atom_site_fract_z
 _atom_site_occupancy
  Al  Al0  1  0.11384821  0.09402172  0.39475257  1
  Al  Al1  1  0.20979760  0.20996789  0.13577896  1
  Al  Al2  1  0.78344051  0.08251302  0.81272697  1
  Al  Al3  1  0.89126825  0.20290656  0.60574219  1
  Al  Al4  1  0.45119272  0.09050937  0.31466119  1
  Al  Al5  1  0.56207584  0.20839443  0.06351057  1
  Al  Al6  1  0.10162098  0.09763836  0.88166757  1
  Al  Al7  1  0.21712576  0.20960624  0.64294376  1
  Al  Al8  1  0.78202563  0.10339863  0.31412638  1
  Al  Al9  1  0.45221256  0.08855231  0.81960387  1
  Al  Al10  1  0.56233250  0.19614590  0.56508288  1
  Al  Al11  1  0.11107638  0.42488721  0.39042354  1
  Al  Al12  1  0.21960265  0.53818602  0.14201763  1
  Al  Al13  1  0.78130640  0.42156863  0.88002645  1
  Al  Al14  1  0.89034737  0.54865979  0.64077790  1
  Al  Al15  1  0.44644959  0.42484165  0.33900326  1
  Al  Al16  1  0.56136175  0.53392201  0.13738220  1
  Al  Al17  1  0.11122633  0.42827535  0.89018060  1
  Al  Al18  1  0.21195424  0.54577347  0.63410967  1
  Al  Al19  1  0.77698889  0.43158972  0.39626818  1
  Al  Al20  1  0.89105914  0.52900597  0.14115349  1
  Al  Al21  1  0.44571238  0.42275070  0.82732812  1
  Al  Al22  1  0.55743271  0.54463523  0.64007878  1
  Al  Al23  1  0.10091215  0.76873953  0.38292308  1
  Al  Al24  1  0.21456676  0.87532609  0.14119341  1
  Al  Al25  1  0.78424130  0.75588689  0.89507245  1
  Al  Al26  1  0.43932327  0.75882406  0.38816330  1
  Al  Al27  1  0.55086876  0.87610597  0.07142482  1
  Al  Al28  1  0.11333661  0.75919195  0.89534183  1
  Al  Al29  1  0.21465336  0.87517824  0.64102487  1
  Al  Al30  1  0.78622358  0.76162691  0.37441821  1
  Al  Al31  1  0.89194869  0.87331065  0.10946907  1
  Al  Al32  1  0.43771238  0.75895544  0.88966708  1
  Al  Al33  1  0.55595270  0.87956259  0.56922706  1
  B  B34  1  0.88633258  0.20784207  0.09526164  1
  B  B35  1  0.88770520  0.87229196  0.59587588  1
  N  N36  1  0.21655790  0.20671734  0.32484301  1
  N  N37  1  0.07859168  0.10898094  0.07775187  1
  N  N38  1  0.88836627  0.20804723  0.81079161  1
  N  N39  1  0.79203355  0.05726165  0.62025435  1
  N  N40  1  0.56021304  0.19977205  0.37798879  1
  N  N41  1  0.45042232  0.09452359  0.12615876  1
  N  N42  1  0.21758038  0.20712290  0.83331820  1
  N  N43  1  0.12316375  0.09042507  0.58089208  1
  N  N44  1  0.88559513  0.20380218  0.38895333  1
  N  N45  1  0.79143821  0.11927373  0.12084101  1
  N  N46  1  0.56095095  0.20144835  0.87645187  1
  N  N47  1  0.44964645  0.09391144  0.63130297  1
  N  N48  1  0.21568827  0.54236657  0.33410324  1
  N  N49  1  0.11065012  0.42845791  0.07727025  1
  N  N50  1  0.88952234  0.53981256  0.82821309  1
  N  N51  1  0.77479817  0.44390086  0.58244098  1
  N  N52  1  0.56118266  0.54025615  0.32729277  1
  N  N53  1  0.44553229  0.42381298  0.11887155  1
  N  N54  1  0.21489839  0.54300590  0.82442830  1
  N  N55  1  0.11087788  0.42720502  0.57735330  1
  N  N56  1  0.89032012  0.53542095  0.32809503  1
  N  N57  1  0.79359869  0.39792304  0.07623215  1
  N  N58  1  0.55752319  0.54092593  0.83026729  1
  N  N59  1  0.44795087  0.42401698  0.61402525  1
  N  N60  1  0.21915879  0.87456952  0.32824429  1
  N  N61  1  0.12177192  0.75362921  0.08134971  1
  N  N62  1  0.88703012  0.87770282  0.88609873  1
  N  N63  1  0.79861335  0.77454406  0.57636176  1
  N  N64  1  0.55469461  0.87489078  0.37790071  1
  N  N65  1  0.43738966  0.75923813  0.08062359  1
  N  N66  1  0.21868675  0.87205528  0.82825579  1
  N  N67  1  0.07948143  0.77931165  0.57772065  1
  N  N68  1  0.88915249  0.87231655  0.31044641  1
  N  N69  1  0.77898055  0.74926162  0.08654381  1
  N  N70  1  0.55359994  0.87333756  0.87745645  1
  N  N71  1  0.43684071  0.76128937  0.57901693  1
