# generated using pymatgen
data_Al17BN18
_symmetry_space_group_name_H-M   'P 1'
_cell_length_a   9.30292406
_cell_length_b   9.32679388
_cell_length_c   10.17024976
_cell_angle_alpha   90.00000187
_cell_angle_beta   89.49346671
_cell_angle_gamma   59.91508060
_symmetry_Int_Tables_number   1
_chemical_formula_structural   Al17BN18
_chemical_formula_sum   'Al34 B2 N36'
_cell_volume   763.51781147
_cell_formula_units_Z   2
loop_
 _symmetry_equiv_pos_site_id
 _symmetry_equiv_pos_as_xyz
  1  'x, y, z'
loop_
 _atom_site_type_symbol
 _atom_site_label
 _atom_site_symmetry_multiplicity
 _atom_site_fract_x
 _atom_site_fract_y
 _atom_site_fract_z
 _atom_site_occupancy
  Al  Al0  1  0.11017451  0.09256730  0.39205348  1
  Al  Al1  1  0.22095711  0.20841749  0.06766066  1
  Al  Al2  1  0.77966680  0.08541344  0.81513982  1
  Al  Al3  1  0.88911579  0.20308416  0.59902051  1
  Al  Al4  1  0.44701184  0.09382620  0.31366818  1
  Al  Al5  1  0.56271660  0.20725464  0.06225016  1
  Al  Al6  1  0.09704953  0.09688953  0.88045539  1
  Al  Al7  1  0.22942919  0.20807735  0.56611180  1
  Al  Al8  1  0.77966742  0.10158464  0.31514011  1
  Al  Al9  1  0.44404307  0.09369644  0.81567298  1
  Al  Al10  1  0.56271668  0.19669610  0.56224993  1
  Al  Al11  1  0.11228455  0.42994630  0.31517945  1
  Al  Al12  1  0.22942870  0.52916198  0.06611231  1
  Al  Al13  1  0.77586633  0.43164435  0.80812540  1
  Al  Al14  1  0.89208971  0.54500233  0.56324742  1
  Al  Al15  1  0.44404353  0.42892678  0.31567299  1
  Al  Al16  1  0.55920155  0.53368741  0.06603982  1
  Al  Al17  1  0.11228497  0.42443601  0.81517948  1
  Al  Al18  1  0.22095720  0.53729321  0.56766095  1
  Al  Al19  1  0.78286345  0.42203463  0.32148951  1
  Al  Al20  1  0.89208980  0.52957510  0.06324710  1
  Al  Al21  1  0.44701254  0.42582807  0.81366839  1
  Al  Al22  1  0.55544130  0.54170505  0.56044865  1
  Al  Al23  1  0.09704966  0.77272632  0.38045488  1
  Al  Al24  1  0.20833264  0.88099437  0.13853454  1
  Al  Al25  1  0.78286338  0.76176861  0.82148933  1
  Al  Al26  1  0.44918349  0.76054041  0.31509173  1
  Al  Al27  1  0.55544060  0.86952040  0.06044852  1
  Al  Al28  1  0.11017526  0.76392422  0.89205325  1
  Al  Al29  1  0.20833306  0.87734043  0.63853437  1
  Al  Al30  1  0.77586507  0.75915526  0.30812509  1
  Al  Al31  1  0.88911475  0.87446740  0.09902010  1
  Al  Al32  1  0.44918458  0.75694189  0.81509133  1
  Al  Al33  1  0.55920141  0.87377823  0.56603966  1
  B  B34  1  0.88626610  0.20882186  0.10406049  1
  B  B35  1  0.88626613  0.87157920  0.60406015  1
  N  N36  1  0.22611711  0.20981528  0.37421297  1
  N  N37  1  0.07537643  0.11102001  0.07920034  1
  N  N38  1  0.88800039  0.20436833  0.81287181  1
  N  N39  1  0.78986683  0.05798499  0.61991917  1
  N  N40  1  0.55668019  0.20559085  0.37452952  1
  N  N41  1  0.44873113  0.09254378  0.12425121  1
  N  N42  1  0.22352139  0.20436522  0.87876025  1
  N  N43  1  0.12009491  0.08914528  0.57968222  1
  N  N44  1  0.88004242  0.20984105  0.38919181  1
  N  N45  1  0.78986674  0.11881524  0.11991949  1
  N  N46  1  0.55668010  0.20439532  0.87452973  1
  N  N47  1  0.44695186  0.09438635  0.62775556  1
  N  N48  1  0.22352202  0.53877937  0.37876045  1
  N  N49  1  0.11175145  0.42744596  0.12791055  1
  N  N50  1  0.88938733  0.53633113  0.87515597  1
  N  N51  1  0.77316672  0.44238667  0.62081958  1
  N  N52  1  0.55540730  0.54035827  0.37254807  1
  N  N53  1  0.44695167  0.42532915  0.12775566  1
  N  N54  1  0.22611784  0.53073399  0.87421337  1
  N  N55  1  0.11175166  0.42747037  0.62791059  1
  N  N56  1  0.88938710  0.54094813  0.37515627  1
  N  N57  1  0.79410678  0.39856821  0.12446223  1
  N  N58  1  0.55636191  0.53736747  0.87809763  1
  N  N59  1  0.44873136  0.42539195  0.62425144  1
  N  N60  1  0.21480119  0.87780386  0.32655407  1
  N  N61  1  0.12009411  0.75742813  0.07968213  1
  N  N62  1  0.88004288  0.87678240  0.88919180  1
  N  N63  1  0.79410668  0.77399215  0.62446213  1
  N  N64  1  0.55636098  0.87293743  0.37809750  1
  N  N65  1  0.44709626  0.75968413  0.12427348  1
  N  N66  1  0.21480202  0.87406096  0.82655387  1
  N  N67  1  0.07537650  0.78027103  0.57920008  1
  N  N68  1  0.88800021  0.87429633  0.31287173  1
  N  N69  1  0.77316597  0.75111347  0.12081926  1
  N  N70  1  0.55540732  0.87090106  0.87254793  1
  N  N71  1  0.44709683  0.75988600  0.62427324  1
