# generated using pymatgen
data_Al17BN18
_symmetry_space_group_name_H-M   'P 1'
_cell_length_a   9.30785544
_cell_length_b   9.31438230
_cell_length_c   10.01538906
_cell_angle_alpha   89.94364452
_cell_angle_beta   89.81135128
_cell_angle_gamma   60.01179513
_symmetry_Int_Tables_number   1
_chemical_formula_structural   Al17BN18
_chemical_formula_sum   'Al34 B2 N36'
_cell_volume   752.05788666
_cell_formula_units_Z   2
loop_
 _symmetry_equiv_pos_site_id
 _symmetry_equiv_pos_as_xyz
  1  'x, y, z'
loop_
 _atom_site_type_symbol
 _atom_site_label
 _atom_site_symmetry_multiplicity
 _atom_site_fract_x
 _atom_site_fract_y
 _atom_site_fract_z
 _atom_site_occupancy
  Al  Al0  1  0.11341284  0.09348393  0.40237227  1
  Al  Al1  1  0.21506804  0.20794037  0.14744629  1
  Al  Al2  1  0.78378896  0.08930923  0.83451710  1
  Al  Al3  1  0.89252504  0.20453522  0.61779460  1
  Al  Al4  1  0.44249965  0.09498786  0.39695197  1
  Al  Al5  1  0.56206047  0.20769700  0.14791480  1
  Al  Al6  1  0.10549166  0.09652175  0.89294434  1
  Al  Al7  1  0.22366340  0.20479794  0.65172677  1
  Al  Al8  1  0.77861625  0.09194327  0.39412446  1
  Al  Al9  1  0.44616504  0.09292458  0.90021065  1
  Al  Al10  1  0.55191587  0.20343060  0.64368053  1
  Al  Al11  1  0.10979338  0.42780235  0.39867971  1
  Al  Al12  1  0.22067529  0.54091109  0.14976042  1
  Al  Al13  1  0.78107398  0.42055178  0.89235581  1
  Al  Al14  1  0.89052164  0.54417216  0.65205677  1
  Al  Al15  1  0.44396014  0.42964200  0.39802262  1
  Al  Al16  1  0.55995706  0.53215975  0.14752096  1
  Al  Al17  1  0.11221241  0.42718986  0.90003299  1
  Al  Al18  1  0.21693479  0.54246090  0.64837828  1
  Al  Al19  1  0.77526502  0.43277917  0.40299791  1
  Al  Al20  1  0.89019467  0.53409644  0.14778630  1
  Al  Al21  1  0.44527118  0.42598959  0.89884439  1
  Al  Al22  1  0.55428820  0.54153335  0.65158006  1
  Al  Al23  1  0.10463584  0.76553527  0.40252181  1
  Al  Al24  1  0.21376570  0.87663032  0.14769878  1
  Al  Al25  1  0.77873967  0.76071748  0.89508181  1
  Al  Al26  1  0.44320297  0.76123350  0.39805896  1
  Al  Al27  1  0.55699206  0.87196914  0.15021518  1
  Al  Al28  1  0.11077536  0.75914985  0.89406897  1
  Al  Al29  1  0.21800021  0.87284878  0.65106450  1
  Al  Al30  1  0.78049172  0.76355169  0.40190606  1
  Al  Al31  1  0.89014620  0.87933995  0.14652265  1
  Al  Al32  1  0.44459193  0.76134645  0.90005017  1
  Al  Al33  1  0.55897861  0.87318992  0.64790703  1
  B  B34  1  0.88615509  0.20342808  0.10505817  1
  B  B35  1  0.89047460  0.86505442  0.65016220  1
  N  N36  1  0.22068316  0.20577064  0.33648595  1
  N  N37  1  0.08051008  0.10950894  0.08927627  1
  N  N38  1  0.89237031  0.20697572  0.82122507  1
  N  N39  1  0.78688213  0.06584877  0.60969963  1
  N  N40  1  0.55449261  0.20638750  0.34020766  1
  N  N41  1  0.44499563  0.09503857  0.09066149  1
  N  N42  1  0.22356758  0.20437349  0.84271576  1
  N  N43  1  0.12329351  0.08886945  0.59180257  1
  N  N44  1  0.88715462  0.20713673  0.39183997  1
  N  N45  1  0.79417812  0.11100581  0.10550679  1
  N  N46  1  0.55339882  0.20553900  0.83587619  1
  N  N47  1  0.44281112  0.09403951  0.58669564  1
  N  N48  1  0.22006262  0.54215216  0.34110585  1
  N  N49  1  0.11137253  0.42870826  0.08958624  1
  N  N50  1  0.89000817  0.53723445  0.84219773  1
  N  N51  1  0.77274171  0.44180646  0.59328552  1
  N  N52  1  0.55597661  0.53933240  0.33683848  1
  N  N53  1  0.44281904  0.42836389  0.08871011  1
  N  N54  1  0.22408217  0.53646861  0.83801309  1
  N  N55  1  0.11156486  0.42640402  0.58936420  1
  N  N56  1  0.88703610  0.54154945  0.33835968  1
  N  N57  1  0.79291298  0.39767384  0.08922635  1
  N  N58  1  0.55563177  0.53858209  0.84220762  1
  N  N59  1  0.44407487  0.42931594  0.58866910  1
  N  N60  1  0.21990751  0.87265589  0.33840340  1
  N  N61  1  0.10955748  0.76112897  0.08434959  1
  N  N62  1  0.89488856  0.86021857  0.81708563  1
  N  N63  1  0.79157731  0.77217852  0.59551975  1
  N  N64  1  0.55736450  0.87118856  0.34123012  1
  N  N65  1  0.44382971  0.76169490  0.09075125  1
  N  N66  1  0.22235575  0.87160876  0.84131168  1
  N  N67  1  0.08636992  0.77315695  0.59555954  1
  N  N68  1  0.88810761  0.87266282  0.33535112  1
  N  N69  1  0.77903563  0.76264072  0.08624247  1
  N  N70  1  0.55593178  0.87177032  0.83816923  1
  N  N71  1  0.44288451  0.76178595  0.58940438  1
