# generated using pymatgen
data_Al17BN18
_symmetry_space_group_name_H-M   'P 1'
_cell_length_a   9.31205181
_cell_length_b   9.35084772
_cell_length_c   10.18614954
_cell_angle_alpha   89.99963186
_cell_angle_beta   89.44515402
_cell_angle_gamma   59.85640951
_symmetry_Int_Tables_number   1
_chemical_formula_structural   Al17BN18
_chemical_formula_sum   'Al34 B2 N36'
_cell_volume   766.97220886
_cell_formula_units_Z   2
loop_
 _symmetry_equiv_pos_site_id
 _symmetry_equiv_pos_as_xyz
  1  'x, y, z'
loop_
 _atom_site_type_symbol
 _atom_site_label
 _atom_site_symmetry_multiplicity
 _atom_site_fract_x
 _atom_site_fract_y
 _atom_site_fract_z
 _atom_site_occupancy
  Al  Al0  1  0.11430978  0.09256734  0.39838584  1
  Al  Al1  1  0.21236222  0.20855644  0.13711729  1
  Al  Al2  1  0.78233682  0.08496264  0.82123546  1
  Al  Al3  1  0.88812394  0.20295651  0.60070918  1
  Al  Al4  1  0.45308592  0.08901563  0.31825173  1
  Al  Al5  1  0.56055292  0.20959917  0.06807435  1
  Al  Al6  1  0.09898188  0.09885038  0.88966333  1
  Al  Al7  1  0.21863517  0.20510365  0.64460116  1
  Al  Al8  1  0.78233628  0.09937056  0.32123543  1
  Al  Al9  1  0.45230294  0.09010637  0.82373295  1
  Al  Al10  1  0.56055103  0.19651289  0.56807461  1
  Al  Al11  1  0.11451055  0.42496077  0.37262876  1
  Al  Al12  1  0.21863503  0.54292162  0.14460125  1
  Al  Al13  1  0.77659169  0.43071092  0.81302342  1
  Al  Al14  1  0.88729407  0.54708052  0.56908131  1
  Al  Al15  1  0.45230327  0.42426384  0.32373280  1
  Al  Al16  1  0.55809887  0.53424540  0.07150140  1
  Al  Al17  1  0.11450994  0.42720057  0.87262860  1
  Al  Al18  1  0.21236142  0.54574344  0.63711706  1
  Al  Al19  1  0.78318672  0.42087505  0.32655339  1
  Al  Al20  1  0.88729365  0.53228798  0.06908097  1
  Al  Al21  1  0.45308595  0.42457155  0.81825181  1
  Al  Al22  1  0.55542969  0.54136608  0.56643898  1
  Al  Al23  1  0.09898128  0.76883820  0.38966322  1
  Al  Al24  1  0.20821505  0.88054782  0.14486684  1
  Al  Al25  1  0.78318726  0.76260802  0.82655285  1
  Al  Al26  1  0.44864929  0.75995985  0.32143245  1
  Al  Al27  1  0.55542889  0.86986966  0.06643910  1
  Al  Al28  1  0.11431030  0.75979254  0.89838611  1
  Al  Al29  1  0.20821620  0.87789843  0.64486768  1
  Al  Al30  1  0.77659165  0.75936709  0.31302291  1
  Al  Al31  1  0.88812460  0.87558195  0.10070980  1
  Al  Al32  1  0.44865054  0.75806383  0.82143227  1
  Al  Al33  1  0.55809952  0.87431917  0.57150141  1
  B  B34  1  0.88577923  0.20912533  0.10885889  1
  B  B35  1  0.88577940  0.87176201  0.60885915  1
  N  N36  1  0.21798422  0.20286051  0.32679044  1
  N  N37  1  0.07757232  0.11113571  0.08386404  1
  N  N38  1  0.88892762  0.20421417  0.82121296  1
  N  N39  1  0.79117565  0.05709837  0.62576506  1
  N  N40  1  0.55722516  0.20328435  0.38113582  1
  N  N41  1  0.45423643  0.09037556  0.12751180  1
  N  N42  1  0.21882405  0.20302499  0.83705455  1
  N  N43  1  0.12180967  0.08912957  0.58257117  1
  N  N44  1  0.88122389  0.20900557  0.39573013  1
  N  N45  1  0.79118081  0.11839689  0.12576391  1
  N  N46  1  0.55722431  0.20615182  0.88113611  1
  N  N47  1  0.45157351  0.09081273  0.63419872  1
  N  N48  1  0.21882455  0.54480816  0.33705412  1
  N  N49  1  0.11478928  0.42812187  0.09149515  1
  N  N50  1  0.88318920  0.54012012  0.87953790  1
  N  N51  1  0.77325649  0.44112379  0.62683032  1
  N  N52  1  0.55633643  0.54030627  0.37950945  1
  N  N53  1  0.45157386  0.42428886  0.13419860  1
  N  N54  1  0.21798408  0.54581330  0.82679056  1
  N  N55  1  0.11479108  0.42376168  0.59149530  1
  N  N56  1  0.88318929  0.54334768  0.37953830  1
  N  N57  1  0.79465199  0.39798825  0.13047124  1
  N  N58  1  0.55634901  0.53851363  0.88420034  1
  N  N59  1  0.45423649  0.42206429  0.62751124  1
  N  N60  1  0.21416582  0.87643847  0.33348949  1
  N  N61  1  0.12181065  0.75573385  0.08257115  1
  N  N62  1  0.88122449  0.87642690  0.89573015  1
  N  N63  1  0.79465607  0.77403041  0.63047077  1
  N  N64  1  0.55634819  0.87179850  0.38420061  1
  N  N65  1  0.44712525  0.75997574  0.13075958  1
  N  N66  1  0.21416747  0.87605256  0.83348951  1
  N  N67  1  0.07757227  0.77796168  0.58386423  1
  N  N68  1  0.88892721  0.87351369  0.32121240  1
  N  N69  1  0.77325557  0.75229424  0.12683111  1
  N  N70  1  0.55633758  0.87001782  0.87950915  1
  N  N71  1  0.44712573  0.75957515  0.63076022  1
