# generated using pymatgen
data_Al17BN18
_symmetry_space_group_name_H-M   'P 1'
_cell_length_a   9.29985365
_cell_length_b   9.30423403
_cell_length_c   10.10680290
_cell_angle_alpha   90.04645389
_cell_angle_beta   89.59319463
_cell_angle_gamma   60.00566400
_symmetry_Int_Tables_number   1
_chemical_formula_structural   Al17BN18
_chemical_formula_sum   'Al34 B2 N36'
_cell_volume   757.37244666
_cell_formula_units_Z   2
loop_
 _symmetry_equiv_pos_site_id
 _symmetry_equiv_pos_as_xyz
  1  'x, y, z'
loop_
 _atom_site_type_symbol
 _atom_site_label
 _atom_site_symmetry_multiplicity
 _atom_site_fract_x
 _atom_site_fract_y
 _atom_site_fract_z
 _atom_site_occupancy
  Al  Al0  1  0.11459546  0.09325902  0.40613316  1
  Al  Al1  1  0.21505303  0.20736475  0.14820851  1
  Al  Al2  1  0.78776754  0.08086370  0.82765705  1
  Al  Al3  1  0.89107039  0.20247756  0.61555155  1
  Al  Al4  1  0.44377235  0.09523634  0.39844630  1
  Al  Al5  1  0.55358178  0.21080399  0.14692650  1
  Al  Al6  1  0.10379327  0.09730111  0.89297933  1
  Al  Al7  1  0.22344889  0.20592521  0.65382827  1
  Al  Al8  1  0.78672783  0.09860203  0.33102093  1
  Al  Al9  1  0.44700457  0.09302228  0.89988180  1
  Al  Al10  1  0.55279478  0.20273450  0.64606220  1
  Al  Al11  1  0.11067907  0.42645182  0.40068196  1
  Al  Al12  1  0.22364542  0.53733089  0.15355339  1
  Al  Al13  1  0.78123967  0.42108729  0.89162695  1
  Al  Al14  1  0.89077213  0.54631674  0.65242802  1
  Al  Al15  1  0.44600395  0.42735929  0.39997779  1
  Al  Al16  1  0.55944198  0.53261925  0.14765385  1
  Al  Al17  1  0.11132508  0.42918793  0.90085135  1
  Al  Al18  1  0.21485819  0.54435367  0.64869552  1
  Al  Al19  1  0.77478209  0.43247016  0.40682094  1
  Al  Al20  1  0.89080613  0.52991320  0.15166229  1
  Al  Al21  1  0.44472726  0.42674969  0.89835386  1
  Al  Al22  1  0.55374028  0.54241441  0.65366560  1
  Al  Al23  1  0.10359225  0.76562524  0.39404168  1
  Al  Al24  1  0.21586116  0.87616200  0.15148935  1
  Al  Al25  1  0.77579799  0.75977610  0.90618921  1
  Al  Al26  1  0.44331198  0.76047366  0.40029074  1
  Al  Al27  1  0.55431993  0.87054970  0.15345017  1
  Al  Al28  1  0.11443679  0.75874760  0.90561396  1
  Al  Al29  1  0.21575544  0.87468917  0.65203805  1
  Al  Al30  1  0.78055522  0.76417346  0.39273913  1
  Al  Al31  1  0.89164025  0.87298918  0.11984260  1
  Al  Al32  1  0.44397597  0.76246547  0.90053317  1
  Al  Al33  1  0.55890817  0.87465732  0.64792243  1
  B  B34  1  0.88691271  0.20699222  0.10698163  1
  B  B35  1  0.88629090  0.87285515  0.60752129  1
  N  N36  1  0.22124870  0.20468562  0.33676924  1
  N  N37  1  0.07999657  0.10932747  0.08981701  1
  N  N38  1  0.89068842  0.20727763  0.82335136  1
  N  N39  1  0.79257692  0.05624811  0.62995777  1
  N  N40  1  0.55239883  0.20694451  0.33707209  1
  N  N41  1  0.44505868  0.09286429  0.08955712  1
  N  N42  1  0.22336547  0.20513685  0.84331630  1
  N  N43  1  0.12336845  0.09002767  0.59349323  1
  N  N44  1  0.88601534  0.20438289  0.40258243  1
  N  N45  1  0.79377935  0.11731985  0.13256421  1
  N  N46  1  0.55332155  0.20677236  0.83621224  1
  N  N47  1  0.44307546  0.09516234  0.58688394  1
  N  N48  1  0.22260074  0.53867857  0.34314230  1
  N  N49  1  0.11194861  0.42803134  0.09003126  1
  N  N50  1  0.88947487  0.54003510  0.84108956  1
  N  N51  1  0.77230366  0.44342772  0.59502035  1
  N  N52  1  0.55700132  0.53808135  0.33678494  1
  N  N53  1  0.44360363  0.42775634  0.08697842  1
  N  N54  1  0.22217549  0.53998927  0.83710696  1
  N  N55  1  0.11167684  0.42682203  0.58997340  1
  N  N56  1  0.88884863  0.53737255  0.34053661  1
  N  N57  1  0.79345555  0.39753295  0.08878380  1
  N  N58  1  0.55531658  0.53958593  0.84265991  1
  N  N59  1  0.44449906  0.42927837  0.58945365  1
  N  N60  1  0.22090830  0.87372445  0.34030911  1
  N  N61  1  0.12267372  0.75348761  0.09319265  1
  N  N62  1  0.88722619  0.87531028  0.89701395  1
  N  N63  1  0.79303998  0.77553516  0.58928684  1
  N  N64  1  0.55499811  0.87179095  0.34254405  1
  N  N65  1  0.44262839  0.76199441  0.09042397  1
  N  N66  1  0.22174902  0.87148732  0.84068491  1
  N  N67  1  0.07970936  0.77740757  0.59040964  1
  N  N68  1  0.89002804  0.86900964  0.32500322  1
  N  N69  1  0.77325357  0.75194887  0.09468106  1
  N  N70  1  0.55738418  0.87119284  0.83698889  1
  N  N71  1  0.44200290  0.76223241  0.59021800  1
