# generated using pymatgen
data_Al17BN18
_symmetry_space_group_name_H-M   'P 1'
_cell_length_a   9.30656252
_cell_length_b   9.31228006
_cell_length_c   10.05347475
_cell_angle_alpha   89.94615247
_cell_angle_beta   89.70427502
_cell_angle_gamma   60.01473538
_symmetry_Int_Tables_number   1
_chemical_formula_structural   Al17BN18
_chemical_formula_sum   'Al34 B2 N36'
_cell_volume   754.65778060
_cell_formula_units_Z   2
loop_
 _symmetry_equiv_pos_site_id
 _symmetry_equiv_pos_as_xyz
  1  'x, y, z'
loop_
 _atom_site_type_symbol
 _atom_site_label
 _atom_site_symmetry_multiplicity
 _atom_site_fract_x
 _atom_site_fract_y
 _atom_site_fract_z
 _atom_site_occupancy
  Al  Al0  1  0.11512261  0.09319049  0.40407794  1
  Al  Al1  1  0.21466872  0.20799624  0.14805825  1
  Al  Al2  1  0.78490545  0.08658584  0.82138156  1
  Al  Al3  1  0.89071186  0.20190172  0.61308675  1
  Al  Al4  1  0.44339930  0.09517591  0.39767837  1
  Al  Al5  1  0.55468223  0.21054912  0.14562394  1
  Al  Al6  1  0.10484801  0.09670340  0.89309019  1
  Al  Al7  1  0.22327999  0.20520665  0.65233927  1
  Al  Al8  1  0.78255530  0.10060550  0.34443878  1
  Al  Al9  1  0.44608626  0.09281660  0.89947010  1
  Al  Al10  1  0.55362560  0.20222089  0.64289254  1
  Al  Al11  1  0.10983628  0.42813092  0.39940387  1
  Al  Al12  1  0.22090474  0.54060889  0.15065287  1
  Al  Al13  1  0.78118015  0.41985598  0.89235236  1
  Al  Al14  1  0.89043021  0.54433507  0.65271554  1
  Al  Al15  1  0.44382767  0.42972709  0.39886117  1
  Al  Al16  1  0.55955185  0.53239637  0.14793998  1
  Al  Al17  1  0.11208159  0.42728625  0.90011289  1
  Al  Al18  1  0.21666067  0.54277907  0.64873454  1
  Al  Al19  1  0.77488794  0.43446604  0.40488818  1
  Al  Al20  1  0.89031424  0.53334602  0.14898169  1
  Al  Al21  1  0.44534006  0.42586324  0.89804681  1
  Al  Al22  1  0.55424572  0.54155186  0.65220233  1
  Al  Al23  1  0.10345012  0.76674279  0.40320457  1
  Al  Al24  1  0.21413343  0.87635895  0.14859172  1
  Al  Al25  1  0.77859532  0.75973646  0.89595702  1
  Al  Al26  1  0.44318059  0.76130681  0.39880900  1
  Al  Al27  1  0.55627922  0.87163048  0.15095627  1
  Al  Al28  1  0.11167360  0.75828298  0.89495434  1
  Al  Al29  1  0.21755255  0.87313870  0.65179072  1
  Al  Al30  1  0.78015627  0.76552605  0.40258240  1
  Al  Al31  1  0.89268810  0.87231278  0.14469114  1
  Al  Al32  1  0.44448887  0.76141396  0.90020189  1
  Al  Al33  1  0.55915236  0.87337649  0.64824406  1
  B  B34  1  0.88748385  0.20526445  0.10772239  1
  B  B35  1  0.88974778  0.86674650  0.64928213  1
  N  N36  1  0.22110701  0.20583771  0.33664426  1
  N  N37  1  0.08004351  0.10956890  0.09026264  1
  N  N38  1  0.89199847  0.20640376  0.82538708  1
  N  N39  1  0.78839769  0.06421338  0.62467066  1
  N  N40  1  0.55085419  0.20875111  0.33708755  1
  N  N41  1  0.44392203  0.09409854  0.08969750  1
  N  N42  1  0.22335618  0.20431473  0.84281077  1
  N  N43  1  0.12309633  0.08907325  0.59245978  1
  N  N44  1  0.88788885  0.20764888  0.39661153  1
  N  N45  1  0.79478718  0.11277611  0.12876036  1
  N  N46  1  0.55344336  0.20548134  0.83766372  1
  N  N47  1  0.44280840  0.09426716  0.58664828  1
  N  N48  1  0.22003154  0.54265102  0.34145413  1
  N  N49  1  0.11140192  0.42865991  0.08979496  1
  N  N50  1  0.88998134  0.53658715  0.84237135  1
  N  N51  1  0.77279856  0.44147884  0.59407223  1
  N  N52  1  0.55637884  0.53900641  0.33688437  1
  N  N53  1  0.44219616  0.42956044  0.08751534  1
  N  N54  1  0.22442119  0.53609417  0.83775183  1
  N  N55  1  0.11150718  0.42659893  0.58945825  1
  N  N56  1  0.88699433  0.54210930  0.33897068  1
  N  N57  1  0.79295816  0.39740690  0.09011751  1
  N  N58  1  0.55565773  0.53879521  0.84234184  1
  N  N59  1  0.44441749  0.42895947  0.58875184  1
  N  N60  1  0.21976743  0.87308546  0.33868344  1
  N  N61  1  0.11129197  0.76017394  0.08455100  1
  N  N62  1  0.89654238  0.85695659  0.82340790  1
  N  N63  1  0.79165705  0.77264207  0.59554001  1
  N  N64  1  0.55714497  0.87150441  0.34128945  1
  N  N65  1  0.44363325  0.76154111  0.09082587  1
  N  N66  1  0.22251938  0.87149646  0.84161545  1
  N  N67  1  0.08586771  0.77370280  0.59561652  1
  N  N68  1  0.88923418  0.87086401  0.33299634  1
  N  N69  1  0.77803809  0.76093663  0.08664012  1
  N  N70  1  0.55607330  0.87139817  0.83805494  1
  N  N71  1  0.44279043  0.76185084  0.58952440  1
