# generated using pymatgen
data_Al17BN18
_symmetry_space_group_name_H-M   'P 1'
_cell_length_a   9.29236681
_cell_length_b   9.35778888
_cell_length_c   10.24770696
_cell_angle_alpha   89.92924447
_cell_angle_beta   89.39482857
_cell_angle_gamma   59.81290187
_symmetry_Int_Tables_number   1
_chemical_formula_structural   Al17BN18
_chemical_formula_sum   'Al34 B2 N36'
_cell_volume   770.20438281
_cell_formula_units_Z   2
loop_
 _symmetry_equiv_pos_site_id
 _symmetry_equiv_pos_as_xyz
  1  'x, y, z'
loop_
 _atom_site_type_symbol
 _atom_site_label
 _atom_site_symmetry_multiplicity
 _atom_site_fract_x
 _atom_site_fract_y
 _atom_site_fract_z
 _atom_site_occupancy
  Al  Al0  1  0.11787201  0.09080618  0.39690232  1
  Al  Al1  1  0.21150187  0.20857279  0.13758803  1
  Al  Al2  1  0.78115501  0.08574446  0.81865570  1
  Al  Al3  1  0.89241005  0.19623223  0.60126613  1
  Al  Al4  1  0.45167559  0.09094830  0.31721506  1
  Al  Al5  1  0.56103579  0.20866381  0.06762976  1
  Al  Al6  1  0.09937345  0.10014884  0.88808133  1
  Al  Al7  1  0.21833877  0.20792574  0.64477321  1
  Al  Al8  1  0.78279866  0.09999661  0.31795578  1
  Al  Al9  1  0.44942296  0.09299151  0.82293423  1
  Al  Al10  1  0.56074385  0.19716502  0.56658611  1
  Al  Al11  1  0.11401256  0.42546345  0.39068073  1
  Al  Al12  1  0.21658138  0.54133721  0.14411953  1
  Al  Al13  1  0.77355673  0.42775461  0.81327736  1
  Al  Al14  1  0.89673187  0.54437979  0.63503785  1
  Al  Al15  1  0.45095110  0.42461649  0.32064400  1
  Al  Al16  1  0.56241921  0.53050651  0.06888087  1
  Al  Al17  1  0.10850594  0.43004886  0.89228335  1
  Al  Al18  1  0.21094679  0.54595665  0.63917353  1
  Al  Al19  1  0.78173823  0.42351273  0.37398170  1
  Al  Al20  1  0.89239174  0.52315218  0.14008373  1
  Al  Al21  1  0.44921068  0.42468478  0.81893759  1
  Al  Al22  1  0.54673837  0.54558275  0.56950263  1
  Al  Al23  1  0.10084803  0.76722644  0.38854834  1
  Al  Al24  1  0.20914280  0.87898019  0.14300026  1
  Al  Al25  1  0.77976714  0.76975887  0.82903737  1
  Al  Al26  1  0.44993972  0.75881381  0.31882526  1
  Al  Al27  1  0.55587241  0.86929933  0.06617623  1
  Al  Al28  1  0.11555179  0.75858370  0.89706371  1
  Al  Al29  1  0.20925770  0.87843964  0.64468763  1
  Al  Al30  1  0.77472133  0.76604631  0.31334690  1
  Al  Al31  1  0.88816617  0.87641498  0.09546881  1
  Al  Al32  1  0.44827243  0.75969977  0.82136300  1
  Al  Al33  1  0.55901612  0.87527706  0.56999287  1
  B  B34  1  0.88404546  0.21074046  0.10473482  1
  B  B35  1  0.88549672  0.87325504  0.60592996  1
  N  N36  1  0.21617239  0.20707104  0.32568572  1
  N  N37  1  0.07976672  0.10889960  0.08111991  1
  N  N38  1  0.89064144  0.20284573  0.81310145  1
  N  N39  1  0.79099581  0.05783832  0.62520960  1
  N  N40  1  0.55685189  0.20450554  0.38039802  1
  N  N41  1  0.45320078  0.09048929  0.12740406  1
  N  N42  1  0.21492932  0.20911737  0.83428168  1
  N  N43  1  0.12608030  0.08850330  0.58085378  1
  N  N44  1  0.88509374  0.20159336  0.39789356  1
  N  N45  1  0.79150236  0.11589656  0.12484735  1
  N  N46  1  0.55678786  0.20638857  0.88120545  1
  N  N47  1  0.45149213  0.09208826  0.63387831  1
  N  N48  1  0.21628086  0.54328723  0.33368579  1
  N  N49  1  0.11278923  0.42733628  0.07783019  1
  N  N50  1  0.89126262  0.53965594  0.82555055  1
  N  N51  1  0.77383388  0.43711730  0.60983808  1
  N  N52  1  0.54995455  0.54271063  0.38378537  1
  N  N53  1  0.45052159  0.42415355  0.13235251  1
  N  N54  1  0.21379052  0.54404287  0.82683885  1
  N  N55  1  0.11621945  0.42433217  0.57605439  1
  N  N56  1  0.89227552  0.53448891  0.33300147  1
  N  N57  1  0.79408398  0.39298456  0.11213083  1
  N  N58  1  0.55424685  0.53920811  0.88072589  1
  N  N59  1  0.45165759  0.42200537  0.62943563  1
  N  N60  1  0.21542003  0.87563763  0.33101520  1
  N  N61  1  0.12258397  0.75376830  0.08071869  1
  N  N62  1  0.88176771  0.87882406  0.89508561  1
  N  N63  1  0.79277695  0.77997140  0.62769676  1
  N  N64  1  0.55546468  0.87233105  0.38369545  1
  N  N65  1  0.44990945  0.75666203  0.12966023  1
  N  N66  1  0.21362367  0.87672370  0.83220568  1
  N  N67  1  0.07960503  0.77747345  0.58312401  1
  N  N68  1  0.88914393  0.87507850  0.32516526  1
  N  N69  1  0.77406003  0.75542723  0.12392311  1
  N  N70  1  0.55403959  0.87281892  0.88034265  1
  N  N71  1  0.44870175  0.76112717  0.63246252  1
