# generated using pymatgen
data_Al17BN18
_symmetry_space_group_name_H-M   'P 1'
_cell_length_a   9.30054050
_cell_length_b   9.29830878
_cell_length_c   9.94034073
_cell_angle_alpha   90.00000206
_cell_angle_beta   90.03195039
_cell_angle_gamma   60.00793835
_symmetry_Int_Tables_number   1
_chemical_formula_structural   Al17BN18
_chemical_formula_sum   'Al34 B2 N36'
_cell_volume   744.52399662
_cell_formula_units_Z   2
loop_
 _symmetry_equiv_pos_site_id
 _symmetry_equiv_pos_as_xyz
  1  'x, y, z'
loop_
 _atom_site_type_symbol
 _atom_site_label
 _atom_site_symmetry_multiplicity
 _atom_site_fract_x
 _atom_site_fract_y
 _atom_site_fract_z
 _atom_site_occupancy
  Al  Al0  1  0.10841188  0.09559859  0.40486478  1
  Al  Al1  1  0.21708309  0.20741841  0.16183412  1
  Al  Al2  1  0.78171208  0.09439957  0.90951055  1
  Al  Al3  1  0.89029197  0.19999951  0.66009355  1
  Al  Al4  1  0.44446688  0.09479204  0.41161639  1
  Al  Al5  1  0.56081511  0.20654694  0.16194489  1
  Al  Al6  1  0.10549363  0.09713844  0.91620671  1
  Al  Al7  1  0.22099485  0.20464358  0.66176854  1
  Al  Al8  1  0.78171212  0.09055537  0.40951042  1
  Al  Al9  1  0.44440787  0.09421480  0.91243241  1
  Al  Al10  1  0.56081558  0.19930459  0.66194479  1
  Al  Al11  1  0.11079688  0.42810179  0.41192853  1
  Al  Al12  1  0.22099479  0.54102835  0.16176853  1
  Al  Al13  1  0.78073411  0.42209866  0.91572015  1
  Al  Al14  1  0.88960911  0.54103401  0.66147533  1
  Al  Al15  1  0.44440779  0.42804386  0.41243247  1
  Al  Al16  1  0.55899439  0.53388450  0.16174318  1
  Al  Al17  1  0.11079669  0.42776751  0.91192866  1
  Al  Al18  1  0.21708318  0.54216518  0.66183415  1
  Al  Al19  1  0.77893492  0.42518086  0.40496519  1
  Al  Al20  1  0.88960874  0.53602352  0.16147534  1
  Al  Al21  1  0.44446651  0.42740748  0.91161643  1
  Al  Al22  1  0.55728763  0.53758399  0.66224087  1
  Al  Al23  1  0.10549382  0.76403407  0.41620664  1
  Al  Al24  1  0.21610963  0.87502765  0.16156155  1
  Al  Al25  1  0.77893508  0.76255081  0.90496505  1
  Al  Al26  1  0.44435013  0.76075691  0.41165691  1
  Al  Al27  1  0.55728800  0.87179489  0.16224077  1
  Al  Al28  1  0.10841161  0.76265589  0.90486483  1
  Al  Al29  1  0.21610988  0.87552988  0.66156158  1
  Al  Al30  1  0.78073473  0.76383363  0.41572023  1
  Al  Al31  1  0.89029159  0.87637541  0.16009356  1
  Al  Al32  1  0.44434999  0.76156022  0.91165684  1
  Al  Al33  1  0.55899486  0.87378793  0.66174313  1
  B  B34  1  0.88898743  0.20473035  0.16440972  1
  B  B35  1  0.88898777  0.87294884  0.66440970  1
  N  N36  1  0.22226910  0.20610621  0.35187784  1
  N  N37  1  0.08587704  0.10692099  0.11036038  1
  N  N38  1  0.88928902  0.20562867  0.84827996  1
  N  N39  1  0.79090541  0.06992446  0.60566959  1
  N  N40  1  0.55745163  0.20512987  0.35384595  1
  N  N41  1  0.44437526  0.09521690  0.10403181  1
  N  N42  1  0.22097758  0.20427691  0.85458407  1
  N  N43  1  0.10939696  0.09547643  0.59696083  1
  N  N44  1  0.88798515  0.20442843  0.33183169  1
  N  N45  1  0.79090507  0.10583715  0.10566969  1
  N  N46  1  0.55745163  0.20408514  0.85384589  1
  N  N47  1  0.44336439  0.09514653  0.60265922  1
  N  N48  1  0.22097766  0.54141172  0.35458405  1
  N  N49  1  0.11100126  0.42875211  0.10268724  1
  N  N50  1  0.88785869  0.53732301  0.85325538  1
  N  N51  1  0.77911001  0.42505450  0.59805894  1
  N  N52  1  0.55500895  0.53894988  0.35198896  1
  N  N53  1  0.44336411  0.42815606  0.10265927  1
  N  N54  1  0.22226874  0.53829105  0.85187792  1
  N  N55  1  0.11100143  0.42691320  0.60268709  1
  N  N56  1  0.88785882  0.54148462  0.35325540  1
  N  N57  1  0.79059656  0.40283420  0.11008214  1
  N  N58  1  0.55785458  0.53773595  0.85458346  1
  N  N59  1  0.44437515  0.42707452  0.60403185  1
  N  N60  1  0.22112844  0.87042755  0.35332820  1
  N  N61  1  0.10939676  0.76179359  0.09696096  1
  N  N62  1  0.88798508  0.87425335  0.83183170  1
  N  N63  1  0.79059702  0.77323559  0.61008218  1
  N  N64  1  0.55785522  0.87107573  0.35458331  1
  N  N65  1  0.44389971  0.76145888  0.10363328  1
  N  N66  1  0.22112827  0.87511054  0.85332823  1
  N  N67  1  0.08587738  0.77386866  0.61036042  1
  N  N68  1  0.88928914  0.87174905  0.34827997  1
  N  N69  1  0.77911006  0.76250203  0.09805878  1
  N  N70  1  0.55500923  0.87270782  0.85198883  1
  N  N71  1  0.44389991  0.76130844  0.60363335  1
