# generated using pymatgen
data_Al17BN18
_symmetry_space_group_name_H-M   'P 1'
_cell_length_a   9.32618878
_cell_length_b   9.33720066
_cell_length_c   10.23673227
_cell_angle_alpha   89.99462507
_cell_angle_beta   89.73221030
_cell_angle_gamma   59.92064808
_symmetry_Int_Tables_number   1
_chemical_formula_structural   Al17BN18
_chemical_formula_sum   'Al34 B2 N36'
_cell_volume   771.36306968
_cell_formula_units_Z   2
loop_
 _symmetry_equiv_pos_site_id
 _symmetry_equiv_pos_as_xyz
  1  'x, y, z'
loop_
 _atom_site_type_symbol
 _atom_site_label
 _atom_site_symmetry_multiplicity
 _atom_site_fract_x
 _atom_site_fract_y
 _atom_site_fract_z
 _atom_site_occupancy
  Al  Al0  1  0.11566606  0.09232336  0.39627224  1
  Al  Al1  1  0.21004834  0.21017669  0.13723748  1
  Al  Al2  1  0.78314191  0.08279286  0.81386546  1
  Al  Al3  1  0.89250742  0.20138606  0.60621230  1
  Al  Al4  1  0.45180067  0.09041500  0.31587040  1
  Al  Al5  1  0.56199049  0.20674125  0.06407774  1
  Al  Al6  1  0.10103293  0.09882103  0.88298192  1
  Al  Al7  1  0.21766032  0.21004304  0.64393551  1
  Al  Al8  1  0.78301392  0.10195791  0.31565470  1
  Al  Al9  1  0.45185364  0.09134662  0.82060652  1
  Al  Al10  1  0.56238953  0.19593644  0.56472663  1
  Al  Al11  1  0.11235296  0.42478292  0.39097987  1
  Al  Al12  1  0.21552187  0.53955924  0.14309967  1
  Al  Al13  1  0.78292786  0.42077421  0.87985722  1
  Al  Al14  1  0.89036269  0.54946086  0.64161333  1
  Al  Al15  1  0.45063142  0.42169308  0.32039107  1
  Al  Al16  1  0.55851193  0.53301341  0.09936999  1
  Al  Al17  1  0.11089724  0.42931637  0.89076808  1
  Al  Al18  1  0.21011196  0.54657566  0.63726295  1
  Al  Al19  1  0.77951322  0.42862187  0.39558710  1
  Al  Al20  1  0.88966859  0.52941648  0.14264565  1
  Al  Al21  1  0.44861137  0.42312231  0.82101022  1
  Al  Al22  1  0.55665705  0.54078174  0.60850819  1
  Al  Al23  1  0.10289081  0.76652270  0.38344279  1
  Al  Al24  1  0.20604410  0.88122874  0.14158941  1
  Al  Al25  1  0.78390424  0.75618453  0.89692312  1
  Al  Al26  1  0.44871188  0.76014670  0.31759536  1
  Al  Al27  1  0.54669731  0.87545893  0.06843714  1
  Al  Al28  1  0.11422918  0.75943677  0.89669994  1
  Al  Al29  1  0.20757931  0.87880325  0.64268972  1
  Al  Al30  1  0.78592726  0.76088038  0.37736491  1
  Al  Al31  1  0.89023523  0.87277573  0.11034131  1
  Al  Al32  1  0.44631509  0.76333632  0.82356237  1
  Al  Al33  1  0.55155142  0.87893837  0.56838347  1
  B  B34  1  0.88668183  0.20746503  0.09645165  1
  B  B35  1  0.88661205  0.87219103  0.59619022  1
  N  N36  1  0.21674432  0.20656840  0.32537426  1
  N  N37  1  0.07846504  0.10965891  0.07792915  1
  N  N38  1  0.88821925  0.20846682  0.81044955  1
  N  N39  1  0.79235479  0.05659998  0.62132778  1
  N  N40  1  0.55945376  0.20106566  0.37899546  1
  N  N41  1  0.45126242  0.09336740  0.12741460  1
  N  N42  1  0.21686116  0.20855103  0.83333993  1
  N  N43  1  0.12473456  0.09023451  0.58106892  1
  N  N44  1  0.88716432  0.20146224  0.39103957  1
  N  N45  1  0.79159360  0.11867882  0.12253575  1
  N  N46  1  0.56010208  0.20345118  0.87863816  1
  N  N47  1  0.45064998  0.09366234  0.63239045  1
  N  N48  1  0.21647626  0.54122933  0.33327939  1
  N  N49  1  0.10975486  0.42815160  0.07731039  1
  N  N50  1  0.88844675  0.54136536  0.82793844  1
  N  N51  1  0.77956319  0.44039111  0.58379384  1
  N  N52  1  0.56002918  0.53643365  0.34748176  1
  N  N53  1  0.44623561  0.42024472  0.12877925  1
  N  N54  1  0.21460753  0.54377125  0.82573410  1
  N  N55  1  0.11153338  0.42728150  0.57769418  1
  N  N56  1  0.89043257  0.53535219  0.32878555  1
  N  N57  1  0.79729667  0.39504542  0.07708831  1
  N  N58  1  0.55357955  0.54039732  0.86637885  1
  N  N59  1  0.45072034  0.42031420  0.62760365  1
  N  N60  1  0.21450421  0.87680346  0.32967111  1
  N  N61  1  0.12168903  0.75319984  0.08134524  1
  N  N62  1  0.88633728  0.87837081  0.88742332  1
  N  N63  1  0.79732657  0.77483054  0.57625014  1
  N  N64  1  0.55141349  0.87392471  0.38177193  1
  N  N65  1  0.44184153  0.76453659  0.12698081  1
  N  N66  1  0.21285119  0.87642097  0.83044598  1
  N  N67  1  0.07974316  0.77827462  0.57810803  1
  N  N68  1  0.88882626  0.87081144  0.31124095  1
  N  N69  1  0.77731113  0.74876557  0.08598801  1
  N  N70  1  0.55025640  0.87589587  0.88134589  1
  N  N71  1  0.44510408  0.76512416  0.63142103  1
