# generated using pymatgen
data_Al17BN18
_symmetry_space_group_name_H-M   'P 1'
_cell_length_a   9.33164247
_cell_length_b   9.33580423
_cell_length_c   10.00834358
_cell_angle_alpha   89.93420655
_cell_angle_beta   89.90906504
_cell_angle_gamma   60.03526327
_symmetry_Int_Tables_number   1
_chemical_formula_structural   Al17BN18
_chemical_formula_sum   'Al34 B2 N36'
_cell_volume   755.36401639
_cell_formula_units_Z   2
loop_
 _symmetry_equiv_pos_site_id
 _symmetry_equiv_pos_as_xyz
  1  'x, y, z'
loop_
 _atom_site_type_symbol
 _atom_site_label
 _atom_site_symmetry_multiplicity
 _atom_site_fract_x
 _atom_site_fract_y
 _atom_site_fract_z
 _atom_site_occupancy
  Al  Al0  1  0.10183553  0.10367978  0.30768754  1
  Al  Al1  1  0.21811942  0.20708837  0.06113671  1
  Al  Al2  1  0.78169543  0.09114530  0.82359425  1
  Al  Al3  1  0.89104944  0.19779371  0.56311879  1
  Al  Al4  1  0.44628475  0.09328394  0.31107954  1
  Al  Al5  1  0.56003047  0.20766388  0.05885149  1
  Al  Al6  1  0.10562729  0.10301128  0.82282257  1
  Al  Al7  1  0.22104822  0.20475873  0.56029151  1
  Al  Al8  1  0.77901555  0.10050289  0.30346054  1
  Al  Al9  1  0.44428131  0.09540063  0.81012479  1
  Al  Al10  1  0.56131680  0.19823261  0.56175352  1
  Al  Al11  1  0.10976041  0.42862942  0.31207286  1
  Al  Al12  1  0.22891633  0.52712049  0.06214420  1
  Al  Al13  1  0.77898288  0.42510302  0.81475633  1
  Al  Al14  1  0.88997415  0.54235614  0.56215357  1
  Al  Al15  1  0.44532598  0.42700394  0.31278725  1
  Al  Al16  1  0.56129313  0.53134701  0.06026212  1
  Al  Al17  1  0.11196963  0.42770529  0.80833238  1
  Al  Al18  1  0.21240499  0.54754380  0.56045883  1
  Al  Al19  1  0.78074868  0.42288304  0.30749993  1
  Al  Al20  1  0.89052727  0.53143338  0.05823534  1
  Al  Al21  1  0.44449956  0.42792212  0.80793682  1
  Al  Al22  1  0.55668124  0.53821914  0.55925158  1
  Al  Al23  1  0.10829367  0.76034013  0.30947784  1
  Al  Al24  1  0.22063224  0.87808029  0.11281228  1
  Al  Al25  1  0.78182648  0.76342019  0.81646534  1
  Al  Al26  1  0.45026156  0.75903391  0.31039258  1
  Al  Al27  1  0.55690444  0.87053379  0.05672395  1
  Al  Al28  1  0.10835929  0.76274407  0.87333396  1
  Al  Al29  1  0.21029110  0.87256021  0.63074768  1
  Al  Al30  1  0.77633633  0.75966616  0.30622613  1
  Al  Al31  1  0.88267950  0.87870230  0.08665312  1
  Al  Al32  1  0.45197562  0.75644068  0.81338878  1
  Al  Al33  1  0.55934937  0.87478296  0.56159580  1
  B  B34  1  0.88470087  0.20982504  0.05679630  1
  B  B35  1  0.89203525  0.87049558  0.60759393  1
  N  N36  1  0.22172721  0.20504594  0.36905830  1
  N  N37  1  0.08242355  0.11377152  0.11036931  1
  N  N38  1  0.88695675  0.20799930  0.89062732  1
  N  N39  1  0.79331943  0.06502117  0.62544917  1
  N  N40  1  0.55854615  0.20412217  0.37092751  1
  N  N41  1  0.44634772  0.09336127  0.11933439  1
  N  N42  1  0.22372728  0.20755140  0.87206058  1
  N  N43  1  0.10608652  0.10243478  0.62784449  1
  N  N44  1  0.88710279  0.20639887  0.37586298  1
  N  N45  1  0.78639962  0.11757562  0.11067171  1
  N  N46  1  0.55521558  0.20677465  0.86824423  1
  N  N47  1  0.44297295  0.09545137  0.62006521  1
  N  N48  1  0.22142260  0.54043015  0.36904759  1
  N  N49  1  0.11067951  0.42679591  0.12229383  1
  N  N50  1  0.89012642  0.53819899  0.86733749  1
  N  N51  1  0.77831405  0.42520971  0.62324064  1
  N  N52  1  0.55834252  0.53749958  0.36845446  1
  N  N53  1  0.44630954  0.42579270  0.12273685  1
  N  N54  1  0.22554744  0.53266480  0.87111914  1
  N  N55  1  0.11148733  0.42736077  0.61881350  1
  N  N56  1  0.88685011  0.53898948  0.37114222  1
  N  N57  1  0.79080177  0.40306875  0.11304634  1
  N  N58  1  0.55645346  0.53620659  0.87072687  1
  N  N59  1  0.44264059  0.42861772  0.61737435  1
  N  N60  1  0.22121603  0.87529284  0.32029942  1
  N  N61  1  0.11726594  0.75416519  0.09508457  1
  N  N62  1  0.88156424  0.87594973  0.88758826  1
  N  N63  1  0.79216716  0.77641717  0.62016610  1
  N  N64  1  0.55712504  0.87179966  0.37230033  1
  N  N65  1  0.45315807  0.75539638  0.11565828  1
  N  N66  1  0.22217145  0.87167608  0.83687501  1
  N  N67  1  0.07559275  0.77679324  0.60730038  1
  N  N68  1  0.88509541  0.87593279  0.31688229  1
  N  N69  1  0.77407759  0.75206561  0.11590460  1
  N  N70  1  0.55679229  0.87291277  0.86690291  1
  N  N71  1  0.44764692  0.75944796  0.61945656  1
