# generated using pymatgen
data_Al17BN18
_symmetry_space_group_name_H-M   'P 1'
_cell_length_a   9.31692394
_cell_length_b   9.33323428
_cell_length_c   10.10781448
_cell_angle_alpha   90.04309941
_cell_angle_beta   89.79087106
_cell_angle_gamma   59.99952952
_symmetry_Int_Tables_number   1
_chemical_formula_structural   Al17BN18
_chemical_formula_sum   'Al34 B2 N36'
_cell_volume   761.17713986
_cell_formula_units_Z   2
loop_
 _symmetry_equiv_pos_site_id
 _symmetry_equiv_pos_as_xyz
  1  'x, y, z'
loop_
 _atom_site_type_symbol
 _atom_site_label
 _atom_site_symmetry_multiplicity
 _atom_site_fract_x
 _atom_site_fract_y
 _atom_site_fract_z
 _atom_site_occupancy
  Al  Al0  1  0.11299056  0.09368512  0.40519416  1
  Al  Al1  1  0.21193649  0.20921737  0.14442667  1
  Al  Al2  1  0.78245427  0.08276164  0.82366567  1
  Al  Al3  1  0.89125966  0.20273923  0.61656675  1
  Al  Al4  1  0.44461343  0.09704821  0.34206763  1
  Al  Al5  1  0.56568401  0.20151986  0.07600293  1
  Al  Al6  1  0.10088865  0.09745020  0.89190838  1
  Al  Al7  1  0.21921892  0.20875197  0.65176814  1
  Al  Al8  1  0.78215735  0.10256474  0.32418048  1
  Al  Al9  1  0.44675558  0.09438943  0.84900124  1
  Al  Al10  1  0.56519023  0.19161043  0.57568845  1
  Al  Al11  1  0.10982652  0.42727678  0.40008391  1
  Al  Al12  1  0.22487047  0.53621778  0.15268942  1
  Al  Al13  1  0.78093634  0.42149529  0.88972204  1
  Al  Al14  1  0.89107309  0.54635790  0.65085766  1
  Al  Al15  1  0.44258603  0.43482786  0.39895460  1
  Al  Al16  1  0.55944545  0.53160932  0.14756046  1
  Al  Al17  1  0.10982795  0.43070525  0.90033949  1
  Al  Al18  1  0.21662048  0.54289349  0.64716662  1
  Al  Al19  1  0.77559393  0.43159478  0.40559388  1
  Al  Al20  1  0.89155281  0.52886527  0.15104313  1
  Al  Al21  1  0.44015673  0.43519233  0.89640910  1
  Al  Al22  1  0.55414718  0.54177474  0.65249040  1
  Al  Al23  1  0.10159425  0.76758699  0.39138455  1
  Al  Al24  1  0.21610195  0.87565078  0.15051302  1
  Al  Al25  1  0.77678527  0.75906208  0.90591223  1
  Al  Al26  1  0.44292563  0.76091370  0.40018453  1
  Al  Al27  1  0.55742555  0.86429914  0.15056621  1
  Al  Al28  1  0.11280623  0.76033305  0.90471993  1
  Al  Al29  1  0.21604417  0.87471310  0.65051330  1
  Al  Al30  1  0.78140739  0.76422070  0.39071332  1
  Al  Al31  1  0.89231621  0.87180223  0.11766639  1
  Al  Al32  1  0.44324130  0.76265914  0.90021153  1
  Al  Al33  1  0.56157927  0.86984978  0.64582598  1
  B  B34  1  0.88686788  0.20774102  0.10609112  1
  B  B35  1  0.88809843  0.87116812  0.60606621  1
  N  N36  1  0.21416563  0.20856885  0.33544150  1
  N  N37  1  0.07857652  0.10911478  0.08852379  1
  N  N38  1  0.88802649  0.20786169  0.82136123  1
  N  N39  1  0.79307725  0.05541833  0.63032254  1
  N  N40  1  0.56132200  0.20205158  0.38435753  1
  N  N41  1  0.44713742  0.09352125  0.12329678  1
  N  N42  1  0.21611552  0.20852822  0.84434815  1
  N  N43  1  0.12243616  0.09012361  0.59224237  1
  N  N44  1  0.88518672  0.20426896  0.39885530  1
  N  N45  1  0.79178591  0.11867650  0.13125350  1
  N  N46  1  0.56238567  0.20256382  0.88457936  1
  N  N47  1  0.44483207  0.09585154  0.62573732  1
  N  N48  1  0.22117440  0.53956535  0.34200817  1
  N  N49  1  0.11143063  0.42909904  0.08863354  1
  N  N50  1  0.88899966  0.54057857  0.83945194  1
  N  N51  1  0.77284323  0.44304937  0.59380012  1
  N  N52  1  0.55725734  0.53906668  0.33595492  1
  N  N53  1  0.44189257  0.43174152  0.08798029  1
  N  N54  1  0.21994241  0.54149397  0.83553651  1
  N  N55  1  0.11107815  0.42790315  0.58853537  1
  N  N56  1  0.88851280  0.53770390  0.33966482  1
  N  N57  1  0.79369821  0.39711649  0.08756700  1
  N  N58  1  0.55509819  0.54093917  0.84104421  1
  N  N59  1  0.44366061  0.43218951  0.59038934  1
  N  N60  1  0.22070127  0.87421634  0.33943250  1
  N  N61  1  0.12307130  0.75303065  0.09245500  1
  N  N62  1  0.88557212  0.87769239  0.89827887  1
  N  N63  1  0.79435813  0.77515920  0.58719296  1
  N  N64  1  0.55714140  0.86692004  0.34232966  1
  N  N65  1  0.44214551  0.76092513  0.08930860  1
  N  N66  1  0.22084284  0.87211151  0.83955118  1
  N  N67  1  0.07975741  0.77733530  0.58868676  1
  N  N68  1  0.88809758  0.87116114  0.32170547  1
  N  N69  1  0.77507944  0.74939782  0.09343170  1
  N  N70  1  0.56057340  0.86445595  0.83733900  1
  N  N71  1  0.44190161  0.76162187  0.58923796  1
