# generated using pymatgen
data_Al17BN18
_symmetry_space_group_name_H-M   'P 1'
_cell_length_a   9.31441088
_cell_length_b   9.33401762
_cell_length_c   10.08205732
_cell_angle_alpha   89.99968361
_cell_angle_beta   89.74767637
_cell_angle_gamma   59.93730646
_symmetry_Int_Tables_number   1
_chemical_formula_structural   Al17BN18
_chemical_formula_sum   'Al34 B2 N36'
_cell_volume   758.61858475
_cell_formula_units_Z   2
loop_
 _symmetry_equiv_pos_site_id
 _symmetry_equiv_pos_as_xyz
  1  'x, y, z'
loop_
 _atom_site_type_symbol
 _atom_site_label
 _atom_site_symmetry_multiplicity
 _atom_site_fract_x
 _atom_site_fract_y
 _atom_site_fract_z
 _atom_site_occupancy
  Al  Al0  1  0.11284717  0.09342241  0.40575630  1
  Al  Al1  1  0.21575679  0.20739934  0.14818703  1
  Al  Al2  1  0.78146474  0.08334088  0.82633144  1
  Al  Al3  1  0.89224049  0.20267056  0.61807130  1
  Al  Al4  1  0.44066169  0.09189263  0.39633507  1
  Al  Al5  1  0.56628565  0.20481139  0.08342080  1
  Al  Al6  1  0.10172310  0.09777301  0.89231624  1
  Al  Al7  1  0.22421640  0.20567303  0.65390362  1
  Al  Al8  1  0.78146697  0.10185352  0.32633159  1
  Al  Al9  1  0.44355133  0.09034985  0.89836053  1
  Al  Al10  1  0.56629052  0.19557410  0.58341969  1
  Al  Al11  1  0.11090760  0.42604894  0.40067747  1
  Al  Al12  1  0.22421502  0.53678635  0.15390336  1
  Al  Al13  1  0.78104696  0.42147454  0.89088189  1
  Al  Al14  1  0.89148667  0.54594450  0.65152536  1
  Al  Al15  1  0.44355226  0.43275826  0.39836142  1
  Al  Al16  1  0.55936996  0.53337924  0.14820520  1
  Al  Al17  1  0.11090701  0.42970529  0.90067720  1
  Al  Al18  1  0.21575800  0.54351670  0.64818654  1
  Al  Al19  1  0.77576855  0.43104887  0.40641159  1
  Al  Al20  1  0.89148839  0.52923659  0.15152540  1
  Al  Al21  1  0.44066153  0.43410559  0.89633552  1
  Al  Al22  1  0.55439445  0.54266193  0.65351187  1
  Al  Al23  1  0.10172520  0.76716547  0.39231601  1
  Al  Al24  1  0.21604705  0.87604452  0.15134128  1
  Al  Al25  1  0.77576795  0.75984225  0.90641066  1
  Al  Al26  1  0.44330163  0.76023612  0.40062435  1
  Al  Al27  1  0.55439586  0.86961204  0.15351150  1
  Al  Al28  1  0.11284568  0.76039382  0.90575547  1
  Al  Al29  1  0.21604550  0.87458158  0.65134225  1
  Al  Al30  1  0.78104638  0.76413772  0.39088157  1
  Al  Al31  1  0.89223773  0.87175953  0.11807119  1
  Al  Al32  1  0.44330160  0.76312315  0.90062466  1
  Al  Al33  1  0.55936768  0.87392467  0.64820575  1
  B  B34  1  0.88784131  0.20798039  0.10722418  1
  B  B35  1  0.88784053  0.87084307  0.60722397  1
  N  N36  1  0.21962474  0.20499930  0.33666776  1
  N  N37  1  0.07948324  0.10976628  0.08992088  1
  N  N38  1  0.88842066  0.20772955  0.82272825  1
  N  N39  1  0.79316001  0.05513480  0.63212957  1
  N  N40  1  0.56011266  0.20264178  0.38006232  1
  N  N41  1  0.44349690  0.09029707  0.09174827  1
  N  N42  1  0.22111626  0.20602782  0.84336420  1
  N  N43  1  0.12318385  0.09019281  0.59368186  1
  N  N44  1  0.88531908  0.20367073  0.40019472  1
  N  N45  1  0.79315489  0.11836271  0.13213031  1
  N  N46  1  0.56011308  0.20392462  0.88006138  1
  N  N47  1  0.44153441  0.09199450  0.58917290  1
  N  N48  1  0.22111549  0.53953629  0.34336496  1
  N  N49  1  0.11243414  0.42788398  0.09004475  1
  N  N50  1  0.88903726  0.54065844  0.84072468  1
  N  N51  1  0.77313719  0.44275291  0.59494183  1
  N  N52  1  0.55744703  0.53897271  0.33693742  1
  N  N53  1  0.44153395  0.43312690  0.08917218  1
  N  N54  1  0.21962380  0.54205581  0.83666754  1
  N  N55  1  0.11243180  0.42634178  0.59004519  1
  N  N56  1  0.88903838  0.53698070  0.34072463  1
  N  N57  1  0.79377228  0.39743240  0.08869992  1
  N  N58  1  0.55517296  0.54146784  0.84234409  1
  N  N59  1  0.44349703  0.43285959  0.59174729  1
  N  N60  1  0.22072273  0.87378541  0.34066219  1
  N  N61  1  0.12318128  0.75328164  0.09368179  1
  N  N62  1  0.88531792  0.87769031  0.90019546  1
  N  N63  1  0.79376652  0.77545360  0.58870054  1
  N  N64  1  0.55517207  0.87003756  0.34234299  1
  N  N65  1  0.44229259  0.76225928  0.09048280  1
  N  N66  1  0.22072163  0.87217253  0.84066347  1
  N  N67  1  0.07948357  0.77741477  0.58992203  1
  N  N68  1  0.88842099  0.87052715  0.32272904  1
  N  N69  1  0.77313824  0.75076099  0.09494249  1
  N  N70  1  0.55744681  0.87025875  0.83693789  1
  N  N71  1  0.44229254  0.76210303  0.59048365  1
