# generated using pymatgen
data_Al17BN18
_symmetry_space_group_name_H-M   'P 1'
_cell_length_a   9.31760411
_cell_length_b   9.33545422
_cell_length_c   10.06630558
_cell_angle_alpha   89.99981098
_cell_angle_beta   89.74438462
_cell_angle_gamma   59.94041837
_symmetry_Int_Tables_number   1
_chemical_formula_structural   Al17BN18
_chemical_formula_sum   'Al34 B2 N36'
_cell_volume   757.83319964
_cell_formula_units_Z   2
loop_
 _symmetry_equiv_pos_site_id
 _symmetry_equiv_pos_as_xyz
  1  'x, y, z'
loop_
 _atom_site_type_symbol
 _atom_site_label
 _atom_site_symmetry_multiplicity
 _atom_site_fract_x
 _atom_site_fract_y
 _atom_site_fract_z
 _atom_site_occupancy
  Al  Al0  1  0.11309728  0.09340193  0.40559743  1
  Al  Al1  1  0.21544289  0.20745656  0.14810033  1
  Al  Al2  1  0.78216792  0.08323134  0.82722383  1
  Al  Al3  1  0.89230868  0.20258755  0.61766245  1
  Al  Al4  1  0.44144452  0.09255131  0.39620702  1
  Al  Al5  1  0.56413719  0.20571963  0.09410644  1
  Al  Al6  1  0.10199622  0.09775049  0.89221089  1
  Al  Al7  1  0.22392748  0.20568994  0.65389433  1
  Al  Al8  1  0.78216916  0.10126267  0.32722382  1
  Al  Al9  1  0.44423671  0.09100064  0.89806019  1
  Al  Al10  1  0.56413889  0.19681336  0.59410556  1
  Al  Al11  1  0.11102965  0.42596751  0.40047213  1
  Al  Al12  1  0.22392715  0.53705414  0.15389397  1
  Al  Al13  1  0.78102914  0.42147352  0.89076478  1
  Al  Al14  1  0.89148336  0.54593468  0.65142682  1
  Al  Al15  1  0.44423746  0.43142578  0.39806039  1
  Al  Al16  1  0.55943419  0.53357539  0.14799299  1
  Al  Al17  1  0.11102872  0.42966716  0.90047208  1
  Al  Al18  1  0.21544343  0.54377104  0.64810017  1
  Al  Al19  1  0.77565403  0.43112947  0.40622904  1
  Al  Al20  1  0.89148400  0.52924955  0.15142694  1
  Al  Al21  1  0.44144453  0.43266688  0.89620696  1
  Al  Al22  1  0.55445526  0.54272789  0.65348320  1
  Al  Al23  1  0.10199728  0.76691693  0.39221073  1
  Al  Al24  1  0.21601748  0.87611394  0.15126418  1
  Al  Al25  1  0.77565291  0.75987906  0.90622852  1
  Al  Al26  1  0.44330022  0.76023216  0.40040933  1
  Al  Al27  1  0.55445579  0.86948505  0.15348316  1
  Al  Al28  1  0.11309636  0.76016550  0.90559690  1
  Al  Al29  1  0.21601686  0.87453878  0.65126449  1
  Al  Al30  1  0.78102918  0.76415931  0.39076483  1
  Al  Al31  1  0.89230741  0.87177166  0.11766242  1
  Al  Al32  1  0.44330000  0.76313128  0.90040942  1
  Al  Al33  1  0.55943304  0.87366136  0.64799324  1
  B  B34  1  0.88789981  0.20795021  0.10698096  1
  B  B35  1  0.88789910  0.87081661  0.60698091  1
  N  N36  1  0.21983612  0.20483961  0.33670036  1
  N  N37  1  0.07959584  0.10977381  0.08992667  1
  N  N38  1  0.88871419  0.20767581  0.82274632  1
  N  N39  1  0.79373617  0.05485301  0.63156125  1
  N  N40  1  0.55845768  0.20351752  0.37187144  1
  N  N41  1  0.44356618  0.09044412  0.09126902  1
  N  N42  1  0.22125853  0.20590910  0.84347097  1
  N  N43  1  0.12329036  0.09008305  0.59370881  1
  N  N44  1  0.88552070  0.20373363  0.40039742  1
  N  N45  1  0.79373428  0.11807274  0.13156148  1
  N  N46  1  0.55845785  0.20469759  0.87187028  1
  N  N47  1  0.44149173  0.09211838  0.58871180  1
  N  N48  1  0.22125859  0.53950544  0.34347100  1
  N  N49  1  0.11246622  0.42791108  0.09007754  1
  N  N50  1  0.88907633  0.54063465  0.84077555  1
  N  N51  1  0.77307761  0.44278966  0.59499176  1
  N  N52  1  0.55735371  0.53895504  0.33691624  1
  N  N53  1  0.44149197  0.43305135  0.08871132  1
  N  N54  1  0.21983566  0.54199703  0.83670033  1
  N  N55  1  0.11246529  0.42628646  0.59007770  1
  N  N56  1  0.88907737  0.53695964  0.34077559  1
  N  N57  1  0.79380461  0.39744617  0.08873425  1
  N  N58  1  0.55511704  0.54135796  0.84248098  1
  N  N59  1  0.44356583  0.43265116  0.59126822  1
  N  N60  1  0.22072833  0.87378475  0.34068703  1
  N  N61  1  0.12328913  0.75328934  0.09370861  1
  N  N62  1  0.88552000  0.87741801  0.90039718  1
  N  N63  1  0.79380183  0.77541208  0.58873457  1
  N  N64  1  0.55511685  0.87019715  0.34248056  1
  N  N65  1  0.44222253  0.76237744  0.09048285  1
  N  N66  1  0.22072765  0.87216016  0.84068745  1
  N  N67  1  0.07959579  0.77729648  0.58992707  1
  N  N68  1  0.88871443  0.87028119  0.32274617  1
  N  N69  1  0.77307780  0.75079182  0.09499216  1
  N  N70  1  0.55735305  0.87036405  0.83691648  1
  N  N71  1  0.44222280  0.76206140  0.59048327  1
