# generated using pymatgen
data_Al17BN18
_symmetry_space_group_name_H-M   'P 1'
_cell_length_a   9.34214627
_cell_length_b   9.34031126
_cell_length_c   10.20852599
_cell_angle_alpha   90.02851157
_cell_angle_beta   89.74155417
_cell_angle_gamma   59.87755005
_symmetry_Int_Tables_number   1
_chemical_formula_structural   Al17BN18
_chemical_formula_sum   'Al34 B2 N36'
_cell_volume   770.47376840
_cell_formula_units_Z   2
loop_
 _symmetry_equiv_pos_site_id
 _symmetry_equiv_pos_as_xyz
  1  'x, y, z'
loop_
 _atom_site_type_symbol
 _atom_site_label
 _atom_site_symmetry_multiplicity
 _atom_site_fract_x
 _atom_site_fract_y
 _atom_site_fract_z
 _atom_site_occupancy
  Al  Al0  1  0.11418150  0.09415508  0.39602186  1
  Al  Al1  1  0.21003141  0.20992360  0.13644187  1
  Al  Al2  1  0.78288703  0.08281480  0.81327473  1
  Al  Al3  1  0.89154085  0.20230158  0.60640738  1
  Al  Al4  1  0.45159283  0.09141084  0.31476956  1
  Al  Al5  1  0.56159341  0.20841465  0.06357123  1
  Al  Al6  1  0.10057351  0.09911303  0.88230778  1
  Al  Al7  1  0.21748391  0.20973313  0.64320984  1
  Al  Al8  1  0.78291116  0.10247080  0.31529359  1
  Al  Al9  1  0.45206185  0.09005578  0.81954694  1
  Al  Al10  1  0.56168256  0.19698529  0.56469466  1
  Al  Al11  1  0.11178298  0.42495214  0.39097006  1
  Al  Al12  1  0.21636486  0.53970346  0.14209805  1
  Al  Al13  1  0.78189429  0.42102810  0.88070600  1
  Al  Al14  1  0.88996885  0.54913058  0.64105002  1
  Al  Al15  1  0.44847334  0.42047890  0.32245802  1
  Al  Al16  1  0.56394781  0.53226137  0.13422122  1
  Al  Al17  1  0.11093673  0.42878612  0.89023754  1
  Al  Al18  1  0.21091660  0.54664931  0.63497578  1
  Al  Al19  1  0.77787533  0.43030361  0.39722613  1
  Al  Al20  1  0.89067234  0.52932955  0.14205794  1
  Al  Al21  1  0.44652360  0.42005587  0.81817147  1
  Al  Al22  1  0.55944190  0.54318564  0.63982040  1
  Al  Al23  1  0.10186405  0.76753028  0.38391691  1
  Al  Al24  1  0.21098022  0.87781794  0.14015179  1
  Al  Al25  1  0.78460845  0.75576053  0.89630211  1
  Al  Al26  1  0.44314435  0.76034308  0.35772225  1
  Al  Al27  1  0.54939961  0.87592577  0.07115244  1
  Al  Al28  1  0.11283549  0.75922366  0.89588094  1
  Al  Al29  1  0.21380109  0.87609127  0.64083090  1
  Al  Al30  1  0.78730067  0.76105914  0.37642546  1
  Al  Al31  1  0.89083179  0.87342844  0.11025237  1
  Al  Al32  1  0.43959187  0.76200893  0.86849051  1
  Al  Al33  1  0.55254093  0.87875062  0.56841229  1
  B  B34  1  0.88632766  0.20760829  0.09571360  1
  B  B35  1  0.88672730  0.87257287  0.59609606  1
  N  N36  1  0.21691576  0.20659987  0.32523590  1
  N  N37  1  0.07800153  0.10972253  0.07786071  1
  N  N38  1  0.88799529  0.20819454  0.81111430  1
  N  N39  1  0.79165515  0.05726784  0.62078899  1
  N  N40  1  0.56003939  0.20083024  0.37846434  1
  N  N41  1  0.45075863  0.09459557  0.12662701  1
  N  N42  1  0.21734520  0.20765621  0.83336639  1
  N  N43  1  0.12309798  0.09094863  0.58136282  1
  N  N44  1  0.88634337  0.20293467  0.38975108  1
  N  N45  1  0.79115113  0.11940760  0.12182540  1
  N  N46  1  0.56008363  0.20282276  0.87795523  1
  N  N47  1  0.45015752  0.09373648  0.63139273  1
  N  N48  1  0.21608657  0.54206691  0.33397631  1
  N  N49  1  0.11015643  0.42810033  0.07725586  1
  N  N50  1  0.88884429  0.54041505  0.82834399  1
  N  N51  1  0.77633612  0.44230243  0.58287750  1
  N  N52  1  0.56475861  0.53548194  0.32633881  1
  N  N53  1  0.44596590  0.42088790  0.12811536  1
  N  N54  1  0.21430655  0.54357648  0.82531637  1
  N  N55  1  0.11099586  0.42737937  0.57768380  1
  N  N56  1  0.89045891  0.53524234  0.32878577  1
  N  N57  1  0.79457588  0.39701565  0.07592442  1
  N  N58  1  0.55856953  0.53816184  0.83388515  1
  N  N59  1  0.44970444  0.42058784  0.62397635  1
  N  N60  1  0.21573010  0.87656264  0.32799579  1
  N  N61  1  0.12094108  0.75368736  0.08114698  1
  N  N62  1  0.88615939  0.87845045  0.88672919  1
  N  N63  1  0.79763195  0.77486362  0.57604205  1
  N  N64  1  0.55474578  0.87556289  0.37794226  1
  N  N65  1  0.43856409  0.76145426  0.09704797  1
  N  N66  1  0.21482022  0.87471252  0.82940703  1
  N  N67  1  0.07911232  0.77937685  0.57810368  1
  N  N68  1  0.88954163  0.87162704  0.31102940  1
  N  N69  1  0.77861123  0.74897056  0.08654480  1
  N  N70  1  0.55295045  0.87548646  0.87965452  1
  N  N71  1  0.43933463  0.76307667  0.59582142  1
