# generated using pymatgen
data_Al17BN18
_symmetry_space_group_name_H-M   'P 1'
_cell_length_a   9.30055735
_cell_length_b   9.29833241
_cell_length_c   9.94038083
_cell_angle_alpha   89.99999850
_cell_angle_beta   89.96804594
_cell_angle_gamma   60.00791508
_symmetry_Int_Tables_number   1
_chemical_formula_structural   Al17BN18
_chemical_formula_sum   'Al34 B2 N36'
_cell_volume   744.53006668
_cell_formula_units_Z   2
loop_
 _symmetry_equiv_pos_site_id
 _symmetry_equiv_pos_as_xyz
  1  'x, y, z'
loop_
 _atom_site_type_symbol
 _atom_site_label
 _atom_site_symmetry_multiplicity
 _atom_site_fract_x
 _atom_site_fract_y
 _atom_site_fract_z
 _atom_site_occupancy
  Al  Al0  1  0.10555195  0.09711170  0.29056915  1
  Al  Al1  1  0.21714503  0.20736963  0.04493566  1
  Al  Al2  1  0.78177341  0.09051853  0.79726063  1
  Al  Al3  1  0.89035062  0.19998787  0.54668423  1
  Al  Al4  1  0.44447099  0.09418476  0.29433044  1
  Al  Al5  1  0.56087670  0.20649911  0.04481696  1
  Al  Al6  1  0.10847128  0.09556663  0.80190578  1
  Al  Al7  1  0.22105490  0.20463115  0.54499332  1
  Al  Al8  1  0.78177339  0.09437508  0.29726048  1
  Al  Al9  1  0.44452453  0.09476125  0.79514319  1
  Al  Al10  1  0.56087726  0.19929076  0.54481699  1
  Al  Al11  1  0.11085747  0.42774246  0.29483928  1
  Al  Al12  1  0.22105476  0.54098078  0.04499333  1
  Al  Al13  1  0.77899436  0.42514719  0.80180717  1
  Al  Al14  1  0.88967099  0.54102225  0.54529772  1
  Al  Al15  1  0.44452421  0.42738060  0.29514316  1
  Al  Al16  1  0.55905554  0.53383820  0.04502520  1
  Al  Al17  1  0.11085758  0.42806612  0.79483937  1
  Al  Al18  1  0.21714528  0.54215199  0.54493563  1
  Al  Al19  1  0.78079471  0.42207418  0.29105671  1
  Al  Al20  1  0.88967049  0.53597351  0.04529777  1
  Al  Al21  1  0.44447089  0.42801076  0.79433038  1
  Al  Al22  1  0.55734769  0.53757150  0.54452117  1
  Al  Al23  1  0.10847105  0.76262843  0.30190577  1
  Al  Al24  1  0.21616738  0.87498348  0.04520847  1
  Al  Al25  1  0.78079525  0.76379752  0.79105663  1
  Al  Al26  1  0.44440882  0.76153478  0.29510776  1
  Al  Al27  1  0.55734790  0.87174741  0.04452125  1
  Al  Al28  1  0.10555205  0.76400253  0.79056921  1
  Al  Al29  1  0.21616766  0.87551627  0.54520841  1
  Al  Al30  1  0.77899452  0.76252507  0.30180735  1
  Al  Al31  1  0.89035015  0.87632842  0.04668423  1
  Al  Al32  1  0.44440889  0.76072356  0.79510768  1
  Al  Al33  1  0.55905604  0.87377300  0.54502525  1
  B  B34  1  0.88904859  0.20468471  0.04236669  1
  B  B35  1  0.88904898  0.87293330  0.54236671  1
  N  N36  1  0.22103939  0.20425120  0.35218098  1
  N  N37  1  0.08593633  0.10687644  0.09641415  1
  N  N38  1  0.88804482  0.20439189  0.87494047  1
  N  N39  1  0.79096651  0.06990683  0.60110241  1
  N  N40  1  0.55751115  0.20406010  0.35291762  1
  N  N41  1  0.44443874  0.09516937  0.10273293  1
  N  N42  1  0.22233009  0.20607087  0.85489175  1
  N  N43  1  0.10945856  0.09546237  0.60980958  1
  N  N44  1  0.88934796  0.20560524  0.35849665  1
  N  N45  1  0.79096613  0.10579372  0.10110230  1
  N  N46  1  0.55751111  0.20509538  0.85291764  1
  N  N47  1  0.44342404  0.09513306  0.60410279  1
  N  N48  1  0.22232980  0.53826537  0.35489171  1
  N  N49  1  0.11106388  0.42870589  0.10408157  1
  N  N50  1  0.88792091  0.54144694  0.85351809  1
  N  N51  1  0.77916821  0.42504330  0.60871256  1
  N  N52  1  0.55791187  0.53771129  0.35218051  1
  N  N53  1  0.44342365  0.42810993  0.10410278  1
  N  N54  1  0.22103936  0.54137568  0.85218097  1
  N  N55  1  0.11106417  0.42689682  0.60408165  1
  N  N56  1  0.88792084  0.53729858  0.35351807  1
  N  N57  1  0.79065655  0.40278964  0.09669393  1
  N  N58  1  0.55506855  0.53891677  0.85477997  1
  N  N59  1  0.44443887  0.42705846  0.60273288  1
  N  N60  1  0.22118788  0.87508423  0.35344141  1
  N  N61  1  0.10945833  0.76174604  0.10980949  1
  N  N62  1  0.88934801  0.87171350  0.85849666  1
  N  N63  1  0.79065705  0.77322007  0.59669390  1
  N  N64  1  0.55506889  0.87268132  0.35478015  1
  N  N65  1  0.44395841  0.76141542  0.10313296  1
  N  N66  1  0.22118798  0.87039426  0.85344144  1
  N  N67  1  0.08593675  0.77385386  0.59641414  1
  N  N68  1  0.88804479  0.87423024  0.37494050  1
  N  N69  1  0.77916806  0.76245518  0.10871277  1
  N  N70  1  0.55791241  0.87104317  0.85218062  1
  N  N71  1  0.44395865  0.76129310  0.60313290  1
