# generated using pymatgen
data_Al17BN18
_symmetry_space_group_name_H-M   'P 1'
_cell_length_a   9.29996279
_cell_length_b   9.29789453
_cell_length_c   9.94216760
_cell_angle_alpha   89.99821975
_cell_angle_beta   89.97039656
_cell_angle_gamma   60.00798954
_symmetry_Int_Tables_number   1
_chemical_formula_structural   Al17BN18
_chemical_formula_sum   'Al34 B2 N36'
_cell_volume   744.58181246
_cell_formula_units_Z   2
loop_
 _symmetry_equiv_pos_site_id
 _symmetry_equiv_pos_as_xyz
  1  'x, y, z'
loop_
 _atom_site_type_symbol
 _atom_site_label
 _atom_site_symmetry_multiplicity
 _atom_site_fract_x
 _atom_site_fract_y
 _atom_site_fract_z
 _atom_site_occupancy
  Al  Al0  1  0.10551211  0.09712281  0.30707810  1
  Al  Al1  1  0.21716344  0.20734845  0.06144120  1
  Al  Al2  1  0.78177518  0.09052652  0.81396540  1
  Al  Al3  1  0.89031130  0.19995671  0.56317341  1
  Al  Al4  1  0.44448430  0.09419677  0.31084459  1
  Al  Al5  1  0.56081153  0.20653389  0.06129513  1
  Al  Al6  1  0.10847196  0.09559605  0.81836443  1
  Al  Al7  1  0.22103687  0.20464436  0.56142872  1
  Al  Al8  1  0.78173130  0.09440138  0.31364649  1
  Al  Al9  1  0.44451270  0.09476318  0.81159622  1
  Al  Al10  1  0.56090200  0.19927609  0.56132533  1
  Al  Al11  1  0.11081631  0.42779793  0.31134057  1
  Al  Al12  1  0.22110707  0.54089129  0.06145767  1
  Al  Al13  1  0.77896715  0.42515212  0.81821146  1
  Al  Al14  1  0.88963135  0.54110892  0.56178525  1
  Al  Al15  1  0.44447353  0.42742931  0.31166244  1
  Al  Al16  1  0.55903992  0.53384509  0.06151406  1
  Al  Al17  1  0.11088633  0.42802240  0.81126708  1
  Al  Al18  1  0.21705101  0.54225702  0.56142998  1
  Al  Al19  1  0.78076640  0.42210815  0.30756272  1
  Al  Al20  1  0.88971188  0.53584522  0.06171755  1
  Al  Al21  1  0.44447483  0.42801257  0.81076876  1
  Al  Al22  1  0.55730834  0.53760155  0.56095687  1
  Al  Al23  1  0.10840379  0.76268520  0.31825304  1
  Al  Al24  1  0.21619295  0.87501806  0.06166701  1
  Al  Al25  1  0.78078612  0.76378542  0.80774048  1
  Al  Al26  1  0.44435665  0.76158209  0.31162359  1
  Al  Al27  1  0.55727734  0.87174626  0.06098314  1
  Al  Al28  1  0.10555130  0.76399097  0.80727975  1
  Al  Al29  1  0.21607550  0.87552706  0.56173216  1
  Al  Al30  1  0.77897400  0.76254270  0.31813556  1
  Al  Al31  1  0.89033916  0.87629639  0.06328896  1
  Al  Al32  1  0.44440200  0.76071888  0.81154087  1
  Al  Al33  1  0.55909735  0.87377978  0.56151503  1
  B  B34  1  0.88902546  0.20473980  0.05885920  1
  B  B35  1  0.88900291  0.87295716  0.55925017  1
  N  N36  1  0.22102105  0.20427421  0.36866215  1
  N  N37  1  0.08593120  0.10687899  0.11293806  1
  N  N38  1  0.88806223  0.20444199  0.89145327  1
  N  N39  1  0.79097718  0.06985514  0.61779484  1
  N  N40  1  0.55750148  0.20410241  0.36944941  1
  N  N41  1  0.44446354  0.09514203  0.11926605  1
  N  N42  1  0.22234763  0.20606111  0.87140837  1
  N  N43  1  0.10943384  0.09549224  0.62629880  1
  N  N44  1  0.88928771  0.20561970  0.37500111  1
  N  N45  1  0.79092004  0.10584434  0.11752463  1
  N  N46  1  0.55745553  0.20512505  0.86943720  1
  N  N47  1  0.44340834  0.09514511  0.62058783  1
  N  N48  1  0.22226020  0.53836646  0.37140548  1
  N  N49  1  0.11107424  0.42867905  0.12060260  1
  N  N50  1  0.88796409  0.54135569  0.86998648  1
  N  N51  1  0.77913625  0.42506248  0.62515903  1
  N  N52  1  0.55787643  0.53775229  0.36866683  1
  N  N53  1  0.44343204  0.42810083  0.12064349  1
  N  N54  1  0.22107817  0.54129594  0.86869382  1
  N  N55  1  0.11104917  0.42690717  0.62054641  1
  N  N56  1  0.88786987  0.53736632  0.37002812  1
  N  N57  1  0.79064988  0.40277269  0.11320914  1
  N  N58  1  0.55506039  0.53892129  0.87127840  1
  N  N59  1  0.44440248  0.42708962  0.61920747  1
  N  N60  1  0.22112609  0.87508866  0.36997839  1
  N  N61  1  0.10954728  0.76168702  0.12619148  1
  N  N62  1  0.88933564  0.87170522  0.87517283  1
  N  N63  1  0.79066917  0.77328259  0.61338722  1
  N  N64  1  0.55509215  0.87267531  0.37128895  1
  N  N65  1  0.44393453  0.76141597  0.11966799  1
  N  N66  1  0.22121168  0.87043098  0.86994771  1
  N  N67  1  0.08582155  0.77391402  0.61313204  1
  N  N68  1  0.88799161  0.87426308  0.39125127  1
  N  N69  1  0.77913613  0.76233493  0.12507986  1
  N  N70  1  0.55784928  0.87106022  0.86869051  1
  N  N71  1  0.44393543  0.76131518  0.61960514  1
