# generated using pymatgen
data_Al17BN18
_symmetry_space_group_name_H-M   'P 1'
_cell_length_a   9.29690488
_cell_length_b   9.29691375
_cell_length_c   9.97464949
_cell_angle_alpha   89.98396148
_cell_angle_beta   89.97637155
_cell_angle_gamma   60.01100249
_symmetry_Int_Tables_number   1
_chemical_formula_structural   Al17BN18
_chemical_formula_sum   'Al34 B2 N36'
_cell_volume   746.71274692
_cell_formula_units_Z   2
loop_
 _symmetry_equiv_pos_site_id
 _symmetry_equiv_pos_as_xyz
  1  'x, y, z'
loop_
 _atom_site_type_symbol
 _atom_site_label
 _atom_site_symmetry_multiplicity
 _atom_site_fract_x
 _atom_site_fract_y
 _atom_site_fract_z
 _atom_site_occupancy
  Al  Al0  1  0.10520177  0.09683337  0.30775135  1
  Al  Al1  1  0.21752628  0.20694955  0.06220842  1
  Al  Al2  1  0.78181019  0.09097027  0.81953260  1
  Al  Al3  1  0.89052647  0.19911884  0.56333784  1
  Al  Al4  1  0.44537093  0.09394991  0.31140384  1
  Al  Al5  1  0.55991065  0.20718894  0.06104167  1
  Al  Al6  1  0.10868833  0.09609118  0.81858505  1
  Al  Al7  1  0.22102353  0.20479573  0.56084213  1
  Al  Al8  1  0.78143312  0.09500778  0.30983803  1
  Al  Al9  1  0.44424802  0.09489937  0.81136936  1
  Al  Al10  1  0.56141215  0.19866812  0.56141728  1
  Al  Al11  1  0.11036969  0.42875522  0.31183198  1
  Al  Al12  1  0.22251878  0.53890596  0.06103702  1
  Al  Al13  1  0.77876609  0.42516121  0.81734435  1
  Al  Al14  1  0.88978023  0.54204483  0.56187188  1
  Al  Al15  1  0.44405694  0.42788484  0.31233820  1
  Al  Al16  1  0.55908006  0.53372621  0.06199440  1
  Al  Al17  1  0.11144149  0.42720185  0.81078125  1
  Al  Al18  1  0.21581686  0.54349030  0.56166619  1
  Al  Al19  1  0.78077285  0.42239993  0.30811369  1
  Al  Al20  1  0.89034293  0.53365999  0.06078715  1
  Al  Al21  1  0.44478902  0.42790467  0.81026893  1
  Al  Al22  1  0.55713205  0.53786153  0.56031883  1
  Al  Al23  1  0.10796851  0.76322516  0.31382705  1
  Al  Al24  1  0.21724942  0.87533404  0.06141543  1
  Al  Al25  1  0.78055823  0.76332993  0.81307472  1
  Al  Al26  1  0.44400815  0.76197573  0.31227581  1
  Al  Al27  1  0.55618417  0.87150287  0.06046056  1
  Al  Al28  1  0.10617367  0.76346744  0.81348405  1
  Al  Al29  1  0.21495328  0.87590799  0.56277346  1
  Al  Al30  1  0.77881145  0.76264123  0.31347532  1
  Al  Al31  1  0.89037580  0.87563205  0.06784994  1
  Al  Al32  1  0.44461589  0.76041265  0.81130887  1
  Al  Al33  1  0.55978262  0.87418596  0.56164684  1
  B  B34  1  0.88792053  0.20579953  0.05886712  1
  B  B35  1  0.88871961  0.87318145  0.58128814  1
  N  N36  1  0.22108504  0.20446465  0.36882115  1
  N  N37  1  0.08614858  0.10667248  0.11368368  1
  N  N38  1  0.88859343  0.20545446  0.89164355  1
  N  N39  1  0.79222930  0.06740726  0.62256651  1
  N  N40  1  0.55784257  0.20465020  0.37029135  1
  N  N41  1  0.44522512  0.09456697  0.11997921  1
  N  N42  1  0.22270624  0.20597809  0.87218243  1
  N  N43  1  0.10934898  0.09592083  0.62685745  1
  N  N44  1  0.88849023  0.20572698  0.37562960  1
  N  N45  1  0.78982443  0.10868771  0.11470148  1
  N  N46  1  0.55643718  0.20565523  0.86982412  1
  N  N47  1  0.44336874  0.09531597  0.62081350  1
  N  N48  1  0.22160309  0.53992323  0.37216343  1
  N  N49  1  0.11126956  0.42831722  0.12128892  1
  N  N50  1  0.88891141  0.53961866  0.86971344  1
  N  N51  1  0.77896427  0.42517874  0.62486760  1
  N  N52  1  0.55773097  0.53806394  0.36886465  1
  N  N53  1  0.44379563  0.42769620  0.12158453  1
  N  N54  1  0.22209158  0.53946083  0.86905444  1
  N  N55  1  0.11109393  0.42697043  0.62057745  1
  N  N56  1  0.88714471  0.53846545  0.37075919  1
  N  N57  1  0.79072918  0.40253842  0.11373272  1
  N  N58  1  0.55516523  0.53876453  0.87175881  1
  N  N59  1  0.44426896  0.42734368  0.61924787  1
  N  N60  1  0.22072353  0.87456178  0.37122858  1
  N  N61  1  0.11313140  0.75953240  0.12245050  1
  N  N62  1  0.88910190  0.87167985  0.87927841  1
  N  N63  1  0.79186071  0.77495415  0.61819306  1
  N  N64  1  0.55591391  0.87209911  0.37198938  1
  N  N65  1  0.44389661  0.76124771  0.12052150  1
  N  N66  1  0.22199748  0.87113207  0.87033388  1
  N  N67  1  0.08297717  0.77536294  0.61865525  1
  N  N68  1  0.88721009  0.87500199  0.37147021  1
  N  N69  1  0.77781048  0.75920966  0.12128034  1
  N  N70  1  0.55658807  0.87159486  0.86892855  1
  N  N71  1  0.44408849  0.76136156  0.61992188  1
