# generated using pymatgen
data_Al17BN18
_symmetry_space_group_name_H-M   'P 1'
_cell_length_a   9.29861588
_cell_length_b   9.36171769
_cell_length_c   10.22052176
_cell_angle_alpha   89.99957338
_cell_angle_beta   89.37529517
_cell_angle_gamma   59.78553531
_symmetry_Int_Tables_number   1
_chemical_formula_structural   Al17BN18
_chemical_formula_sum   'Al34 B2 N36'
_cell_volume   768.77701401
_cell_formula_units_Z   2
loop_
 _symmetry_equiv_pos_site_id
 _symmetry_equiv_pos_as_xyz
  1  'x, y, z'
loop_
 _atom_site_type_symbol
 _atom_site_label
 _atom_site_symmetry_multiplicity
 _atom_site_fract_x
 _atom_site_fract_y
 _atom_site_fract_z
 _atom_site_occupancy
  Al  Al0  1  0.11607799  0.09218307  0.39693730  1
  Al  Al1  1  0.21178931  0.20925478  0.13856563  1
  Al  Al2  1  0.78213370  0.08582980  0.82008725  1
  Al  Al3  1  0.88850613  0.20110897  0.59642505  1
  Al  Al4  1  0.45135933  0.09064262  0.31794070  1
  Al  Al5  1  0.56022107  0.20919115  0.06741995  1
  Al  Al6  1  0.10021251  0.09924406  0.88913229  1
  Al  Al7  1  0.21723186  0.20771490  0.64517648  1
  Al  Al8  1  0.78213512  0.09869533  0.32008815  1
  Al  Al9  1  0.44999944  0.09228786  0.82259016  1
  Al  Al10  1  0.56022414  0.19725598  0.56741936  1
  Al  Al11  1  0.11171130  0.42595841  0.39091084  1
  Al  Al12  1  0.21723396  0.54173178  0.14517596  1
  Al  Al13  1  0.77491944  0.42732997  0.81357987  1
  Al  Al14  1  0.89412384  0.54399871  0.63076444  1
  Al  Al15  1  0.45000064  0.42436638  0.32258999  1
  Al  Al16  1  0.55861035  0.53313060  0.07027431  1
  Al  Al17  1  0.11171013  0.42899411  0.89091023  1
  Al  Al18  1  0.21179338  0.54563239  0.63856611  1
  Al  Al19  1  0.78104036  0.41728454  0.33025384  1
  Al  Al20  1  0.89412603  0.52855365  0.13076565  1
  Al  Al21  1  0.45136028  0.42465125  0.81794114  1
  Al  Al22  1  0.55424756  0.54160514  0.56546844  1
  Al  Al23  1  0.10021281  0.76720693  0.38913225  1
  Al  Al24  1  0.20898512  0.87920806  0.14424544  1
  Al  Al25  1  0.78103888  0.76833509  0.83025213  1
  Al  Al26  1  0.44960910  0.75907606  0.32037287  1
  Al  Al27  1  0.55424614  0.87081420  0.06546849  1
  Al  Al28  1  0.11607696  0.75840303  0.89693743  1
  Al  Al29  1  0.20898349  0.87848301  0.64424454  1
  Al  Al30  1  0.77491909  0.76440825  0.31357917  1
  Al  Al31  1  0.88850230  0.87706043  0.09642276  1
  Al  Al32  1  0.44960822  0.75796811  0.82037285  1
  Al  Al33  1  0.55860505  0.87493241  0.57027436  1
  B  B34  1  0.88563753  0.20769395  0.10718822  1
  B  B35  1  0.88563700  0.87333461  0.60718752  1
  N  N36  1  0.21597112  0.20702343  0.32642598  1
  N  N37  1  0.07884562  0.11019873  0.08363183  1
  N  N38  1  0.88942979  0.20311833  0.82338942  1
  N  N39  1  0.79124671  0.05870215  0.62535937  1
  N  N40  1  0.55658373  0.20377411  0.38082815  1
  N  N41  1  0.45270180  0.09123126  0.12750813  1
  N  N42  1  0.21592935  0.20767128  0.83503760  1
  N  N43  1  0.12296432  0.08979140  0.58136563  1
  N  N44  1  0.88242159  0.20580746  0.39552832  1
  N  N45  1  0.79123667  0.11670825  0.12536057  1
  N  N46  1  0.55658539  0.20631711  0.88082788  1
  N  N47  1  0.45058278  0.09212563  0.63343621  1
  N  N48  1  0.21593034  0.54308886  0.33503848  1
  N  N49  1  0.11586637  0.42661262  0.07709577  1
  N  N50  1  0.89146176  0.53970592  0.83369847  1
  N  N51  1  0.77228986  0.43615078  0.62288634  1
  N  N52  1  0.55420171  0.54011658  0.37954873  1
  N  N53  1  0.45058324  0.42393793  0.13343595  1
  N  N54  1  0.21597303  0.54369353  0.82642604  1
  N  N55  1  0.11586310  0.42418226  0.57709698  1
  N  N56  1  0.89146338  0.53551770  0.33369816  1
  N  N57  1  0.79268829  0.39423545  0.12862739  1
  N  N58  1  0.55546638  0.53867893  0.88368600  1
  N  N59  1  0.45270258  0.42271004  0.62750964  1
  N  N60  1  0.21488800  0.87577306  0.33247252  1
  N  N61  1  0.12296000  0.75390224  0.08136626  1
  N  N62  1  0.88242089  0.87845511  0.89552784  1
  N  N63  1  0.79267805  0.77973399  0.62862802  1
  N  N64  1  0.55546506  0.87253115  0.38368521  1
  N  N65  1  0.44893017  0.75840855  0.13042571  1
  N  N66  1  0.21488585  0.87602874  0.83247310  1
  N  N67  1  0.07884570  0.77761830  0.58363175  1
  N  N68  1  0.88942963  0.87413836  0.32339121  1
  N  N69  1  0.77228943  0.75820805  0.12288643  1
  N  N70  1  0.55419779  0.87235969  0.87954884  1
  N  N71  1  0.44892963  0.75930380  0.63042425  1
