# generated using pymatgen
data_Al17BN18
_symmetry_space_group_name_H-M   'P 1'
_cell_length_a   9.30057220
_cell_length_b   9.29834251
_cell_length_c   9.94037595
_cell_angle_alpha   90.00000216
_cell_angle_beta   90.03193885
_cell_angle_gamma   60.00793124
_symmetry_Int_Tables_number   1
_chemical_formula_structural   Al17BN18
_chemical_formula_sum   'Al34 B2 N36'
_cell_volume   744.53182018
_cell_formula_units_Z   2
loop_
 _symmetry_equiv_pos_site_id
 _symmetry_equiv_pos_as_xyz
  1  'x, y, z'
loop_
 _atom_site_type_symbol
 _atom_site_label
 _atom_site_symmetry_multiplicity
 _atom_site_fract_x
 _atom_site_fract_y
 _atom_site_fract_z
 _atom_site_occupancy
  Al  Al0  1  0.10840777  0.09559224  0.40743724  1
  Al  Al1  1  0.21708423  0.20740332  0.16441551  1
  Al  Al2  1  0.78170903  0.09441099  0.91209193  1
  Al  Al3  1  0.89028812  0.20001678  0.66267016  1
  Al  Al4  1  0.44446473  0.09478521  0.41420178  1
  Al  Al5  1  0.56081323  0.20653216  0.16452825  1
  Al  Al6  1  0.10548897  0.09714859  0.91878775  1
  Al  Al7  1  0.22099060  0.20465868  0.66434882  1
  Al  Al8  1  0.78170900  0.09054702  0.41209183  1
  Al  Al9  1  0.44440496  0.09422226  0.91501253  1
  Al  Al10  1  0.56081376  0.19932117  0.66452816  1
  Al  Al11  1  0.11079635  0.42809519  0.41450951  1
  Al  Al12  1  0.22099049  0.54101751  0.16434878  1
  Al  Al13  1  0.78073066  0.42211008  0.91829890  1
  Al  Al14  1  0.88960849  0.54104566  0.66405394  1
  Al  Al15  1  0.44440487  0.42803928  0.41501257  1
  Al  Al16  1  0.55899172  0.53387232  0.16432536  1
  Al  Al17  1  0.11079622  0.42777462  0.91450960  1
  Al  Al18  1  0.21708450  0.54217904  0.66441560  1
  Al  Al19  1  0.77893321  0.42517420  0.40753644  1
  Al  Al20  1  0.88960803  0.53601254  0.16405390  1
  Al  Al21  1  0.44446449  0.42741635  0.91420181  1
  Al  Al22  1  0.55728638  0.53760027  0.66481983  1
  Al  Al23  1  0.10548912  0.76402856  0.41878774  1
  Al  Al24  1  0.21610512  0.87501231  0.16414196  1
  Al  Al25  1  0.77893338  0.76255922  0.90753633  1
  Al  Al26  1  0.44434595  0.76075252  0.41423952  1
  Al  Al27  1  0.55728659  0.87177993  0.16481980  1
  Al  Al28  1  0.10840755  0.76266630  0.90743728  1
  Al  Al29  1  0.21610543  0.87554965  0.66414203  1
  Al  Al30  1  0.78073120  0.76382569  0.41829901  1
  Al  Al31  1  0.89028766  0.87636203  0.16267021  1
  Al  Al32  1  0.44434589  0.76156870  0.91423944  1
  Al  Al33  1  0.55899220  0.87380270  0.66432532  1
  B  B34  1  0.88898522  0.20471625  0.16698811  1
  B  B35  1  0.88898561  0.87296509  0.66698813  1
  N  N36  1  0.22226801  0.20609861  0.35445810  1
  N  N37  1  0.08587477  0.10690883  0.11294114  1
  N  N38  1  0.88928533  0.20564095  0.85085836  1
  N  N39  1  0.79090400  0.06993613  0.60824896  1
  N  N40  1  0.55744802  0.20512302  0.35642813  1
  N  N41  1  0.44437478  0.09520355  0.10661131  1
  N  N42  1  0.22097431  0.20428563  0.85716354  1
  N  N43  1  0.10939280  0.09549198  0.59953492  1
  N  N44  1  0.88798070  0.20441919  0.33440756  1
  N  N45  1  0.79090361  0.10582694  0.10824905  1
  N  N46  1  0.55744809  0.20409546  0.85642807  1
  N  N47  1  0.44336243  0.09516078  0.60524330  1
  N  N48  1  0.22097431  0.54140629  0.35716353  1
  N  N49  1  0.11100150  0.42873811  0.10526712  1
  N  N50  1  0.88785894  0.53733060  0.85583258  1
  N  N51  1  0.77910731  0.42506895  0.60063285  1
  N  N52  1  0.55500495  0.53894534  0.35456941  1
  N  N53  1  0.44336211  0.42814374  0.10524329  1
  N  N54  1  0.22226776  0.53829968  0.85445823  1
  N  N55  1  0.11100177  0.42692694  0.60526710  1
  N  N56  1  0.88785903  0.54147688  0.35583253  1
  N  N57  1  0.79059391  0.40282516  0.11266081  1
  N  N58  1  0.55785113  0.53774612  0.85716316  1
  N  N59  1  0.44437488  0.42708824  0.60661133  1
  N  N60  1  0.22112468  0.87041882  0.35590800  1
  N  N61  1  0.10939250  0.76178220  0.09953503  1
  N  N62  1  0.88798068  0.87426700  0.83440752  1
  N  N63  1  0.79059440  0.77324718  0.61266087  1
  N  N64  1  0.55785165  0.87106905  0.35716311  1
  N  N65  1  0.44389530  0.76144739  0.10621443  1
  N  N66  1  0.22112457  0.87512296  0.85590804  1
  N  N67  1  0.08587519  0.77388300  0.61294126  1
  N  N68  1  0.88928539  0.87174046  0.35085845  1
  N  N69  1  0.77910717  0.76249041  0.10063273  1
  N  N70  1  0.55500527  0.87271636  0.85456932  1
  N  N71  1  0.44389552  0.76132424  0.60621453  1
