# generated using pymatgen
data_Al17BN18
_symmetry_space_group_name_H-M   'P 1'
_cell_length_a   9.30626049
_cell_length_b   9.31227621
_cell_length_c   10.00689158
_cell_angle_alpha   89.95147503
_cell_angle_beta   89.84641616
_cell_angle_gamma   60.00578333
_symmetry_Int_Tables_number   1
_chemical_formula_structural   Al17BN18
_chemical_formula_sum   'Al34 B2 N36'
_cell_volume   751.07716001
_cell_formula_units_Z   2
loop_
 _symmetry_equiv_pos_site_id
 _symmetry_equiv_pos_as_xyz
  1  'x, y, z'
loop_
 _atom_site_type_symbol
 _atom_site_label
 _atom_site_symmetry_multiplicity
 _atom_site_fract_x
 _atom_site_fract_y
 _atom_site_fract_z
 _atom_site_occupancy
  Al  Al0  1  0.11239701  0.09382093  0.40197639  1
  Al  Al1  1  0.21522230  0.20794662  0.14746571  1
  Al  Al2  1  0.78346724  0.09054000  0.84979451  1
  Al  Al3  1  0.89214076  0.20412140  0.62042754  1
  Al  Al4  1  0.44273755  0.09502799  0.39684809  1
  Al  Al5  1  0.56276940  0.20721704  0.14817669  1
  Al  Al6  1  0.10590923  0.09648537  0.89245824  1
  Al  Al7  1  0.22378835  0.20481146  0.65131075  1
  Al  Al8  1  0.77862682  0.09024051  0.40193460  1
  Al  Al9  1  0.44599422  0.09296512  0.90021100  1
  Al  Al10  1  0.55358825  0.20257369  0.64483614  1
  Al  Al11  1  0.10982926  0.42767573  0.39854959  1
  Al  Al12  1  0.22075300  0.54085242  0.14972934  1
  Al  Al13  1  0.78098067  0.42115401  0.89191712  1
  Al  Al14  1  0.89051108  0.54426390  0.65160653  1
  Al  Al15  1  0.44449263  0.42900830  0.39792452  1
  Al  Al16  1  0.55986720  0.53221967  0.14754123  1
  Al  Al17  1  0.11221770  0.42730458  0.89988875  1
  Al  Al18  1  0.21702991  0.54248440  0.64809145  1
  Al  Al19  1  0.77563648  0.43166886  0.40255584  1
  Al  Al20  1  0.89027366  0.53416040  0.14767603  1
  Al  Al21  1  0.44494282  0.42631766  0.89888549  1
  Al  Al22  1  0.55432330  0.54140752  0.65125974  1
  Al  Al23  1  0.10461474  0.76552470  0.40223161  1
  Al  Al24  1  0.21390569  0.87644294  0.14762277  1
  Al  Al25  1  0.77875154  0.76107635  0.89467904  1
  Al  Al26  1  0.44323196  0.76120334  0.39793623  1
  Al  Al27  1  0.55708647  0.87195913  0.15017438  1
  Al  Al28  1  0.11042602  0.75946834  0.89369474  1
  Al  Al29  1  0.21789975  0.87287621  0.65072264  1
  Al  Al30  1  0.78060310  0.76341848  0.40156476  1
  Al  Al31  1  0.88999208  0.87963191  0.14654877  1
  Al  Al32  1  0.44460253  0.76139238  0.89988916  1
  Al  Al33  1  0.55897235  0.87327554  0.64770860  1
  B  B34  1  0.88660413  0.20356141  0.10368388  1
  B  B35  1  0.88943901  0.86695278  0.65018811  1
  N  N36  1  0.22068330  0.20560525  0.33649479  1
  N  N37  1  0.08037853  0.10951767  0.08896946  1
  N  N38  1  0.89199965  0.20691042  0.82121216  1
  N  N39  1  0.78689640  0.06555531  0.60520600  1
  N  N40  1  0.55605753  0.20543374  0.34017534  1
  N  N41  1  0.44508749  0.09508377  0.09073172  1
  N  N42  1  0.22351967  0.20452671  0.84255610  1
  N  N43  1  0.12260323  0.08927185  0.59170438  1
  N  N44  1  0.88655882  0.20647950  0.38843172  1
  N  N45  1  0.79379185  0.10994476  0.09577344  1
  N  N46  1  0.55357897  0.20552252  0.83629524  1
  N  N47  1  0.44303443  0.09426640  0.58687019  1
  N  N48  1  0.22024309  0.54190983  0.34108970  1
  N  N49  1  0.11138574  0.42866906  0.08946988  1
  N  N50  1  0.89002327  0.53752558  0.84199309  1
  N  N51  1  0.77306608  0.44113005  0.59313403  1
  N  N52  1  0.55595349  0.53934958  0.33681134  1
  N  N53  1  0.44302766  0.42809027  0.08888945  1
  N  N54  1  0.22383252  0.53673711  0.83796628  1
  N  N55  1  0.11155159  0.42646176  0.58927717  1
  N  N56  1  0.88700532  0.54131991  0.33823245  1
  N  N57  1  0.79298910  0.39736347  0.08893511  1
  N  N58  1  0.55558086  0.53861613  0.84212357  1
  N  N59  1  0.44432455  0.42890889  0.58881664  1
  N  N60  1  0.21997601  0.87261454  0.33829243  1
  N  N61  1  0.10943581  0.76118522  0.08427885  1
  N  N62  1  0.89362284  0.86265526  0.81683131  1
  N  N63  1  0.79144819  0.77230414  0.59547243  1
  N  N64  1  0.55736768  0.87111586  0.34117228  1
  N  N65  1  0.44388411  0.76167946  0.09064638  1
  N  N66  1  0.22234227  0.87167363  0.84118203  1
  N  N67  1  0.08633523  0.77327613  0.59552993  1
  N  N68  1  0.88770892  0.87345336  0.33508303  1
  N  N69  1  0.77911910  0.76272468  0.08607332  1
  N  N70  1  0.55582366  0.87187092  0.83814573  1
  N  N71  1  0.44287114  0.76182785  0.58937454  1
