# generated using pymatgen
data_Al17BN18
_symmetry_space_group_name_H-M   'P 1'
_cell_length_a   9.29152388
_cell_length_b   9.31770136
_cell_length_c   10.29316282
_cell_angle_alpha   89.92950076
_cell_angle_beta   89.68401841
_cell_angle_gamma   59.91805041
_symmetry_Int_Tables_number   1
_chemical_formula_structural   Al17BN18
_chemical_formula_sum   'Al34 B2 N36'
_cell_volume   771.09644044
_cell_formula_units_Z   2
loop_
 _symmetry_equiv_pos_site_id
 _symmetry_equiv_pos_as_xyz
  1  'x, y, z'
loop_
 _atom_site_type_symbol
 _atom_site_label
 _atom_site_symmetry_multiplicity
 _atom_site_fract_x
 _atom_site_fract_y
 _atom_site_fract_z
 _atom_site_occupancy
  Al  Al0  1  0.11458356  0.09267572  0.39698407  1
  Al  Al1  1  0.20998117  0.21002538  0.13853100  1
  Al  Al2  1  0.78272260  0.08211087  0.81568815  1
  Al  Al3  1  0.89149529  0.20307124  0.61178573  1
  Al  Al4  1  0.45070757  0.09213931  0.31698928  1
  Al  Al5  1  0.56106592  0.20868977  0.06532236  1
  Al  Al6  1  0.10333091  0.09700961  0.88381266  1
  Al  Al7  1  0.21805585  0.20964835  0.64365815  1
  Al  Al8  1  0.78224884  0.10247712  0.31331146  1
  Al  Al9  1  0.45247180  0.09052991  0.82064662  1
  Al  Al10  1  0.56321791  0.19619958  0.56567163  1
  Al  Al11  1  0.11112999  0.42570094  0.39170268  1
  Al  Al12  1  0.21675488  0.53937833  0.14497347  1
  Al  Al13  1  0.78484178  0.41967338  0.87823413  1
  Al  Al14  1  0.88844717  0.55008296  0.64253539  1
  Al  Al15  1  0.45111734  0.42409818  0.32224210  1
  Al  Al16  1  0.55001477  0.53733562  0.06899048  1
  Al  Al17  1  0.11304328  0.42843203  0.89088287  1
  Al  Al18  1  0.20981807  0.54657998  0.63763950  1
  Al  Al19  1  0.78350242  0.42643957  0.39824370  1
  Al  Al20  1  0.88965853  0.52603233  0.13966145  1
  Al  Al21  1  0.45133567  0.42427032  0.81612714  1
  Al  Al22  1  0.54735493  0.54566385  0.57032033  1
  Al  Al23  1  0.10123910  0.76721511  0.38481974  1
  Al  Al24  1  0.20749392  0.88022358  0.14396308  1
  Al  Al25  1  0.78355508  0.75602482  0.89940069  1
  Al  Al26  1  0.44841592  0.75791295  0.31978581  1
  Al  Al27  1  0.54576101  0.87478728  0.07072554  1
  Al  Al28  1  0.11666054  0.75841510  0.89677895  1
  Al  Al29  1  0.20872850  0.87849331  0.64238643  1
  Al  Al30  1  0.78288962  0.76167664  0.36218597  1
  Al  Al31  1  0.89194772  0.87410354  0.10595663  1
  Al  Al32  1  0.45009111  0.75944303  0.81852933  1
  Al  Al33  1  0.55609005  0.87676085  0.56790920  1
  B  B34  1  0.88620342  0.20802295  0.09569796  1
  B  B35  1  0.88614851  0.87141970  0.59714786  1
  N  N36  1  0.21553689  0.20754663  0.32587027  1
  N  N37  1  0.08011385  0.10845043  0.07781316  1
  N  N38  1  0.88903200  0.20720483  0.81162646  1
  N  N39  1  0.79288816  0.05658121  0.62402379  1
  N  N40  1  0.55921757  0.20225628  0.38011124  1
  N  N41  1  0.45145867  0.09351765  0.12906038  1
  N  N42  1  0.21704236  0.20833288  0.83229938  1
  N  N43  1  0.12351576  0.09075001  0.58073957  1
  N  N44  1  0.88641783  0.20199596  0.38690274  1
  N  N45  1  0.79145052  0.11863062  0.12134466  1
  N  N46  1  0.55860081  0.20559341  0.87990307  1
  N  N47  1  0.45205833  0.09221981  0.63287625  1
  N  N48  1  0.21530583  0.54195135  0.33339144  1
  N  N49  1  0.11193867  0.42739969  0.07673667  1
  N  N50  1  0.88862672  0.54183097  0.82918409  1
  N  N51  1  0.77888477  0.43965689  0.58600486  1
  N  N52  1  0.54867249  0.54283076  0.38345553  1
  N  N53  1  0.45065827  0.42244530  0.13449606  1
  N  N54  1  0.21566307  0.54370478  0.82494446  1
  N  N55  1  0.11087698  0.42745592  0.57752597  1
  N  N56  1  0.88902667  0.53384999  0.32521701  1
  N  N57  1  0.79653008  0.39462603  0.07497554  1
  N  N58  1  0.54972290  0.54228586  0.88275409  1
  N  N59  1  0.45202754  0.42168819  0.62849168  1
  N  N60  1  0.21380598  0.87705537  0.33047639  1
  N  N61  1  0.12541105  0.75168221  0.08044179  1
  N  N62  1  0.88645846  0.87900078  0.89292977  1
  N  N63  1  0.79754032  0.77477913  0.57954005  1
  N  N64  1  0.55079640  0.87418991  0.38110439  1
  N  N65  1  0.44648523  0.75812612  0.13271078  1
  N  N66  1  0.21482724  0.87524611  0.82901153  1
  N  N67  1  0.08040977  0.77802919  0.57802476  1
  N  N68  1  0.88972720  0.87161386  0.30842968  1
  N  N69  1  0.77729528  0.74896711  0.08946947  1
  N  N70  1  0.54923213  0.87487029  0.88398211  1
  N  N71  1  0.44835813  0.76200166  0.63145871  1
