# generated using pymatgen
data_Al17BN18
_symmetry_space_group_name_H-M   'P 1'
_cell_length_a   9.31621377
_cell_length_b   9.35627022
_cell_length_c   10.18398262
_cell_angle_alpha   89.99993911
_cell_angle_beta   89.43742223
_cell_angle_gamma   59.85676723
_symmetry_Int_Tables_number   1
_chemical_formula_structural   Al17BN18
_chemical_formula_sum   'Al34 B2 N36'
_cell_volume   767.59804236
_cell_formula_units_Z   2
loop_
 _symmetry_equiv_pos_site_id
 _symmetry_equiv_pos_as_xyz
  1  'x, y, z'
loop_
 _atom_site_type_symbol
 _atom_site_label
 _atom_site_symmetry_multiplicity
 _atom_site_fract_x
 _atom_site_fract_y
 _atom_site_fract_z
 _atom_site_occupancy
  Al  Al0  1  0.11432450  0.09240644  0.39861618  1
  Al  Al1  1  0.21337162  0.20668561  0.13641400  1
  Al  Al2  1  0.78245683  0.08496902  0.82124915  1
  Al  Al3  1  0.88799472  0.20313079  0.60079182  1
  Al  Al4  1  0.45322780  0.08887138  0.31858312  1
  Al  Al5  1  0.56062843  0.20958598  0.06807975  1
  Al  Al6  1  0.09899112  0.09874235  0.88997421  1
  Al  Al7  1  0.21976977  0.20294340  0.64409270  1
  Al  Al8  1  0.78245673  0.09924092  0.32124920  1
  Al  Al9  1  0.45246816  0.09006013  0.82417290  1
  Al  Al10  1  0.56062782  0.19645196  0.56807966  1
  Al  Al11  1  0.11055371  0.42730417  0.35061667  1
  Al  Al12  1  0.21976938  0.54395275  0.14409267  1
  Al  Al13  1  0.77630636  0.43071361  0.81306009  1
  Al  Al14  1  0.88920383  0.54596893  0.56894967  1
  Al  Al15  1  0.45246835  0.42413937  0.32417264  1
  Al  Al16  1  0.55849628  0.53420547  0.07160153  1
  Al  Al17  1  0.11055415  0.42881087  0.85061675  1
  Al  Al18  1  0.21337144  0.54660886  0.63641379  1
  Al  Al19  1  0.78291520  0.42075889  0.32663456  1
  Al  Al20  1  0.88920397  0.53149278  0.06894947  1
  Al  Al21  1  0.45322816  0.42456814  0.81858310  1
  Al  Al22  1  0.55562542  0.54139363  0.56651735  1
  Al  Al23  1  0.09899045  0.76893502  0.38997411  1
  Al  Al24  1  0.20815596  0.88067932  0.14503480  1
  Al  Al25  1  0.78291541  0.76299287  0.82663446  1
  Al  Al26  1  0.44853832  0.76001456  0.32150194  1
  Al  Al27  1  0.55562503  0.86964675  0.06651732  1
  Al  Al28  1  0.11432471  0.75993705  0.89861630  1
  Al  Al29  1  0.20815636  0.87783058  0.64503505  1
  Al  Al30  1  0.77630538  0.75964692  0.31305992  1
  Al  Al31  1  0.88799422  0.87554050  0.10079192  1
  Al  Al32  1  0.44853921  0.75811426  0.82150167  1
  Al  Al33  1  0.55849649  0.87396413  0.57160162  1
  B  B34  1  0.88562549  0.20926049  0.10895597  1
  B  B35  1  0.88562540  0.87178074  0.60895597  1
  N  N36  1  0.21918929  0.20085938  0.32804970  1
  N  N37  1  0.07741995  0.11102441  0.08397633  1
  N  N38  1  0.88902211  0.20430398  0.82125436  1
  N  N39  1  0.79115566  0.05712156  0.62579916  1
  N  N40  1  0.55749779  0.20309712  0.38110979  1
  N  N41  1  0.45448355  0.09022240  0.12748208  1
  N  N42  1  0.21980335  0.20161626  0.83888843  1
  N  N43  1  0.12156232  0.08880656  0.58268587  1
  N  N44  1  0.88125289  0.20897832  0.39573451  1
  N  N45  1  0.79115657  0.11839002  0.12579908  1
  N  N46  1  0.55749781  0.20607064  0.88110993  1
  N  N47  1  0.45186564  0.09053772  0.63426097  1
  N  N48  1  0.21980337  0.54524657  0.33888823  1
  N  N49  1  0.11143857  0.42977278  0.10846365  1
  N  N50  1  0.88357980  0.53997205  0.88042120  1
  N  N51  1  0.77321642  0.44130544  0.62678462  1
  N  N52  1  0.55646768  0.54035762  0.37951394  1
  N  N53  1  0.45186557  0.42426439  0.13426082  1
  N  N54  1  0.21918970  0.54661749  0.82804955  1
  N  N55  1  0.11143880  0.42545646  0.60846387  1
  N  N56  1  0.88357946  0.54311339  0.38042139  1
  N  N57  1  0.79458144  0.39803712  0.13039178  1
  N  N58  1  0.55653442  0.53857765  0.88425060  1
  N  N59  1  0.45448348  0.42196180  0.62748203  1
  N  N60  1  0.21412374  0.87640031  0.33359569  1
  N  N61  1  0.12156206  0.75629918  0.08268591  1
  N  N62  1  0.88125310  0.87643357  0.89573451  1
  N  N63  1  0.79458200  0.77404859  0.63039166  1
  N  N64  1  0.55653369  0.87155377  0.38425073  1
  N  N65  1  0.44702105  0.76003516  0.13077610  1
  N  N66  1  0.21412455  0.87614148  0.83359582  1
  N  N67  1  0.07741986  0.77822306  0.58397635  1
  N  N68  1  0.88902143  0.87333841  0.32125417  1
  N  N69  1  0.77321599  0.75214554  0.12678463  1
  N  N70  1  0.55646797  0.86984030  0.87951384  1
  N  N71  1  0.44702143  0.75961121  0.63077605  1
