# generated using pymatgen
data_Al17BN18
_symmetry_space_group_name_H-M   'P 1'
_cell_length_a   9.32249227
_cell_length_b   9.35709999
_cell_length_c   10.16060937
_cell_angle_alpha   90.00027420
_cell_angle_beta   89.47104959
_cell_angle_gamma   59.91363437
_symmetry_Int_Tables_number   1
_chemical_formula_structural   Al17BN18
_chemical_formula_sum   'Al34 B2 N36'
_cell_volume   766.86751523
_cell_formula_units_Z   2
loop_
 _symmetry_equiv_pos_site_id
 _symmetry_equiv_pos_as_xyz
  1  'x, y, z'
loop_
 _atom_site_type_symbol
 _atom_site_label
 _atom_site_symmetry_multiplicity
 _atom_site_fract_x
 _atom_site_fract_y
 _atom_site_fract_z
 _atom_site_occupancy
  Al  Al0  1  0.11440421  0.09274541  0.39869763  1
  Al  Al1  1  0.21490494  0.20389577  0.13652112  1
  Al  Al2  1  0.78186592  0.08594792  0.82194472  1
  Al  Al3  1  0.88797103  0.20306735  0.60168450  1
  Al  Al4  1  0.45272706  0.08905158  0.31985336  1
  Al  Al5  1  0.56162181  0.20907013  0.06825030  1
  Al  Al6  1  0.09922927  0.10027130  0.88989184  1
  Al  Al7  1  0.22182698  0.19869632  0.64361983  1
  Al  Al8  1  0.78270892  0.09914366  0.32136472  1
  Al  Al9  1  0.45138952  0.09148852  0.82563302  1
  Al  Al10  1  0.56243171  0.19468953  0.56793431  1
  Al  Al11  1  0.10703099  0.43109700  0.32782739  1
  Al  Al12  1  0.22387299  0.54169521  0.12808806  1
  Al  Al13  1  0.77607319  0.43115221  0.81402837  1
  Al  Al14  1  0.89033088  0.54503769  0.56823156  1
  Al  Al15  1  0.44978243  0.42494014  0.32715664  1
  Al  Al16  1  0.55945591  0.53432013  0.07209160  1
  Al  Al17  1  0.10579492  0.43311673  0.82229254  1
  Al  Al18  1  0.21773399  0.54341310  0.61632481  1
  Al  Al19  1  0.78316960  0.42064030  0.32743838  1
  Al  Al20  1  0.89113835  0.53090604  0.06816265  1
  Al  Al21  1  0.45025458  0.42614872  0.81780380  1
  Al  Al22  1  0.55657378  0.54110702  0.56651881  1
  Al  Al23  1  0.09845262  0.76958622  0.38994737  1
  Al  Al24  1  0.20835310  0.88100982  0.14521375  1
  Al  Al25  1  0.78259168  0.76328616  0.82756731  1
  Al  Al26  1  0.44840496  0.75984543  0.32202465  1
  Al  Al27  1  0.55573397  0.86944080  0.06664756  1
  Al  Al28  1  0.11315911  0.76080304  0.89655470  1
  Al  Al29  1  0.20777637  0.87719240  0.64585758  1
  Al  Al30  1  0.77621642  0.75917238  0.31356196  1
  Al  Al31  1  0.88743681  0.87575146  0.10179394  1
  Al  Al32  1  0.44804787  0.75819284  0.82219221  1
  Al  Al33  1  0.55905215  0.87303019  0.57228522  1
  B  B34  1  0.88550282  0.20978866  0.10903707  1
  B  B35  1  0.88550481  0.87179605  0.61007236  1
  N  N36  1  0.22000058  0.20023610  0.32990879  1
  N  N37  1  0.07711616  0.11164211  0.08441232  1
  N  N38  1  0.88912349  0.20472579  0.82135635  1
  N  N39  1  0.79092858  0.05714529  0.62635863  1
  N  N40  1  0.55877373  0.20202934  0.38078342  1
  N  N41  1  0.45445148  0.09052152  0.12734811  1
  N  N42  1  0.21965209  0.20328813  0.84091170  1
  N  N43  1  0.12114437  0.08792022  0.58308624  1
  N  N44  1  0.88154894  0.20867691  0.39600147  1
  N  N45  1  0.79101928  0.11906122  0.12573395  1
  N  N46  1  0.55752030  0.20701070  0.88124973  1
  N  N47  1  0.45223446  0.09013653  0.63420965  1
  N  N48  1  0.22227771  0.54117799  0.36079710  1
  N  N49  1  0.10695007  0.43273001  0.13037110  1
  N  N50  1  0.88615724  0.53909596  0.88116509  1
  N  N51  1  0.77344335  0.44147682  0.62701544  1
  N  N52  1  0.55704153  0.53998730  0.37913384  1
  N  N53  1  0.45146826  0.42439860  0.13582727  1
  N  N54  1  0.22041082  0.54602391  0.83330548  1
  N  N55  1  0.10680030  0.42666084  0.62672383  1
  N  N56  1  0.88555930  0.54205478  0.38122651  1
  N  N57  1  0.79495682  0.39829949  0.13014065  1
  N  N58  1  0.55649613  0.53838319  0.88446329  1
  N  N59  1  0.45588159  0.42043389  0.62637373  1
  N  N60  1  0.21416323  0.87632208  0.33374380  1
  N  N61  1  0.12057350  0.75773902  0.08289103  1
  N  N62  1  0.88036678  0.87746028  0.89632637  1
  N  N63  1  0.79464052  0.77364188  0.63056868  1
  N  N64  1  0.55696204  0.87101137  0.38450559  1
  N  N65  1  0.44667696  0.76019274  0.13076831  1
  N  N66  1  0.21395866  0.87731196  0.83443509  1
  N  N67  1  0.07564528  0.78009423  0.58487523  1
  N  N68  1  0.88943764  0.87285387  0.31949040  1
  N  N69  1  0.77308937  0.75149091  0.12659086  1
  N  N70  1  0.55623153  0.87015954  0.87946550  1
  N  N71  1  0.44651089  0.75919861  0.63088916  1
