# generated using pymatgen
data_Al17BN18
_symmetry_space_group_name_H-M   'P 1'
_cell_length_a   9.31459046
_cell_length_b   9.32978532
_cell_length_c   10.12151187
_cell_angle_alpha   90.03885677
_cell_angle_beta   89.78044585
_cell_angle_gamma   60.00742660
_symmetry_Int_Tables_number   1
_chemical_formula_structural   Al17BN18
_chemical_formula_sum   'Al34 B2 N36'
_cell_volume   761.79618889
_cell_formula_units_Z   2
loop_
 _symmetry_equiv_pos_site_id
 _symmetry_equiv_pos_as_xyz
  1  'x, y, z'
loop_
 _atom_site_type_symbol
 _atom_site_label
 _atom_site_symmetry_multiplicity
 _atom_site_fract_x
 _atom_site_fract_y
 _atom_site_fract_z
 _atom_site_occupancy
  Al  Al0  1  0.11315057  0.09371468  0.40514555  1
  Al  Al1  1  0.21088309  0.20966248  0.14445150  1
  Al  Al2  1  0.78254206  0.08278482  0.82389664  1
  Al  Al3  1  0.89110086  0.20269159  0.61647830  1
  Al  Al4  1  0.44539771  0.09806797  0.33333314  1
  Al  Al5  1  0.56543946  0.20099635  0.07543318  1
  Al  Al6  1  0.10110879  0.09746272  0.89199835  1
  Al  Al7  1  0.21760922  0.20963352  0.65190974  1
  Al  Al8  1  0.78193602  0.10262379  0.32440584  1
  Al  Al9  1  0.44774435  0.09550862  0.83839262  1
  Al  Al10  1  0.56487338  0.19114859  0.57535019  1
  Al  Al11  1  0.10983853  0.42718596  0.40002979  1
  Al  Al12  1  0.22493066  0.53619942  0.15278223  1
  Al  Al13  1  0.78094786  0.42153713  0.88972456  1
  Al  Al14  1  0.89103347  0.54640377  0.65105526  1
  Al  Al15  1  0.44255741  0.43464940  0.39922113  1
  Al  Al16  1  0.55942454  0.53136783  0.14767940  1
  Al  Al17  1  0.10994650  0.43051466  0.90046782  1
  Al  Al18  1  0.21663773  0.54296072  0.64732604  1
  Al  Al19  1  0.77554626  0.43164397  0.40567211  1
  Al  Al20  1  0.89154501  0.52887464  0.15119666  1
  Al  Al21  1  0.44022289  0.43498998  0.89664921  1
  Al  Al22  1  0.55410185  0.54162328  0.65265210  1
  Al  Al23  1  0.10158563  0.76756036  0.39141003  1
  Al  Al24  1  0.21605051  0.87560189  0.15067803  1
  Al  Al25  1  0.77662499  0.75922858  0.90597512  1
  Al  Al26  1  0.44290732  0.76109967  0.40016400  1
  Al  Al27  1  0.55801745  0.86320450  0.15076321  1
  Al  Al28  1  0.11291704  0.76025008  0.90482462  1
  Al  Al29  1  0.21598367  0.87467155  0.65069374  1
  Al  Al30  1  0.78117228  0.76438265  0.39075318  1
  Al  Al31  1  0.89235511  0.87186196  0.11777803  1
  Al  Al32  1  0.44332568  0.76289816  0.90023051  1
  Al  Al33  1  0.56228439  0.86844403  0.64577747  1
  B  B34  1  0.88664515  0.20775677  0.10613161  1
  B  B35  1  0.88808759  0.87125542  0.60610677  1
  N  N36  1  0.21386891  0.20877116  0.33565064  1
  N  N37  1  0.07847227  0.10899607  0.08851578  1
  N  N38  1  0.88813532  0.20785127  0.82132776  1
  N  N39  1  0.79290751  0.05547469  0.63049111  1
  N  N40  1  0.56095376  0.20141207  0.38539982  1
  N  N41  1  0.44800063  0.09433946  0.13006405  1
  N  N42  1  0.21596085  0.20863111  0.84466545  1
  N  N43  1  0.12254722  0.08998629  0.59203506  1
  N  N44  1  0.88510616  0.20419619  0.39911272  1
  N  N45  1  0.79148045  0.11877670  0.13151162  1
  N  N46  1  0.56230441  0.20197071  0.88530475  1
  N  N47  1  0.44562991  0.09678698  0.63376969  1
  N  N48  1  0.22124058  0.53949708  0.34194474  1
  N  N49  1  0.11136659  0.42921818  0.08859276  1
  N  N50  1  0.88909197  0.54060587  0.83943462  1
  N  N51  1  0.77279430  0.44313928  0.59377043  1
  N  N52  1  0.55719909  0.53892852  0.33594722  1
  N  N53  1  0.44191666  0.43152181  0.08795189  1
  N  N54  1  0.22005498  0.54137347  0.83550791  1
  N  N55  1  0.11097817  0.42811785  0.58836140  1
  N  N56  1  0.88844666  0.53777211  0.33962846  1
  N  N57  1  0.79366924  0.39713223  0.08754658  1
  N  N58  1  0.55504533  0.54086080  0.84103325  1
  N  N59  1  0.44360872  0.43206875  0.59039376  1
  N  N60  1  0.22066968  0.87419181  0.33938255  1
  N  N61  1  0.12310407  0.75298931  0.09241682  1
  N  N62  1  0.88571876  0.87766900  0.89836872  1
  N  N63  1  0.79432289  0.77520726  0.58705891  1
  N  N64  1  0.55707265  0.86705470  0.34281944  1
  N  N65  1  0.44205816  0.76097174  0.08925623  1
  N  N66  1  0.22087666  0.87207639  0.83949511  1
  N  N67  1  0.07973742  0.77736323  0.58866011  1
  N  N68  1  0.88811623  0.87113046  0.32170793  1
  N  N69  1  0.77525513  0.74933810  0.09335294  1
  N  N70  1  0.56089321  0.86404611  0.83745134  1
  N  N71  1  0.44177760  0.76164372  0.58911551  1
