# generated using pymatgen
data_Al17BN18
_symmetry_space_group_name_H-M   'P 1'
_cell_length_a   9.30292752
_cell_length_b   9.32679140
_cell_length_c   10.17023785
_cell_angle_alpha   90.00002384
_cell_angle_beta   89.49355241
_cell_angle_gamma   59.91511069
_symmetry_Int_Tables_number   1
_chemical_formula_structural   Al17BN18
_chemical_formula_sum   'Al34 B2 N36'
_cell_volume   763.51724206
_cell_formula_units_Z   2
loop_
 _symmetry_equiv_pos_site_id
 _symmetry_equiv_pos_as_xyz
  1  'x, y, z'
loop_
 _atom_site_type_symbol
 _atom_site_label
 _atom_site_symmetry_multiplicity
 _atom_site_fract_x
 _atom_site_fract_y
 _atom_site_fract_z
 _atom_site_occupancy
  Al  Al0  1  0.11017851  0.09256555  0.38968153  1
  Al  Al1  1  0.22095933  0.20841636  0.06529781  1
  Al  Al2  1  0.77966975  0.08541281  0.81276858  1
  Al  Al3  1  0.88911775  0.20308344  0.59664362  1
  Al  Al4  1  0.44701589  0.09382451  0.31129866  1
  Al  Al5  1  0.56271889  0.20725454  0.05988092  1
  Al  Al6  1  0.09705277  0.09688878  0.87808984  1
  Al  Al7  1  0.22943207  0.20807553  0.56374278  1
  Al  Al8  1  0.77967051  0.10158245  0.31276886  1
  Al  Al9  1  0.44404517  0.09369539  0.81330759  1
  Al  Al10  1  0.56271923  0.19669392  0.55988068  1
  Al  Al11  1  0.11228767  0.42994632  0.31281186  1
  Al  Al12  1  0.22943138  0.52916123  0.06374319  1
  Al  Al13  1  0.77587015  0.43164107  0.80575868  1
  Al  Al14  1  0.89209256  0.54500061  0.56087804  1
  Al  Al15  1  0.44404573  0.42892585  0.31330756  1
  Al  Al16  1  0.55920398  0.53368609  0.06367400  1
  Al  Al17  1  0.11228794  0.42443309  0.81281188  1
  Al  Al18  1  0.22095969  0.53729210  0.56529823  1
  Al  Al19  1  0.78286549  0.42203406  0.31912147  1
  Al  Al20  1  0.89209248  0.52957425  0.06087775  1
  Al  Al21  1  0.44701658  0.42582590  0.81129894  1
  Al  Al22  1  0.55544395  0.54170413  0.55808392  1
  Al  Al23  1  0.09705296  0.77272387  0.37808960  1
  Al  Al24  1  0.20833476  0.88099135  0.13616989  1
  Al  Al25  1  0.78286529  0.76176736  0.81912137  1
  Al  Al26  1  0.44918767  0.76053795  0.31272497  1
  Al  Al27  1  0.55544296  0.86951890  0.05808384  1
  Al  Al28  1  0.11017928  0.76392218  0.88968113  1
  Al  Al29  1  0.20833535  0.87734141  0.63616940  1
  Al  Al30  1  0.77586906  0.75915495  0.30575826  1
  Al  Al31  1  0.88911660  0.87446646  0.09664291  1
  Al  Al32  1  0.44918868  0.75694043  0.81272432  1
  Al  Al33  1  0.55920409  0.87377726  0.56367375  1
  B  B34  1  0.88626896  0.20882054  0.10169280  1
  B  B35  1  0.88626918  0.87157766  0.60169260  1
  N  N36  1  0.22612095  0.20981410  0.37184288  1
  N  N37  1  0.07537983  0.11101824  0.07683593  1
  N  N38  1  0.88800432  0.20436589  0.81050615  1
  N  N39  1  0.78986962  0.05798372  0.61754946  1
  N  N40  1  0.55668386  0.20558891  0.37216049  1
  N  N41  1  0.44873463  0.09254262  0.12188273  1
  N  N42  1  0.22352462  0.20436443  0.87639600  1
  N  N43  1  0.12009718  0.08914425  0.57731105  1
  N  N44  1  0.88004520  0.20983942  0.38682242  1
  N  N45  1  0.78986925  0.11881394  0.11754974  1
  N  N46  1  0.55668366  0.20439384  0.87216073  1
  N  N47  1  0.44695387  0.09438554  0.62538849  1
  N  N48  1  0.22352545  0.53877703  0.37639634  1
  N  N49  1  0.11175381  0.42744631  0.12554229  1
  N  N50  1  0.88939031  0.53632976  0.87278691  1
  N  N51  1  0.77316998  0.44238483  0.61845149  1
  N  N52  1  0.55541041  0.54035662  0.37018208  1
  N  N53  1  0.44695346  0.42532825  0.12538855  1
  N  N54  1  0.22612161  0.53073154  0.87184318  1
  N  N55  1  0.11175413  0.42746777  0.62554235  1
  N  N56  1  0.88939018  0.54094673  0.37278713  1
  N  N57  1  0.79410973  0.39856701  0.12209471  1
  N  N58  1  0.55636505  0.53736582  0.87573019  1
  N  N59  1  0.44873517  0.42538960  0.62188304  1
  N  N60  1  0.21480592  0.87779950  0.32418779  1
  N  N61  1  0.12009632  0.75742720  0.07731082  1
  N  N62  1  0.88004558  0.87678158  0.88682230  1
  N  N63  1  0.79410974  0.77399046  0.62209469  1
  N  N64  1  0.55636434  0.87293623  0.37572999  1
  N  N65  1  0.44709915  0.75968242  0.12190716  1
  N  N66  1  0.21480668  0.87406074  0.82418722  1
  N  N67  1  0.07538006  0.78026934  0.57683580  1
  N  N68  1  0.88800438  0.87429504  0.31050604  1
  N  N69  1  0.77316904  0.75111237  0.11845107  1
  N  N70  1  0.55541022  0.87089994  0.87018197  1
  N  N71  1  0.44709991  0.75988489  0.62190663  1
