# generated using pymatgen
data_Al17BN18
_symmetry_space_group_name_H-M   'P 1'
_cell_length_a   9.32506306
_cell_length_b   9.33581702
_cell_length_c   10.23699893
_cell_angle_alpha   89.99478687
_cell_angle_beta   89.73336966
_cell_angle_gamma   59.92117293
_symmetry_Int_Tables_number   1
_chemical_formula_structural   Al17BN18
_chemical_formula_sum   'Al34 B2 N36'
_cell_volume   771.17994005
_cell_formula_units_Z   2
loop_
 _symmetry_equiv_pos_site_id
 _symmetry_equiv_pos_as_xyz
  1  'x, y, z'
loop_
 _atom_site_type_symbol
 _atom_site_label
 _atom_site_symmetry_multiplicity
 _atom_site_fract_x
 _atom_site_fract_y
 _atom_site_fract_z
 _atom_site_occupancy
  Al  Al0  1  0.11573558  0.09224752  0.39627300  1
  Al  Al1  1  0.21001436  0.21018518  0.13725863  1
  Al  Al2  1  0.78309582  0.08279239  0.81388805  1
  Al  Al3  1  0.89250041  0.20143297  0.60632530  1
  Al  Al4  1  0.45178701  0.09043402  0.31592026  1
  Al  Al5  1  0.56202223  0.20675944  0.06418664  1
  Al  Al6  1  0.10109602  0.09875456  0.88303813  1
  Al  Al7  1  0.21764410  0.21005603  0.64395114  1
  Al  Al8  1  0.78298116  0.10194885  0.31563358  1
  Al  Al9  1  0.45183309  0.09136328  0.82066072  1
  Al  Al10  1  0.56242088  0.19593398  0.56476752  1
  Al  Al11  1  0.11241058  0.42478975  0.39098084  1
  Al  Al12  1  0.21558635  0.53953471  0.14320412  1
  Al  Al13  1  0.78321784  0.42065672  0.87964505  1
  Al  Al14  1  0.89033170  0.54944167  0.64165166  1
  Al  Al15  1  0.45085893  0.42194626  0.32028397  1
  Al  Al16  1  0.55726842  0.53366596  0.09303480  1
  Al  Al17  1  0.11096832  0.42931746  0.89080381  1
  Al  Al18  1  0.21010330  0.54658651  0.63737095  1
  Al  Al19  1  0.78005601  0.42835112  0.39560616  1
  Al  Al20  1  0.88954929  0.52937453  0.14262305  1
  Al  Al21  1  0.44893988  0.42339889  0.82084068  1
  Al  Al22  1  0.55558002  0.54133182  0.60196875  1
  Al  Al23  1  0.10292236  0.76650024  0.38343198  1
  Al  Al24  1  0.20609804  0.88119454  0.14169454  1
  Al  Al25  1  0.78387184  0.75622695  0.89695839  1
  Al  Al26  1  0.44889164  0.75973139  0.31756292  1
  Al  Al27  1  0.54671003  0.87541136  0.06852133  1
  Al  Al28  1  0.11423550  0.75943799  0.89669441  1
  Al  Al29  1  0.20759216  0.87877489  0.64278722  1
  Al  Al30  1  0.78587700  0.76092276  0.37737409  1
  Al  Al31  1  0.89026722  0.87276366  0.11034767  1
  Al  Al32  1  0.44664973  0.76274789  0.82340776  1
  Al  Al33  1  0.55158218  0.87891705  0.56845272  1
  B  B34  1  0.88666392  0.20752792  0.09652467  1
  B  B35  1  0.88662616  0.87218338  0.59619983  1
  N  N36  1  0.21672175  0.20658325  0.32538334  1
  N  N37  1  0.07856289  0.10957536  0.07793065  1
  N  N38  1  0.88821704  0.20842154  0.81045424  1
  N  N39  1  0.79236871  0.05659739  0.62134922  1
  N  N40  1  0.55940658  0.20116193  0.37902159  1
  N  N41  1  0.45124901  0.09338251  0.12743548  1
  N  N42  1  0.21682957  0.20856853  0.83333824  1
  N  N43  1  0.12478995  0.09016641  0.58106904  1
  N  N44  1  0.88721909  0.20138017  0.39098492  1
  N  N45  1  0.79163281  0.11859642  0.12253960  1
  N  N46  1  0.56004123  0.20359393  0.87868404  1
  N  N47  1  0.45065461  0.09366523  0.63242905  1
  N  N48  1  0.21650215  0.54120370  0.33325938  1
  N  N49  1  0.10979775  0.42816679  0.07732461  1
  N  N50  1  0.88844099  0.54141644  0.82795357  1
  N  N51  1  0.77984511  0.44018465  0.58417645  1
  N  N52  1  0.55876468  0.53712936  0.35271221  1
  N  N53  1  0.44663872  0.42045664  0.12921699  1
  N  N54  1  0.21471727  0.54375220  0.82575806  1
  N  N55  1  0.11158041  0.42729310  0.57769671  1
  N  N56  1  0.89039356  0.53538412  0.32874434  1
  N  N57  1  0.79740678  0.39494635  0.07729708  1
  N  N58  1  0.55290000  0.54072265  0.87096687  1
  N  N59  1  0.45097979  0.42044785  0.62806641  1
  N  N60  1  0.21452517  0.87679116  0.32966174  1
  N  N61  1  0.12178070  0.75315397  0.08132619  1
  N  N62  1  0.88634883  0.87836340  0.88740822  1
  N  N63  1  0.79733545  0.77482412  0.57626433  1
  N  N64  1  0.55134897  0.87391459  0.38181678  1
  N  N65  1  0.44222897  0.76402661  0.12740721  1
  N  N66  1  0.21296586  0.87633992  0.83045630  1
  N  N67  1  0.07978918  0.77825052  0.57811796  1
  N  N68  1  0.88883170  0.87078954  0.31124645  1
  N  N69  1  0.77732889  0.74877057  0.08598676  1
  N  N70  1  0.55018524  0.87582396  0.88137303  1
  N  N71  1  0.44542016  0.76464185  0.63183792  1
