# generated using pymatgen
data_Al17BN18
_symmetry_space_group_name_H-M   'P 1'
_cell_length_a   9.34029135
_cell_length_b   9.33224468
_cell_length_c   10.17803212
_cell_angle_alpha   89.95386964
_cell_angle_beta   89.73339264
_cell_angle_gamma   59.84992885
_symmetry_Int_Tables_number   1
_chemical_formula_structural   Al17BN18
_chemical_formula_sum   'Al34 B2 N36'
_cell_volume   767.14396048
_cell_formula_units_Z   2
loop_
 _symmetry_equiv_pos_site_id
 _symmetry_equiv_pos_as_xyz
  1  'x, y, z'
loop_
 _atom_site_type_symbol
 _atom_site_label
 _atom_site_symmetry_multiplicity
 _atom_site_fract_x
 _atom_site_fract_y
 _atom_site_fract_z
 _atom_site_occupancy
  Al  Al0  1  0.11380444  0.09400284  0.39467813  1
  Al  Al1  1  0.20959975  0.21018817  0.13563200  1
  Al  Al2  1  0.78364963  0.08235045  0.81233111  1
  Al  Al3  1  0.89128330  0.20306460  0.60557359  1
  Al  Al4  1  0.45111580  0.09079552  0.31446860  1
  Al  Al5  1  0.56357354  0.20575761  0.06360284  1
  Al  Al6  1  0.10167154  0.09760543  0.88165721  1
  Al  Al7  1  0.21693992  0.20979477  0.64278450  1
  Al  Al8  1  0.78162788  0.10374015  0.31388941  1
  Al  Al9  1  0.45226454  0.08852206  0.81922098  1
  Al  Al10  1  0.56364536  0.19374352  0.56528681  1
  Al  Al11  1  0.11115081  0.42485233  0.38999319  1
  Al  Al12  1  0.22296823  0.53664233  0.14196862  1
  Al  Al13  1  0.78147032  0.42144889  0.87976152  1
  Al  Al14  1  0.89022582  0.54869868  0.64050130  1
  Al  Al15  1  0.44422145  0.42970198  0.37147859  1
  Al  Al16  1  0.55960224  0.53240006  0.13752770  1
  Al  Al17  1  0.11118295  0.42816503  0.89010111  1
  Al  Al18  1  0.21417717  0.54457714  0.63430042  1
  Al  Al19  1  0.77685786  0.43157279  0.39591364  1
  Al  Al20  1  0.89103160  0.52906513  0.14091633  1
  Al  Al21  1  0.44314212  0.42763353  0.85797821  1
  Al  Al22  1  0.55589467  0.54334642  0.63996136  1
  Al  Al23  1  0.10099005  0.76858084  0.38248637  1
  Al  Al24  1  0.21462636  0.87521906  0.14098302  1
  Al  Al25  1  0.78420690  0.75598029  0.89503137  1
  Al  Al26  1  0.43939266  0.75893633  0.38764436  1
  Al  Al27  1  0.55086718  0.87589077  0.07156080  1
  Al  Al28  1  0.11317722  0.75941073  0.89528752  1
  Al  Al29  1  0.21473291  0.87504834  0.64077255  1
  Al  Al30  1  0.78614512  0.76176764  0.37436829  1
  Al  Al31  1  0.89231545  0.87287223  0.10971680  1
  Al  Al32  1  0.43778956  0.75919651  0.88942702  1
  Al  Al33  1  0.55588011  0.87922122  0.56923358  1
  B  B34  1  0.88630467  0.20805016  0.09516723  1
  B  B35  1  0.88807373  0.87192133  0.59575219  1
  N  N36  1  0.21647173  0.20668643  0.32479991  1
  N  N37  1  0.07855446  0.10899342  0.07772353  1
  N  N38  1  0.88848485  0.20801319  0.81072258  1
  N  N39  1  0.79249066  0.05698079  0.62003497  1
  N  N40  1  0.56076654  0.19868629  0.37658417  1
  N  N41  1  0.45029284  0.09453705  0.12602387  1
  N  N42  1  0.21760943  0.20713863  0.83329150  1
  N  N43  1  0.12316229  0.09039356  0.58089773  1
  N  N44  1  0.88550162  0.20389711  0.38888257  1
  N  N45  1  0.79142961  0.11929527  0.12086190  1
  N  N46  1  0.56233247  0.19926036  0.87472672  1
  N  N47  1  0.44941113  0.09381172  0.63106191  1
  N  N48  1  0.21802963  0.54102325  0.33254483  1
  N  N49  1  0.11080775  0.42868867  0.07735521  1
  N  N50  1  0.88953664  0.53989637  0.82814458  1
  N  N51  1  0.77420132  0.44410458  0.58241754  1
  N  N52  1  0.55971918  0.53887892  0.32613557  1
  N  N53  1  0.44317277  0.42841744  0.09347834  1
  N  N54  1  0.21678113  0.54205342  0.82321788  1
  N  N55  1  0.11096895  0.42742911  0.57727154  1
  N  N56  1  0.89016417  0.53558284  0.32805745  1
  N  N57  1  0.79346524  0.39799123  0.07626026  1
  N  N58  1  0.55690620  0.54038596  0.82855462  1
  N  N59  1  0.44567242  0.42836639  0.59161323  1
  N  N60  1  0.21911688  0.87462102  0.32819816  1
  N  N61  1  0.12172462  0.75345040  0.08148864  1
  N  N62  1  0.88727002  0.87745002  0.88572752  1
  N  N63  1  0.79850519  0.77460564  0.57631161  1
  N  N64  1  0.55467728  0.87478167  0.37760667  1
  N  N65  1  0.43760393  0.75908524  0.08070432  1
  N  N66  1  0.21872238  0.87202760  0.82820015  1
  N  N67  1  0.07969825  0.77888219  0.57757780  1
  N  N68  1  0.88925369  0.87227559  0.31042735  1
  N  N69  1  0.77895028  0.74939938  0.08652133  1
  N  N70  1  0.55364506  0.87321486  0.87722340  1
  N  N71  1  0.43703524  0.76105992  0.57896176  1
