# generated using pymatgen
data_Al17BN18
_symmetry_space_group_name_H-M   'P 1'
_cell_length_a   9.31647830
_cell_length_b   9.33412400
_cell_length_c   10.09751352
_cell_angle_alpha   90.04208146
_cell_angle_beta   89.79650297
_cell_angle_gamma   59.97932685
_symmetry_Int_Tables_number   1
_chemical_formula_structural   Al17BN18
_chemical_formula_sum   'Al34 B2 N36'
_cell_volume   760.28311119
_cell_formula_units_Z   2
loop_
 _symmetry_equiv_pos_site_id
 _symmetry_equiv_pos_as_xyz
  1  'x, y, z'
loop_
 _atom_site_type_symbol
 _atom_site_label
 _atom_site_symmetry_multiplicity
 _atom_site_fract_x
 _atom_site_fract_y
 _atom_site_fract_z
 _atom_site_occupancy
  Al  Al0  1  0.11276761  0.09369751  0.40499494  1
  Al  Al1  1  0.21422829  0.20812978  0.14481399  1
  Al  Al2  1  0.78202331  0.08287971  0.82348123  1
  Al  Al3  1  0.89161593  0.20282882  0.61673947  1
  Al  Al4  1  0.44213141  0.09449966  0.37277683  1
  Al  Al5  1  0.56668658  0.20266344  0.07674405  1
  Al  Al6  1  0.10091619  0.09753574  0.89150516  1
  Al  Al7  1  0.22235284  0.20702237  0.65183612  1
  Al  Al8  1  0.78209534  0.10257855  0.32386702  1
  Al  Al9  1  0.44468057  0.09170563  0.87974087  1
  Al  Al10  1  0.56640867  0.19294828  0.57643048  1
  Al  Al11  1  0.10996396  0.42723832  0.39989609  1
  Al  Al12  1  0.22476343  0.53621910  0.15261063  1
  Al  Al13  1  0.78092430  0.42142337  0.88971968  1
  Al  Al14  1  0.89113961  0.54627429  0.65060481  1
  Al  Al15  1  0.44272687  0.43478873  0.39836109  1
  Al  Al16  1  0.55944342  0.53205393  0.14740958  1
  Al  Al17  1  0.11000489  0.43059802  0.89993485  1
  Al  Al18  1  0.21645869  0.54291333  0.64705191  1
  Al  Al19  1  0.77561038  0.43152113  0.40552622  1
  Al  Al20  1  0.89151554  0.52890088  0.15076187  1
  Al  Al21  1  0.44019108  0.43518759  0.89585923  1
  Al  Al22  1  0.55420673  0.54207501  0.65234558  1
  Al  Al23  1  0.10159661  0.76761502  0.39134777  1
  Al  Al24  1  0.21619579  0.87570200  0.15027784  1
  Al  Al25  1  0.77671591  0.75915412  0.90557659  1
  Al  Al26  1  0.44301587  0.76070145  0.39994352  1
  Al  Al27  1  0.55594835  0.86699979  0.15065512  1
  Al  Al28  1  0.11271851  0.76043200  0.90465302  1
  Al  Al29  1  0.21609883  0.87476721  0.65029594  1
  Al  Al30  1  0.78150304  0.76418901  0.39036374  1
  Al  Al31  1  0.89232641  0.87164377  0.11753317  1
  Al  Al32  1  0.44324936  0.76258235  0.89991789  1
  Al  Al33  1  0.56007919  0.87264177  0.64611360  1
  B  B34  1  0.88726975  0.20771882  0.10596051  1
  B  B35  1  0.88810721  0.87096053  0.60596378  1
  N  N36  1  0.21621608  0.20744279  0.33437266  1
  N  N37  1  0.07884067  0.10930980  0.08838737  1
  N  N38  1  0.88806108  0.20784898  0.82130831  1
  N  N39  1  0.79316175  0.05531241  0.63026047  1
  N  N40  1  0.56177149  0.20305117  0.38203537  1
  N  N41  1  0.44508156  0.09128036  0.10144762  1
  N  N42  1  0.21817188  0.20758396  0.84271802  1
  N  N43  1  0.12245690  0.09032297  0.59233111  1
  N  N44  1  0.88529568  0.20428739  0.39856040  1
  N  N45  1  0.79233917  0.11843846  0.13093000  1
  N  N46  1  0.56220241  0.20345200  0.88241677  1
  N  N47  1  0.44264200  0.09358922  0.60118317  1
  N  N48  1  0.22106349  0.53971306  0.34202382  1
  N  N49  1  0.11166282  0.42868352  0.08857957  1
  N  N50  1  0.88890545  0.54056400  0.83942140  1
  N  N51  1  0.77289439  0.44293271  0.59376625  1
  N  N52  1  0.55732213  0.53929956  0.33590041  1
  N  N53  1  0.44185288  0.43203453  0.08795905  1
  N  N54  1  0.21975759  0.54175431  0.83550261  1
  N  N55  1  0.11139859  0.42741606  0.58861027  1
  N  N56  1  0.88858663  0.53758179  0.33960318  1
  N  N57  1  0.79368418  0.39711975  0.08752283  1
  N  N58  1  0.55515955  0.54118378  0.84099051  1
  N  N59  1  0.44369678  0.43232611  0.59040936  1
  N  N60  1  0.22072142  0.87421830  0.33939900  1
  N  N61  1  0.12309040  0.75303488  0.09246320  1
  N  N62  1  0.88541790  0.87776126  0.89820537  1
  N  N63  1  0.79421174  0.77521083  0.58722863  1
  N  N64  1  0.55654193  0.86806634  0.34067212  1
  N  N65  1  0.44235240  0.76099385  0.08923746  1
  N  N66  1  0.22081891  0.87213001  0.83951827  1
  N  N67  1  0.07974708  0.77733659  0.58868547  1
  N  N68  1  0.88815785  0.87114338  0.32164357  1
  N  N69  1  0.77451358  0.74972611  0.09341344  1
  N  N70  1  0.55927603  0.86696223  0.83604876  1
  N  N71  1  0.44210234  0.76166848  0.58921475  1
