# generated using pymatgen
data_Al17BN18
_symmetry_space_group_name_H-M   'P 1'
_cell_length_a   9.30129913
_cell_length_b   9.35922320
_cell_length_c   10.20780778
_cell_angle_alpha   90.00001739
_cell_angle_beta   89.36285957
_cell_angle_gamma   59.79329755
_symmetry_Int_Tables_number   1
_chemical_formula_structural   Al17BN18
_chemical_formula_sum   'Al34 B2 N36'
_cell_volume   767.89567665
_cell_formula_units_Z   2
loop_
 _symmetry_equiv_pos_site_id
 _symmetry_equiv_pos_as_xyz
  1  'x, y, z'
loop_
 _atom_site_type_symbol
 _atom_site_label
 _atom_site_symmetry_multiplicity
 _atom_site_fract_x
 _atom_site_fract_y
 _atom_site_fract_z
 _atom_site_occupancy
  Al  Al0  1  0.11569252  0.09242182  0.39702097  1
  Al  Al1  1  0.21174079  0.20929110  0.13903494  1
  Al  Al2  1  0.78210644  0.08567777  0.82043358  1
  Al  Al3  1  0.88857184  0.20099099  0.59730265  1
  Al  Al4  1  0.45172037  0.09031481  0.31797028  1
  Al  Al5  1  0.56013415  0.20928481  0.06743182  1
  Al  Al6  1  0.09994271  0.09933750  0.88892189  1
  Al  Al7  1  0.21729949  0.20751329  0.64564211  1
  Al  Al8  1  0.78210668  0.09888256  0.32043383  1
  Al  Al9  1  0.45045959  0.09182125  0.82272501  1
  Al  Al10  1  0.56013348  0.19724779  0.56743188  1
  Al  Al11  1  0.11372123  0.42504929  0.39055689  1
  Al  Al12  1  0.21730027  0.54185260  0.14564205  1
  Al  Al13  1  0.77630504  0.42845153  0.81382431  1
  Al  Al14  1  0.89059351  0.54586067  0.60838589  1
  Al  Al15  1  0.45046057  0.42438595  0.32272479  1
  Al  Al16  1  0.55769979  0.53351614  0.07013611  1
  Al  Al17  1  0.11372017  0.42789684  0.89055695  1
  Al  Al18  1  0.21174047  0.54563424  0.63903511  1
  Al  Al19  1  0.78226082  0.41856142  0.32963193  1
  Al  Al20  1  0.89059366  0.53021326  0.10838677  1
  Al  Al21  1  0.45172037  0.42463187  0.81797042  1
  Al  Al22  1  0.55400054  0.54160575  0.56542969  1
  Al  Al23  1  0.09994359  0.76738639  0.38892198  1
  Al  Al24  1  0.20898508  0.87923972  0.14425125  1
  Al  Al25  1  0.78225995  0.76584568  0.82963174  1
  Al  Al26  1  0.44967066  0.75913098  0.32058979  1
  Al  Al27  1  0.55400017  0.87105984  0.06542972  1
  Al  Al28  1  0.11569266  0.75855235  0.89702106  1
  Al  Al29  1  0.20898499  0.87844088  0.64425138  1
  Al  Al30  1  0.77630562  0.76191078  0.31382481  1
  Al  Al31  1  0.88857163  0.87710341  0.09730230  1
  Al  Al32  1  0.44967056  0.75786543  0.82058970  1
  Al  Al33  1  0.55769887  0.87545110  0.57013605  1
  B  B34  1  0.88595828  0.20755985  0.10753413  1
  B  B35  1  0.88595795  0.87314911  0.60753387  1
  N  N36  1  0.21625800  0.20663773  0.32654534  1
  N  N37  1  0.07859720  0.11051946  0.08371812  1
  N  N38  1  0.88927073  0.20326572  0.82270175  1
  N  N39  1  0.79116926  0.05824412  0.62530621  1
  N  N40  1  0.55657521  0.20377849  0.38080914  1
  N  N41  1  0.45284739  0.09118105  0.12747694  1
  N  N42  1  0.21648058  0.20698859  0.83524637  1
  N  N43  1  0.12286056  0.08986206  0.58155099  1
  N  N44  1  0.88207525  0.20644168  0.39561042  1
  N  N45  1  0.79116972  0.11725341  0.12530630  1
  N  N46  1  0.55657504  0.20631237  0.88080908  1
  N  N47  1  0.45063357  0.09208860  0.63347937  1
  N  N48  1  0.21648150  0.54319610  0.33524633  1
  N  N49  1  0.11780433  0.42577817  0.07810095  1
  N  N50  1  0.88872269  0.53978856  0.85112258  1
  N  N51  1  0.77209752  0.43689883  0.62438284  1
  N  N52  1  0.55458552  0.53998394  0.37941587  1
  N  N53  1  0.45063437  0.42394498  0.13347923  1
  N  N54  1  0.21625779  0.54376991  0.82654544  1
  N  N55  1  0.11780440  0.42308444  0.57810085  1
  N  N56  1  0.88872359  0.53815470  0.35112246  1
  N  N57  1  0.79297981  0.39505273  0.12951393  1
  N  N58  1  0.55549499  0.53849531  0.88355977  1
  N  N59  1  0.45284731  0.42263902  0.62747704  1
  N  N60  1  0.21483233  0.87586293  0.33258577  1
  N  N61  1  0.12286058  0.75394393  0.08155105  1
  N  N62  1  0.88207515  0.87814912  0.89561035  1
  N  N63  1  0.79297940  0.77863524  0.62951369  1
  N  N64  1  0.55549509  0.87267580  0.38355976  1
  N  N65  1  0.44872140  0.75860949  0.13033414  1
  N  N66  1  0.21483207  0.87597072  0.83258583  1
  N  N67  1  0.07859714  0.77754989  0.58371813  1
  N  N68  1  0.88927146  0.87412923  0.32270232  1
  N  N69  1  0.77209686  0.75767199  0.12438337  1
  N  N70  1  0.55458498  0.87209706  0.87941586  1
  N  N71  1  0.44872132  0.75933621  0.63033411  1
