# generated using pymatgen
data_Al17BN18
_symmetry_space_group_name_H-M   'P 1'
_cell_length_a   9.31164315
_cell_length_b   9.33754677
_cell_length_c   10.13089984
_cell_angle_alpha   90.03762712
_cell_angle_beta   89.67550385
_cell_angle_gamma   59.98059445
_symmetry_Int_Tables_number   1
_chemical_formula_structural   Al17BN18
_chemical_formula_sum   'Al34 B2 N36'
_cell_volume   762.67992988
_cell_formula_units_Z   2
loop_
 _symmetry_equiv_pos_site_id
 _symmetry_equiv_pos_as_xyz
  1  'x, y, z'
loop_
 _atom_site_type_symbol
 _atom_site_label
 _atom_site_symmetry_multiplicity
 _atom_site_fract_x
 _atom_site_fract_y
 _atom_site_fract_z
 _atom_site_occupancy
  Al  Al0  1  0.10964946  0.09336819  0.38439229  1
  Al  Al1  1  0.21492663  0.20575010  0.06085423  1
  Al  Al2  1  0.77941729  0.08593461  0.81123761  1
  Al  Al3  1  0.88473856  0.20493911  0.59039745  1
  Al  Al4  1  0.44640156  0.09342416  0.30741322  1
  Al  Al5  1  0.56204420  0.20758322  0.05793120  1
  Al  Al6  1  0.10522328  0.09876740  0.82872865  1
  Al  Al7  1  0.23022838  0.20893332  0.56132859  1
  Al  Al8  1  0.77962862  0.10093693  0.31014347  1
  Al  Al9  1  0.44557414  0.09398326  0.81077340  1
  Al  Al10  1  0.56273703  0.19610213  0.55706897  1
  Al  Al11  1  0.11242910  0.42831106  0.30862460  1
  Al  Al12  1  0.22858740  0.52998473  0.06129845  1
  Al  Al13  1  0.77475448  0.43324011  0.80339918  1
  Al  Al14  1  0.89211493  0.54529013  0.55789263  1
  Al  Al15  1  0.44442952  0.42793468  0.30984823  1
  Al  Al16  1  0.55888152  0.53429660  0.06176820  1
  Al  Al17  1  0.11139533  0.42806329  0.81026889  1
  Al  Al18  1  0.22136154  0.53589904  0.56160044  1
  Al  Al19  1  0.78341617  0.42133946  0.31600185  1
  Al  Al20  1  0.89121864  0.52983100  0.05851243  1
  Al  Al21  1  0.44657284  0.42678039  0.80899885  1
  Al  Al22  1  0.55667728  0.54024562  0.55449759  1
  Al  Al23  1  0.09727845  0.77003758  0.37410133  1
  Al  Al24  1  0.20684687  0.88381604  0.13647363  1
  Al  Al25  1  0.78258124  0.76254202  0.81708902  1
  Al  Al26  1  0.45068468  0.75893695  0.31135569  1
  Al  Al27  1  0.55376307  0.87014940  0.05578362  1
  Al  Al28  1  0.11021769  0.76672089  0.88766820  1
  Al  Al29  1  0.21258823  0.86946784  0.62485751  1
  Al  Al30  1  0.77629663  0.75880964  0.30221001  1
  Al  Al31  1  0.88870662  0.87594485  0.09350186  1
  Al  Al32  1  0.44993730  0.75651587  0.80781147  1
  Al  Al33  1  0.56079123  0.87362694  0.56004336  1
  B  B34  1  0.89008351  0.20748345  0.10232800  1
  B  B35  1  0.88608071  0.87097555  0.59820524  1
  N  N36  1  0.22617595  0.20877377  0.37112524  1
  N  N37  1  0.07523113  0.11342479  0.09390529  1
  N  N38  1  0.88380790  0.20731041  0.80816213  1
  N  N39  1  0.79004031  0.05696438  0.61456297  1
  N  N40  1  0.55655185  0.20489878  0.36891618  1
  N  N41  1  0.44568345  0.09366587  0.11751271  1
  N  N42  1  0.22258664  0.20524117  0.86974587  1
  N  N43  1  0.11901930  0.09152460  0.58604169  1
  N  N44  1  0.87993103  0.20925700  0.38805012  1
  N  N45  1  0.78900816  0.11959944  0.11594861  1
  N  N46  1  0.55645978  0.20530972  0.86935713  1
  N  N47  1  0.44757836  0.09371632  0.62240008  1
  N  N48  1  0.22415970  0.53669814  0.37229143  1
  N  N49  1  0.11191005  0.42650219  0.12079930  1
  N  N50  1  0.88907039  0.53731702  0.86960469  1
  N  N51  1  0.77332206  0.44299389  0.61530655  1
  N  N52  1  0.55668991  0.53830153  0.36686707  1
  N  N53  1  0.44639087  0.42574991  0.12194324  1
  N  N54  1  0.22569917  0.53314409  0.86887925  1
  N  N55  1  0.11168472  0.42777499  0.62256580  1
  N  N56  1  0.89008434  0.54034673  0.36934134  1
  N  N57  1  0.79293367  0.39987600  0.12012328  1
  N  N58  1  0.55587639  0.53860077  0.87268312  1
  N  N59  1  0.44897324  0.42507521  0.61874382  1
  N  N60  1  0.21744142  0.87479686  0.32850470  1
  N  N61  1  0.12028519  0.75859770  0.07600708  1
  N  N62  1  0.88027029  0.87733906  0.88436846  1
  N  N63  1  0.79432102  0.77369219  0.61925002  1
  N  N64  1  0.55743202  0.87275172  0.37206318  1
  N  N65  1  0.44573430  0.76039931  0.12042329  1
  N  N66  1  0.21655469  0.87068638  0.81497558  1
  N  N67  1  0.07480159  0.77832714  0.57208621  1
  N  N68  1  0.88800946  0.87406800  0.30809455  1
  N  N69  1  0.77257064  0.75197110  0.11462562  1
  N  N70  1  0.55478785  0.87130437  0.86673435  1
  N  N71  1  0.44936695  0.75867972  0.61587469  1
