# generated using pymatgen
data_Al17BN18
_symmetry_space_group_name_H-M   'P 1'
_cell_length_a   9.30053708
_cell_length_b   9.29830479
_cell_length_c   9.94034836
_cell_angle_alpha   89.99999783
_cell_angle_beta   89.96811178
_cell_angle_gamma   60.00794150
_symmetry_Int_Tables_number   1
_chemical_formula_structural   Al17BN18
_chemical_formula_sum   'Al34 B2 N36'
_cell_volume   744.52399912
_cell_formula_units_Z   2
loop_
 _symmetry_equiv_pos_site_id
 _symmetry_equiv_pos_as_xyz
  1  'x, y, z'
loop_
 _atom_site_type_symbol
 _atom_site_label
 _atom_site_symmetry_multiplicity
 _atom_site_fract_x
 _atom_site_fract_y
 _atom_site_fract_z
 _atom_site_occupancy
  Al  Al0  1  0.10554873  0.09711131  0.29660605  1
  Al  Al1  1  0.21713821  0.20739142  0.05097892  1
  Al  Al2  1  0.78176618  0.09052870  0.80330028  1
  Al  Al3  1  0.89034690  0.19997254  0.55271749  1
  Al  Al4  1  0.44446125  0.09418866  0.30038467  1
  Al  Al5  1  0.56086922  0.20651907  0.05086926  1
  Al  Al6  1  0.10846544  0.09557144  0.80795441  1
  Al  Al7  1  0.22104801  0.20461630  0.55104786  1
  Al  Al8  1  0.78176614  0.09437220  0.30330022  1
  Al  Al9  1  0.44452177  0.09476410  0.80119657  1
  Al  Al10  1  0.56086968  0.19927833  0.55086939  1
  Al  Al11  1  0.11085086  0.42773977  0.30088550  1
  Al  Al12  1  0.22104791  0.54100247  0.05104790  1
  Al  Al13  1  0.77898986  0.42515294  0.80785427  1
  Al  Al14  1  0.88966317  0.54100589  0.55133957  1
  Al  Al15  1  0.44452144  0.42738048  0.30119651  1
  Al  Al16  1  0.55904825  0.53385795  0.05106988  1
  Al  Al17  1  0.11085106  0.42807537  0.80088565  1
  Al  Al18  1  0.21713836  0.54213698  0.55097884  1
  Al  Al19  1  0.78078725  0.42207268  0.29709459  1
  Al  Al20  1  0.88966274  0.53599762  0.05133955  1
  Al  Al21  1  0.44446117  0.42801661  0.80038461  1
  Al  Al22  1  0.55734230  0.53755615  0.55057746  1
  Al  Al23  1  0.10846519  0.76262948  0.30795438  1
  Al  Al24  1  0.21616398  0.87499918  0.05125306  1
  Al  Al25  1  0.78078785  0.76380653  0.79709451  1
  Al  Al26  1  0.44440424  0.76153215  0.30115789  1
  Al  Al27  1  0.55734263  0.87176807  0.05057754  1
  Al  Al28  1  0.10554890  0.76400610  0.79660608  1
  Al  Al29  1  0.21616426  0.87550395  0.55125301  1
  Al  Al30  1  0.77899002  0.76252384  0.30785442  1
  Al  Al31  1  0.89034649  0.87634751  0.05271748  1
  Al  Al32  1  0.44440436  0.76073070  0.80115782  1
  Al  Al33  1  0.55904873  0.87376055  0.55106994  1
  B  B34  1  0.88904110  0.20470261  0.04840476  1
  B  B35  1  0.88904147  0.87292288  0.54840476  1
  N  N36  1  0.22103106  0.20424997  0.35823236  1
  N  N37  1  0.08593196  0.10689360  0.10245256  1
  N  N38  1  0.88803869  0.20440067  0.88098429  1
  N  N39  1  0.79095987  0.06989778  0.60714306  1
  N  N40  1  0.55750635  0.20405847  0.35896854  1
  N  N41  1  0.44442891  0.09519050  0.10878507  1
  N  N42  1  0.22232404  0.20607935  0.86093597  1
  N  N43  1  0.10945019  0.09544943  0.61585676  1
  N  N44  1  0.88934357  0.20560128  0.36453146  1
  N  N45  1  0.79095952  0.10580939  0.10714300  1
  N  N46  1  0.55750635  0.20510180  0.85896844  1
  N  N47  1  0.44341907  0.09511900  0.61015431  1
  N  N48  1  0.22232369  0.53826296  0.36093585  1
  N  N49  1  0.11105547  0.42872450  0.11012755  1
  N  N50  1  0.88791336  0.54145792  0.85956011  1
  N  N51  1  0.77916516  0.42502598  0.61475866  1
  N  N52  1  0.55790869  0.53770857  0.35823386  1
  N  N53  1  0.44341878  0.42812886  0.11015428  1
  N  N54  1  0.22103116  0.54138518  0.85823238  1
  N  N55  1  0.11105570  0.42688654  0.61012769  1
  N  N56  1  0.88791324  0.53729522  0.35956013  1
  N  N57  1  0.79065013  0.40280780  0.10273199  1
  N  N58  1  0.55506269  0.53892331  0.86082534  1
  N  N59  1  0.44442883  0.42704724  0.60878504  1
  N  N60  1  0.22118270  0.87508426  0.35948698  1
  N  N61  1  0.10944996  0.76176734  0.11585665  1
  N  N62  1  0.88934367  0.87172196  0.86453144  1
  N  N63  1  0.79065060  0.77320840  0.60273195  1
  N  N64  1  0.55506296  0.87268063  0.36082547  1
  N  N65  1  0.44395399  0.76143114  0.10918211  1
  N  N66  1  0.22118285  0.87039940  0.85948702  1
  N  N67  1  0.08593235  0.77384107  0.60245248  1
  N  N68  1  0.88803863  0.87422756  0.38098430  1
  N  N69  1  0.77916518  0.76247544  0.11475881  1
  N  N70  1  0.55790930  0.87104898  0.85823397  1
  N  N71  1  0.44395420  0.76128183  0.60918204  1
