# generated using pymatgen
data_Al17BN18
_symmetry_space_group_name_H-M   'P 1'
_cell_length_a   9.33144359
_cell_length_b   9.33091014
_cell_length_c   10.15210007
_cell_angle_alpha   90.05970677
_cell_angle_beta   89.74788233
_cell_angle_gamma   59.90947182
_symmetry_Int_Tables_number   1
_chemical_formula_structural   Al17BN18
_chemical_formula_sum   'Al34 B2 N36'
_cell_volume   764.81289638
_cell_formula_units_Z   2
loop_
 _symmetry_equiv_pos_site_id
 _symmetry_equiv_pos_as_xyz
  1  'x, y, z'
loop_
 _atom_site_type_symbol
 _atom_site_label
 _atom_site_symmetry_multiplicity
 _atom_site_fract_x
 _atom_site_fract_y
 _atom_site_fract_z
 _atom_site_occupancy
  Al  Al0  1  0.11335640  0.09406315  0.39428334  1
  Al  Al1  1  0.20939357  0.21013352  0.13542949  1
  Al  Al2  1  0.78270024  0.08313514  0.81283535  1
  Al  Al3  1  0.89102757  0.20319262  0.60529635  1
  Al  Al4  1  0.44944513  0.09324172  0.31746835  1
  Al  Al5  1  0.56624801  0.20061695  0.06334994  1
  Al  Al6  1  0.10189662  0.09791295  0.88069982  1
  Al  Al7  1  0.21589484  0.21085091  0.64177590  1
  Al  Al8  1  0.78131122  0.10365430  0.31389493  1
  Al  Al9  1  0.45208763  0.09048289  0.81794376  1
  Al  Al10  1  0.56520410  0.19191014  0.56443132  1
  Al  Al11  1  0.11092157  0.42609235  0.38930773  1
  Al  Al12  1  0.22523694  0.53557612  0.14179044  1
  Al  Al13  1  0.78088656  0.42186569  0.87848698  1
  Al  Al14  1  0.88983466  0.54836102  0.64035007  1
  Al  Al15  1  0.44249613  0.43354203  0.38852204  1
  Al  Al16  1  0.55933275  0.53056077  0.13708991  1
  Al  Al17  1  0.11154714  0.42871857  0.88930301  1
  Al  Al18  1  0.21648073  0.54325223  0.63646778  1
  Al  Al19  1  0.77542722  0.43197515  0.39517480  1
  Al  Al20  1  0.89191572  0.52813518  0.14050901  1
  Al  Al21  1  0.44043347  0.43332673  0.88536759  1
  Al  Al22  1  0.55365743  0.54174987  0.64211633  1
  Al  Al23  1  0.10168692  0.76757589  0.38108012  1
  Al  Al24  1  0.21467862  0.87553469  0.14017320  1
  Al  Al25  1  0.78168410  0.75757921  0.89368782  1
  Al  Al26  1  0.43979092  0.75861378  0.38717501  1
  Al  Al27  1  0.55313445  0.87199388  0.08489427  1
  Al  Al28  1  0.11329555  0.75972504  0.89423017  1
  Al  Al29  1  0.21440920  0.87500312  0.64034359  1
  Al  Al30  1  0.78542518  0.76243321  0.37556491  1
  Al  Al31  1  0.89354028  0.87211667  0.10790853  1
  Al  Al32  1  0.43987660  0.76088474  0.88726293  1
  Al  Al33  1  0.55625932  0.87683706  0.57644600  1
  B  B34  1  0.88642527  0.20814161  0.09486485  1
  B  B35  1  0.88874453  0.87113089  0.59535186  1
  N  N36  1  0.21521085  0.20766885  0.32490193  1
  N  N37  1  0.07853534  0.10899342  0.07741995  1
  N  N38  1  0.88859506  0.20801633  0.81026076  1
  N  N39  1  0.79299140  0.05614034  0.61975971  1
  N  N40  1  0.56063872  0.20045972  0.37527501  1
  N  N41  1  0.45014633  0.09441592  0.12689960  1
  N  N42  1  0.21752164  0.20768978  0.83272095  1
  N  N43  1  0.12289586  0.09022444  0.58067565  1
  N  N44  1  0.88515259  0.20429587  0.38867044  1
  N  N45  1  0.79139986  0.11938747  0.12087194  1
  N  N46  1  0.56201720  0.20027330  0.87432408  1
  N  N47  1  0.44746061  0.09614266  0.62804834  1
  N  N48  1  0.22133630  0.53929009  0.33079455  1
  N  N49  1  0.11200471  0.42828791  0.07735201  1
  N  N50  1  0.88992309  0.53999319  0.82823141  1
  N  N51  1  0.77219721  0.44450998  0.58268755  1
  N  N52  1  0.55755332  0.53751162  0.32455184  1
  N  N53  1  0.44208091  0.43067134  0.07655976  1
  N  N54  1  0.22030297  0.54088846  0.82438646  1
  N  N55  1  0.11069851  0.42861677  0.57722328  1
  N  N56  1  0.88947076  0.53620260  0.32803774  1
  N  N57  1  0.79339562  0.39761406  0.07620198  1
  N  N58  1  0.55512908  0.53944990  0.82966337  1
  N  N59  1  0.44357242  0.43162248  0.57945926  1
  N  N60  1  0.21922351  0.87474364  0.32763881  1
  N  N61  1  0.12328856  0.75227641  0.08118590  1
  N  N62  1  0.88694058  0.87818463  0.88744527  1
  N  N63  1  0.79818753  0.77436255  0.57622394  1
  N  N64  1  0.55454170  0.87398236  0.37391110  1
  N  N65  1  0.43865776  0.75832260  0.07989125  1
  N  N66  1  0.21907423  0.87239120  0.82812622  1
  N  N67  1  0.08015543  0.77774894  0.57747467  1
  N  N68  1  0.88936898  0.87182283  0.30987042  1
  N  N69  1  0.77961967  0.74827753  0.08548652  1
  N  N70  1  0.55572319  0.87118677  0.86472016  1
  N  N71  1  0.43704058  0.75954464  0.57874003  1
