# generated using pymatgen
data_Al17BN18
_symmetry_space_group_name_H-M   'P 1'
_cell_length_a   9.30033739
_cell_length_b   9.30306966
_cell_length_c   9.99804187
_cell_angle_alpha   89.96727505
_cell_angle_beta   89.92371229
_cell_angle_gamma   59.99075122
_symmetry_Int_Tables_number   1
_chemical_formula_structural   Al17BN18
_chemical_formula_sum   'Al34 B2 N36'
_cell_volume   749.08256591
_cell_formula_units_Z   2
loop_
 _symmetry_equiv_pos_site_id
 _symmetry_equiv_pos_as_xyz
  1  'x, y, z'
loop_
 _atom_site_type_symbol
 _atom_site_label
 _atom_site_symmetry_multiplicity
 _atom_site_fract_x
 _atom_site_fract_y
 _atom_site_fract_z
 _atom_site_occupancy
  Al  Al0  1  0.10974845  0.09494296  0.40048402  1
  Al  Al1  1  0.21549542  0.20783672  0.14783674  1
  Al  Al2  1  0.78248744  0.09278547  0.88015956  1
  Al  Al3  1  0.89079476  0.20186434  0.63082768  1
  Al  Al4  1  0.44351604  0.09503928  0.39709934  1
  Al  Al5  1  0.56198442  0.20691576  0.14806341  1
  Al  Al6  1  0.10653742  0.09647133  0.89235945  1
  Al  Al7  1  0.22361514  0.20504820  0.65010636  1
  Al  Al8  1  0.77985114  0.08946979  0.40441769  1
  Al  Al9  1  0.44550484  0.09329711  0.89977442  1
  Al  Al10  1  0.55821502  0.20009721  0.64798713  1
  Al  Al11  1  0.10997625  0.42753292  0.39826795  1
  Al  Al12  1  0.22098079  0.54077042  0.14961704  1
  Al  Al13  1  0.78063423  0.42244238  0.89191531  1
  Al  Al14  1  0.89045969  0.54397159  0.65032473  1
  Al  Al15  1  0.44550843  0.42771027  0.39811042  1
  Al  Al16  1  0.55973365  0.53232997  0.14787499  1
  Al  Al17  1  0.11200533  0.42770188  0.89939696  1
  Al  Al18  1  0.21735106  0.54240445  0.64756960  1
  Al  Al19  1  0.77708860  0.42840789  0.40099255  1
  Al  Al20  1  0.89028780  0.53424923  0.14772297  1
  Al  Al21  1  0.44430101  0.42700450  0.89856976  1
  Al  Al22  1  0.55478514  0.54057324  0.65038271  1
  Al  Al23  1  0.10463990  0.76551824  0.40210074  1
  Al  Al24  1  0.21433420  0.87598398  0.14769585  1
  Al  Al25  1  0.77874684  0.76216439  0.89324830  1
  Al  Al26  1  0.44345585  0.76108762  0.39770108  1
  Al  Al27  1  0.55714364  0.87177504  0.15002988  1
  Al  Al28  1  0.10927988  0.76068606  0.89238718  1
  Al  Al29  1  0.21763287  0.87319190  0.64982678  1
  Al  Al30  1  0.78069491  0.76352856  0.40142080  1
  Al  Al31  1  0.89048023  0.87789115  0.14625903  1
  Al  Al32  1  0.44456106  0.76152679  0.89941556  1
  Al  Al33  1  0.55891370  0.87355193  0.64752209  1
  B  B34  1  0.88825157  0.20454107  0.10561156  1
  B  B35  1  0.88728068  0.87184584  0.65094737  1
  N  N36  1  0.22108764  0.20520178  0.33684190  1
  N  N37  1  0.08075099  0.10926307  0.08880715  1
  N  N38  1  0.89012392  0.20587896  0.82514123  1
  N  N39  1  0.78809419  0.06548903  0.59897349  1
  N  N40  1  0.55775633  0.20424205  0.33901164  1
  N  N41  1  0.44477136  0.09492475  0.09049801  1
  N  N42  1  0.22303746  0.20494547  0.84172191  1
  N  N43  1  0.11886692  0.09122879  0.59091279  1
  N  N44  1  0.88619251  0.20534925  0.37134904  1
  N  N45  1  0.79321762  0.10806366  0.08368212  1
  N  N46  1  0.55532414  0.20487431  0.83878572  1
  N  N47  1  0.44373080  0.09491537  0.58753016  1
  N  N48  1  0.22073670  0.54150413  0.34108420  1
  N  N49  1  0.11134936  0.42859202  0.08919275  1
  N  N50  1  0.88980927  0.53809587  0.84103092  1
  N  N51  1  0.77495102  0.43665154  0.59226926  1
  N  N52  1  0.55601942  0.53916389  0.33705465  1
  N  N53  1  0.44331383  0.42791399  0.08887430  1
  N  N54  1  0.22314300  0.53746751  0.83764990  1
  N  N55  1  0.11145610  0.42676095  0.58881093  1
  N  N56  1  0.88685457  0.54113907  0.33830980  1
  N  N57  1  0.79290282  0.39737235  0.08872688  1
  N  N58  1  0.55556550  0.53882050  0.84155997  1
  N  N59  1  0.44524617  0.42732787  0.58933182  1
  N  N60  1  0.22020138  0.87242807  0.33830210  1
  N  N61  1  0.10950824  0.76123249  0.08369731  1
  N  N62  1  0.89026065  0.86921036  0.81808519  1
  N  N63  1  0.79096068  0.77295415  0.59572207  1
  N  N64  1  0.55747256  0.87107187  0.34098626  1
  N  N65  1  0.44395663  0.76148918  0.09037591  1
  N  N66  1  0.22238190  0.87210116  0.84052618  1
  N  N67  1  0.08624734  0.77370924  0.59579978  1
  N  N68  1  0.88768448  0.87359179  0.33386020  1
  N  N69  1  0.77901424  0.76254022  0.08529920  1
  N  N70  1  0.55537176  0.87216013  0.83795764  1
  N  N71  1  0.44309742  0.76179736  0.58916206  1
