# generated using pymatgen
data_Al17BN18
_symmetry_space_group_name_H-M   'P 1'
_cell_length_a   9.31729633
_cell_length_b   9.33452223
_cell_length_c   10.09968237
_cell_angle_alpha   90.04419567
_cell_angle_beta   89.79690909
_cell_angle_gamma   59.98648658
_symmetry_Int_Tables_number   1
_chemical_formula_structural   Al17BN18
_chemical_formula_sum   'Al34 B2 N36'
_cell_volume   760.60047557
_cell_formula_units_Z   2
loop_
 _symmetry_equiv_pos_site_id
 _symmetry_equiv_pos_as_xyz
  1  'x, y, z'
loop_
 _atom_site_type_symbol
 _atom_site_label
 _atom_site_symmetry_multiplicity
 _atom_site_fract_x
 _atom_site_fract_y
 _atom_site_fract_z
 _atom_site_occupancy
  Al  Al0  1  0.11282245  0.09366755  0.40513850  1
  Al  Al1  1  0.21350332  0.20848653  0.14458601  1
  Al  Al2  1  0.78223184  0.08280781  0.82346748  1
  Al  Al3  1  0.89148975  0.20279403  0.61668101  1
  Al  Al4  1  0.44300602  0.09539651  0.36182066  1
  Al  Al5  1  0.56629482  0.20226794  0.07654541  1
  Al  Al6  1  0.10083372  0.09748401  0.89167906  1
  Al  Al7  1  0.22144817  0.20753233  0.65177790  1
  Al  Al8  1  0.78222981  0.10255397  0.32392272  1
  Al  Al9  1  0.44532016  0.09255634  0.86987380  1
  Al  Al10  1  0.56590457  0.19241945  0.57618355  1
  Al  Al11  1  0.10986317  0.42733089  0.40002766  1
  Al  Al12  1  0.22480627  0.53620848  0.15262158  1
  Al  Al13  1  0.78092663  0.42144654  0.88972507  1
  Al  Al14  1  0.89111332  0.54631032  0.65067403  1
  Al  Al15  1  0.44265436  0.43490808  0.39859772  1
  Al  Al16  1  0.55944744  0.53189693  0.14745443  1
  Al  Al17  1  0.10987105  0.43073185  0.90010060  1
  Al  Al18  1  0.21653815  0.54286622  0.64706831  1
  Al  Al19  1  0.77560699  0.43154769  0.40555595  1
  Al  Al20  1  0.89153163  0.52888048  0.15085666  1
  Al  Al21  1  0.44015720  0.43527074  0.89606017  1
  Al  Al22  1  0.55418499  0.54196897  0.65237159  1
  Al  Al23  1  0.10160051  0.76760721  0.39137512  1
  Al  Al24  1  0.21617322  0.87568667  0.15034433  1
  Al  Al25  1  0.77682549  0.75904809  0.90573115  1
  Al  Al26  1  0.44295942  0.76073932  0.40009055  1
  Al  Al27  1  0.55645186  0.86609393  0.15053146  1
  Al  Al28  1  0.11274004  0.76040329  0.90467006  1
  Al  Al29  1  0.21609503  0.87476340  0.65035059  1
  Al  Al30  1  0.78156101  0.76414107  0.39054723  1
  Al  Al31  1  0.89230900  0.87170152  0.11757301  1
  Al  Al32  1  0.44322251  0.76253875  0.90006308  1
  Al  Al33  1  0.56051333  0.87185371  0.64600354  1
  B  B34  1  0.88713226  0.20772373  0.10600597  1
  B  B35  1  0.88810251  0.87103690  0.60599609  1
  N  N36  1  0.21528104  0.20795875  0.33468043  1
  N  N37  1  0.07873323  0.10924872  0.08844324  1
  N  N38  1  0.88803211  0.20786176  0.82134577  1
  N  N39  1  0.79317836  0.05535290  0.63024208  1
  N  N40  1  0.56176064  0.20285510  0.38272463  1
  N  N41  1  0.44575003  0.09202476  0.10876099  1
  N  N42  1  0.21724732  0.20801807  0.84330671  1
  N  N43  1  0.12238797  0.09027858  0.59234254  1
  N  N44  1  0.88527083  0.20430085  0.39863290  1
  N  N45  1  0.79215408  0.11852293  0.13101880  1
  N  N46  1  0.56239001  0.20327136  0.88312453  1
  N  N47  1  0.44335711  0.09433660  0.60949552  1
  N  N48  1  0.22110450  0.53965134  0.34202329  1
  N  N49  1  0.11155319  0.42885773  0.08860707  1
  N  N50  1  0.88892399  0.54056642  0.83943782  1
  N  N51  1  0.77287816  0.44296343  0.59378883  1
  N  N52  1  0.55730565  0.53923853  0.33592475  1
  N  N53  1  0.44186917  0.43194745  0.08795814  1
  N  N54  1  0.21982186  0.54165923  0.83552775  1
  N  N55  1  0.11124498  0.42760789  0.58861382  1
  N  N56  1  0.88855981  0.53762249  0.33963637  1
  N  N57  1  0.79369137  0.39711391  0.08754617  1
  N  N58  1  0.55514815  0.54109761  0.84101279  1
  N  N59  1  0.44369962  0.43229280  0.59037684  1
  N  N60  1  0.22072446  0.87423187  0.33941932  1
  N  N61  1  0.12307332  0.75304015  0.09247122  1
  N  N62  1  0.88545154  0.87774691  0.89822268  1
  N  N63  1  0.79429909  0.77516038  0.58723215  1
  N  N64  1  0.55687802  0.86744015  0.34118184  1
  N  N65  1  0.44228836  0.76092282  0.08928067  1
  N  N66  1  0.22083142  0.87213078  0.83954923  1
  N  N67  1  0.07976444  0.77732620  0.58868973  1
  N  N68  1  0.88812422  0.87115946  0.32167455  1
  N  N69  1  0.77474638  0.74957298  0.09343531  1
  N  N70  1  0.55981485  0.86590511  0.83653356  1
  N  N71  1  0.44204593  0.76161472  0.58925066  1
