# generated using pymatgen
data_Al17BN18
_symmetry_space_group_name_H-M   'P 1'
_cell_length_a   9.32278524
_cell_length_b   9.32956086
_cell_length_c   10.13579895
_cell_angle_alpha   90.06607848
_cell_angle_beta   89.74999655
_cell_angle_gamma   59.95941542
_symmetry_Int_Tables_number   1
_chemical_formula_structural   Al17BN18
_chemical_formula_sum   'Al34 B2 N36'
_cell_volume   763.15083817
_cell_formula_units_Z   2
loop_
 _symmetry_equiv_pos_site_id
 _symmetry_equiv_pos_as_xyz
  1  'x, y, z'
loop_
 _atom_site_type_symbol
 _atom_site_label
 _atom_site_symmetry_multiplicity
 _atom_site_fract_x
 _atom_site_fract_y
 _atom_site_fract_z
 _atom_site_occupancy
  Al  Al0  1  0.11330591  0.09388701  0.39411543  1
  Al  Al1  1  0.20989432  0.20996416  0.13452121  1
  Al  Al2  1  0.78299429  0.08277253  0.81302538  1
  Al  Al3  1  0.89087252  0.20323137  0.60524791  1
  Al  Al4  1  0.44689264  0.09759770  0.31884544  1
  Al  Al5  1  0.56583587  0.20014925  0.06321447  1
  Al  Al6  1  0.10189407  0.09765160  0.88062384  1
  Al  Al7  1  0.21550806  0.21125339  0.64095094  1
  Al  Al8  1  0.78168813  0.10324307  0.31351554  1
  Al  Al9  1  0.45054248  0.09328237  0.81839938  1
  Al  Al10  1  0.56518191  0.19179976  0.56375286  1
  Al  Al11  1  0.11017227  0.42680341  0.38902818  1
  Al  Al12  1  0.22529499  0.53557205  0.14170781  1
  Al  Al13  1  0.78092596  0.42190751  0.87832235  1
  Al  Al14  1  0.89032218  0.54764792  0.64048226  1
  Al  Al15  1  0.44249800  0.43417455  0.38831413  1
  Al  Al16  1  0.55947435  0.53037396  0.13642519  1
  Al  Al17  1  0.11106071  0.42928048  0.88927745  1
  Al  Al18  1  0.21652213  0.54315478  0.63638196  1
  Al  Al19  1  0.77532483  0.43210721  0.39475344  1
  Al  Al20  1  0.89188640  0.52831488  0.13990696  1
  Al  Al21  1  0.44042344  0.43380269  0.88531750  1
  Al  Al22  1  0.55360175  0.54169312  0.64197487  1
  Al  Al23  1  0.10163594  0.76756104  0.38042360  1
  Al  Al24  1  0.21506724  0.87572655  0.13952235  1
  Al  Al25  1  0.77683691  0.75970121  0.89367526  1
  Al  Al26  1  0.44129727  0.76015660  0.38780494  1
  Al  Al27  1  0.55703456  0.86458998  0.13126863  1
  Al  Al28  1  0.11331142  0.75969624  0.89395500  1
  Al  Al29  1  0.21458248  0.87507862  0.64004230  1
  Al  Al30  1  0.78304149  0.76363968  0.37765046  1
  Al  Al31  1  0.89310941  0.87216809  0.10672190  1
  Al  Al32  1  0.44297653  0.76298368  0.88743410  1
  Al  Al33  1  0.56031199  0.87007506  0.61796958  1
  B  B34  1  0.88640162  0.20807612  0.09474871  1
  B  B35  1  0.88839251  0.87156421  0.59471741  1
  N  N36  1  0.21425502  0.20848205  0.32491825  1
  N  N37  1  0.07841062  0.10906709  0.07730244  1
  N  N38  1  0.88857037  0.20793242  0.81015143  1
  N  N39  1  0.79281950  0.05585326  0.61964355  1
  N  N40  1  0.56107039  0.20103753  0.37498940  1
  N  N41  1  0.44910441  0.09526385  0.12431740  1
  N  N42  1  0.21737888  0.20779212  0.83282895  1
  N  N43  1  0.12257453  0.09017441  0.58073832  1
  N  N44  1  0.88500938  0.20437182  0.38874796  1
  N  N45  1  0.79130751  0.11929703  0.12055541  1
  N  N46  1  0.56220085  0.20039318  0.87401536  1
  N  N47  1  0.44528828  0.09886246  0.62456787  1
  N  N48  1  0.22136675  0.53926796  0.33078245  1
  N  N49  1  0.11179728  0.42862528  0.07733986  1
  N  N50  1  0.88995985  0.54019283  0.82849895  1
  N  N51  1  0.77215631  0.44446930  0.58266581  1
  N  N52  1  0.55727140  0.53800843  0.32430514  1
  N  N53  1  0.44209744  0.43067383  0.07643005  1
  N  N54  1  0.22034366  0.54087186  0.82428820  1
  N  N55  1  0.11024153  0.42909046  0.57710326  1
  N  N56  1  0.88906378  0.53694031  0.32786829  1
  N  N57  1  0.79352238  0.39740339  0.07612522  1
  N  N58  1  0.55494738  0.53996371  0.82986011  1
  N  N59  1  0.44346239  0.43205702  0.57932049  1
  N  N60  1  0.21966116  0.87456235  0.32755571  1
  N  N61  1  0.12354144  0.75223844  0.08116386  1
  N  N62  1  0.88634386  0.87783095  0.88782845  1
  N  N63  1  0.79604364  0.77502565  0.57453416  1
  N  N64  1  0.55620244  0.86899286  0.34237669  1
  N  N65  1  0.44097484  0.76044375  0.07794212  1
  N  N66  1  0.22013599  0.87203463  0.82826211  1
  N  N67  1  0.07975590  0.77771623  0.57743461  1
  N  N68  1  0.88891256  0.87145508  0.30981606  1
  N  N69  1  0.77650926  0.74925122  0.08266460  1
  N  N70  1  0.56061880  0.86418719  0.82870714  1
  N  N71  1  0.43870228  0.76061859  0.57688093  1
