# generated using pymatgen
data_Al17BN18
_symmetry_space_group_name_H-M   'P 1'
_cell_length_a   9.30864607
_cell_length_b   9.33417292
_cell_length_c   10.14457148
_cell_angle_alpha   90.02931032
_cell_angle_beta   89.61694775
_cell_angle_gamma   59.95048119
_symmetry_Int_Tables_number   1
_chemical_formula_structural   Al17BN18
_chemical_formula_sum   'Al34 B2 N36'
_cell_volume   762.94943062
_cell_formula_units_Z   2
loop_
 _symmetry_equiv_pos_site_id
 _symmetry_equiv_pos_as_xyz
  1  'x, y, z'
loop_
 _atom_site_type_symbol
 _atom_site_label
 _atom_site_symmetry_multiplicity
 _atom_site_fract_x
 _atom_site_fract_y
 _atom_site_fract_z
 _atom_site_occupancy
  Al  Al0  1  0.11015152  0.09242067  0.38763210  1
  Al  Al1  1  0.21850389  0.20768449  0.06111605  1
  Al  Al2  1  0.77931284  0.08576254  0.81017241  1
  Al  Al3  1  0.88763075  0.20370867  0.59269306  1
  Al  Al4  1  0.44648197  0.09356883  0.30783924  1
  Al  Al5  1  0.56230579  0.20746899  0.05738415  1
  Al  Al6  1  0.09971484  0.09734344  0.86177631  1
  Al  Al7  1  0.22966804  0.20826297  0.56155009  1
  Al  Al8  1  0.77973974  0.10119775  0.31005434  1
  Al  Al9  1  0.44481919  0.09395004  0.81025165  1
  Al  Al10  1  0.56285363  0.19626888  0.55680527  1
  Al  Al11  1  0.11246126  0.42874308  0.30921299  1
  Al  Al12  1  0.22890926  0.52975884  0.06111052  1
  Al  Al13  1  0.77521184  0.43276148  0.80275400  1
  Al  Al14  1  0.89218691  0.54514699  0.55771629  1
  Al  Al15  1  0.44434957  0.42818217  0.30995536  1
  Al  Al16  1  0.55889404  0.53417988  0.06118232  1
  Al  Al17  1  0.11178941  0.42657036  0.80976321  1
  Al  Al18  1  0.22128534  0.53652612  0.56167364  1
  Al  Al19  1  0.78332302  0.42134647  0.31609278  1
  Al  Al20  1  0.89158707  0.52984170  0.05808497  1
  Al  Al21  1  0.44676784  0.42647108  0.80861030  1
  Al  Al22  1  0.55613895  0.54084102  0.55458098  1
  Al  Al23  1  0.09724936  0.77118790  0.37417221  1
  Al  Al24  1  0.20759118  0.88258661  0.13457176  1
  Al  Al25  1  0.78266050  0.76235126  0.81661869  1
  Al  Al26  1  0.44982775  0.75971443  0.31060285  1
  Al  Al27  1  0.55442113  0.86988142  0.05533000  1
  Al  Al28  1  0.11026394  0.76527710  0.88710155  1
  Al  Al29  1  0.20993049  0.87436615  0.62913384  1
  Al  Al30  1  0.77607932  0.75888597  0.30232945  1
  Al  Al31  1  0.88889416  0.87519288  0.09355376  1
  Al  Al32  1  0.44951833  0.75688489  0.80829536  1
  Al  Al33  1  0.56010007  0.87364333  0.56020378  1
  B  B34  1  0.88772298  0.20830027  0.09913586  1
  B  B35  1  0.88631668  0.87110067  0.59820882  1
  N  N36  1  0.22610421  0.20912303  0.36967391  1
  N  N37  1  0.07558182  0.11146180  0.07697778  1
  N  N38  1  0.88581613  0.20597169  0.80691667  1
  N  N39  1  0.79004602  0.05724815  0.61436539  1
  N  N40  1  0.55667677  0.20503769  0.36875240  1
  N  N41  1  0.44709104  0.09315729  0.11802609  1
  N  N42  1  0.22336819  0.20532614  0.87110684  1
  N  N43  1  0.11964881  0.08995822  0.57783229  1
  N  N44  1  0.88001020  0.20944541  0.38553752  1
  N  N45  1  0.78975191  0.11922840  0.11504868  1
  N  N46  1  0.55657509  0.20499423  0.86921294  1
  N  N47  1  0.44750870  0.09393171  0.62216851  1
  N  N48  1  0.22394902  0.53756314  0.37244780  1
  N  N49  1  0.11174603  0.42698770  0.12154165  1
  N  N50  1  0.88923489  0.53697657  0.86957940  1
  N  N51  1  0.77327803  0.44283407  0.61509263  1
  N  N52  1  0.55614334  0.53914607  0.36670309  1
  N  N53  1  0.44672486  0.42553069  0.12197566  1
  N  N54  1  0.22589722  0.53220454  0.86882907  1
  N  N55  1  0.11178419  0.42774571  0.62232008  1
  N  N56  1  0.88978622  0.54055241  0.36926494  1
  N  N57  1  0.79400172  0.39874922  0.11931091  1
  N  N58  1  0.55613137  0.53821899  0.87258530  1
  N  N59  1  0.44899032  0.42509787  0.61865174  1
  N  N60  1  0.21578109  0.87671931  0.32419877  1
  N  N61  1  0.12015037  0.75810100  0.07530861  1
  N  N62  1  0.88016489  0.87729426  0.88416401  1
  N  N63  1  0.79432461  0.77374204  0.61908151  1
  N  N64  1  0.55700886  0.87271521  0.37216767  1
  N  N65  1  0.44631019  0.76013456  0.11959277  1
  N  N66  1  0.21551867  0.87264680  0.81795258  1
  N  N67  1  0.07518564  0.77914712  0.57261129  1
  N  N68  1  0.88790283  0.87416726  0.30752842  1
  N  N69  1  0.77274235  0.75159783  0.11478949  1
  N  N70  1  0.55500213  0.87124328  0.86678129  1
  N  N71  1  0.44810759  0.75926713  0.61692633  1
