# generated using pymatgen
data_Al17BN18
_symmetry_space_group_name_H-M   'P 1'
_cell_length_a   9.29172937
_cell_length_b   9.35562296
_cell_length_c   10.24886910
_cell_angle_alpha   89.90346636
_cell_angle_beta   89.40532535
_cell_angle_gamma   59.83162225
_symmetry_Int_Tables_number   1
_chemical_formula_structural   Al17BN18
_chemical_formula_sum   'Al34 B2 N36'
_cell_volume   770.21054653
_cell_formula_units_Z   2
loop_
 _symmetry_equiv_pos_site_id
 _symmetry_equiv_pos_as_xyz
  1  'x, y, z'
loop_
 _atom_site_type_symbol
 _atom_site_label
 _atom_site_symmetry_multiplicity
 _atom_site_fract_x
 _atom_site_fract_y
 _atom_site_fract_z
 _atom_site_occupancy
  Al  Al0  1  0.11776479  0.09085085  0.39666555  1
  Al  Al1  1  0.21160018  0.20836225  0.13754483  1
  Al  Al2  1  0.78091432  0.08566957  0.81846294  1
  Al  Al3  1  0.89322746  0.19502310  0.60225266  1
  Al  Al4  1  0.45199847  0.09083984  0.31710721  1
  Al  Al5  1  0.56124734  0.20862029  0.06771811  1
  Al  Al6  1  0.09961210  0.10005545  0.88775788  1
  Al  Al7  1  0.21857026  0.20791478  0.64457440  1
  Al  Al8  1  0.78311461  0.10076471  0.31746278  1
  Al  Al9  1  0.44942345  0.09307262  0.82295439  1
  Al  Al10  1  0.56086609  0.19704191  0.56627160  1
  Al  Al11  1  0.11414705  0.42536773  0.39026827  1
  Al  Al12  1  0.21654081  0.54118928  0.14424495  1
  Al  Al13  1  0.77427676  0.42732417  0.81907692  1
  Al  Al14  1  0.89690710  0.54442544  0.63553254  1
  Al  Al15  1  0.45161410  0.42477897  0.32061080  1
  Al  Al16  1  0.56214614  0.53060609  0.06836501  1
  Al  Al17  1  0.10847512  0.42998873  0.89268457  1
  Al  Al18  1  0.21054128  0.54603083  0.63911506  1
  Al  Al19  1  0.78261821  0.42576261  0.38982327  1
  Al  Al20  1  0.89153764  0.52174957  0.14059342  1
  Al  Al21  1  0.44861722  0.42466299  0.81890334  1
  Al  Al22  1  0.54401806  0.54697771  0.57045122  1
  Al  Al23  1  0.10078206  0.76734143  0.38820170  1
  Al  Al24  1  0.20923412  0.87893326  0.14293497  1
  Al  Al25  1  0.77953395  0.77003422  0.82902716  1
  Al  Al26  1  0.45035097  0.75828034  0.31875386  1
  Al  Al27  1  0.55613212  0.86909168  0.06634482  1
  Al  Al28  1  0.11530700  0.75865750  0.89722963  1
  Al  Al29  1  0.20908640  0.87850403  0.64457786  1
  Al  Al30  1  0.77501536  0.76549082  0.31312883  1
  Al  Al31  1  0.88823372  0.87621539  0.09616024  1
  Al  Al32  1  0.44772149  0.76038700  0.82135471  1
  Al  Al33  1  0.55902600  0.87540432  0.56981799  1
  B  B34  1  0.88390295  0.21118350  0.10265052  1
  B  B35  1  0.88546651  0.87313008  0.60592202  1
  N  N36  1  0.21658022  0.20684466  0.32563116  1
  N  N37  1  0.08027110  0.10840142  0.08043445  1
  N  N38  1  0.89084773  0.20295003  0.81088225  1
  N  N39  1  0.79090754  0.05758584  0.62526764  1
  N  N40  1  0.55711180  0.20451847  0.38026098  1
  N  N41  1  0.45339435  0.09035057  0.12730961  1
  N  N42  1  0.21488944  0.20931470  0.83408180  1
  N  N43  1  0.12648084  0.08836506  0.58079359  1
  N  N44  1  0.88546326  0.20150852  0.39781172  1
  N  N45  1  0.79157053  0.11605738  0.12441451  1
  N  N46  1  0.55684744  0.20649555  0.88120742  1
  N  N47  1  0.45164237  0.09206396  0.63389619  1
  N  N48  1  0.21650393  0.54325046  0.33368204  1
  N  N49  1  0.11247560  0.42735067  0.07811032  1
  N  N50  1  0.89112969  0.53957915  0.82493124  1
  N  N51  1  0.77449300  0.43768577  0.60377259  1
  N  N52  1  0.54970382  0.54296761  0.38472685  1
  N  N53  1  0.45057591  0.42419774  0.13228722  1
  N  N54  1  0.21329206  0.54420619  0.82681686  1
  N  N55  1  0.11603379  0.42436898  0.57590182  1
  N  N56  1  0.89182377  0.53350459  0.33303740  1
  N  N57  1  0.79494259  0.39267929  0.10290372  1
  N  N58  1  0.55301675  0.53988997  0.87979094  1
  N  N59  1  0.45127826  0.42174161  0.62976701  1
  N  N60  1  0.21562964  0.87558989  0.33088466  1
  N  N61  1  0.12263385  0.75365062  0.08072055  1
  N  N62  1  0.88165547  0.87891280  0.89509320  1
  N  N63  1  0.79276785  0.77986651  0.62778525  1
  N  N64  1  0.55575141  0.87211111  0.38365146  1
  N  N65  1  0.44998444  0.75644440  0.12949429  1
  N  N66  1  0.21321310  0.87685812  0.83201873  1
  N  N67  1  0.07949148  0.77750054  0.58296144  1
  N  N68  1  0.88902831  0.87529665  0.32455656  1
  N  N69  1  0.77435888  0.75464850  0.12390024  1
  N  N70  1  0.55400780  0.87285969  0.88041818  1
  N  N71  1  0.44836947  0.76178031  0.63281946  1
