# generated using pymatgen
data_Al17BN18
_symmetry_space_group_name_H-M   'P 1'
_cell_length_a   9.27517387
_cell_length_b   9.32976140
_cell_length_c   10.29749612
_cell_angle_alpha   89.75309517
_cell_angle_beta   89.50205717
_cell_angle_gamma   59.94471280
_symmetry_Int_Tables_number   1
_chemical_formula_structural   Al17BN18
_chemical_formula_sum   'Al34 B2 N36'
_cell_volume   771.25189533
_cell_formula_units_Z   2
loop_
 _symmetry_equiv_pos_site_id
 _symmetry_equiv_pos_as_xyz
  1  'x, y, z'
loop_
 _atom_site_type_symbol
 _atom_site_label
 _atom_site_symmetry_multiplicity
 _atom_site_fract_x
 _atom_site_fract_y
 _atom_site_fract_z
 _atom_site_occupancy
  Al  Al0  1  0.11482166  0.09220905  0.39675393  1
  Al  Al1  1  0.21232681  0.20807996  0.13906777  1
  Al  Al2  1  0.78144304  0.08662020  0.81930311  1
  Al  Al3  1  0.89131733  0.20269597  0.61115960  1
  Al  Al4  1  0.45286788  0.09008658  0.31808935  1
  Al  Al5  1  0.55962318  0.20948341  0.06656994  1
  Al  Al6  1  0.10343075  0.09759911  0.88439325  1
  Al  Al7  1  0.21923744  0.20825563  0.64268670  1
  Al  Al8  1  0.78311443  0.10127056  0.31435316  1
  Al  Al9  1  0.45097682  0.09268766  0.82052335  1
  Al  Al10  1  0.56322609  0.19668375  0.56583291  1
  Al  Al11  1  0.11050836  0.42578022  0.39062105  1
  Al  Al12  1  0.21537838  0.54070338  0.14618011  1
  Al  Al13  1  0.78383427  0.41999315  0.88112684  1
  Al  Al14  1  0.89298287  0.53970727  0.64414830  1
  Al  Al15  1  0.45049269  0.42461753  0.32277677  1
  Al  Al16  1  0.54828713  0.53871217  0.07014158  1
  Al  Al17  1  0.11244728  0.42869919  0.89192259  1
  Al  Al18  1  0.20933622  0.54626728  0.63783801  1
  Al  Al19  1  0.78377326  0.42647944  0.39720264  1
  Al  Al20  1  0.89208799  0.52122852  0.13651285  1
  Al  Al21  1  0.45022932  0.42555349  0.81649362  1
  Al  Al22  1  0.54676964  0.54601208  0.56966028  1
  Al  Al23  1  0.09848426  0.76806225  0.38756670  1
  Al  Al24  1  0.20753874  0.87994707  0.14497477  1
  Al  Al25  1  0.78016001  0.76901971  0.83391433  1
  Al  Al26  1  0.44929565  0.75875932  0.32062605  1
  Al  Al27  1  0.55369122  0.87089349  0.06563331  1
  Al  Al28  1  0.11654506  0.75822900  0.89708478  1
  Al  Al29  1  0.20904470  0.87844468  0.64238478  1
  Al  Al30  1  0.77469414  0.76306443  0.30843577  1
  Al  Al31  1  0.88951825  0.87533454  0.09713058  1
  Al  Al32  1  0.44923237  0.75928664  0.81873322  1
  Al  Al33  1  0.56259390  0.87346625  0.56987240  1
  B  B34  1  0.88615570  0.20712495  0.09603046  1
  B  B35  1  0.88642468  0.87238575  0.60931410  1
  N  N36  1  0.21752924  0.20616175  0.32622658  1
  N  N37  1  0.08029010  0.10832620  0.07833017  1
  N  N38  1  0.88902679  0.20869256  0.81287561  1
  N  N39  1  0.79281626  0.05835991  0.62736446  1
  N  N40  1  0.55879659  0.20314876  0.38048486  1
  N  N41  1  0.45352921  0.09048315  0.12837268  1
  N  N42  1  0.21676957  0.20893965  0.83188940  1
  N  N43  1  0.12350968  0.09043058  0.58075564  1
  N  N44  1  0.88639381  0.20213919  0.38688735  1
  N  N45  1  0.79110659  0.11787334  0.12054241  1
  N  N46  1  0.55678245  0.20741850  0.88092946  1
  N  N47  1  0.45287425  0.09145655  0.63245467  1
  N  N48  1  0.21453032  0.54315371  0.33438108  1
  N  N49  1  0.11396577  0.42587592  0.07671520  1
  N  N50  1  0.88985415  0.53738129  0.83141417  1
  N  N51  1  0.77846399  0.43828331  0.58513199  1
  N  N52  1  0.54843946  0.54318625  0.38315335  1
  N  N53  1  0.44962226  0.42294161  0.13523219  1
  N  N54  1  0.21390419  0.54478418  0.82488613  1
  N  N55  1  0.11180063  0.42631162  0.57658882  1
  N  N56  1  0.89138993  0.52992889  0.32397127  1
  N  N57  1  0.79558192  0.39375801  0.07524172  1
  N  N58  1  0.54831640  0.54307536  0.88379455  1
  N  N59  1  0.45162244  0.42190476  0.62895267  1
  N  N60  1  0.21448611  0.87617550  0.33166811  1
  N  N61  1  0.12458123  0.75238087  0.08005738  1
  N  N62  1  0.88280095  0.87963285  0.89624225  1
  N  N63  1  0.79436789  0.77812415  0.63235723  1
  N  N64  1  0.55834577  0.87033347  0.38381294  1
  N  N65  1  0.44731000  0.75974964  0.13196863  1
  N  N66  1  0.21383078  0.87620254  0.82923696  1
  N  N67  1  0.07864109  0.77793544  0.58139774  1
  N  N68  1  0.88928083  0.87415217  0.31622974  1
  N  N69  1  0.77335066  0.75396710  0.11944638  1
  N  N70  1  0.55293041  0.87350457  0.88076276  1
  N  N71  1  0.44900537  0.76151339  0.63175384  1
