# generated using pymatgen
data_Al17BN18
_symmetry_space_group_name_H-M   'P 1'
_cell_length_a   9.32183050
_cell_length_b   9.35677027
_cell_length_c   10.17037987
_cell_angle_alpha   90.00073871
_cell_angle_beta   89.46946677
_cell_angle_gamma   59.90351418
_symmetry_Int_Tables_number   1
_chemical_formula_structural   Al17BN18
_chemical_formula_sum   'Al34 B2 N36'
_cell_volume   767.44453891
_cell_formula_units_Z   2
loop_
 _symmetry_equiv_pos_site_id
 _symmetry_equiv_pos_as_xyz
  1  'x, y, z'
loop_
 _atom_site_type_symbol
 _atom_site_label
 _atom_site_symmetry_multiplicity
 _atom_site_fract_x
 _atom_site_fract_y
 _atom_site_fract_z
 _atom_site_occupancy
  Al  Al0  1  0.11437007  0.09257600  0.39863979  1
  Al  Al1  1  0.21488850  0.20407822  0.13619123  1
  Al  Al2  1  0.78207977  0.08570875  0.82189028  1
  Al  Al3  1  0.88792054  0.20313893  0.60156082  1
  Al  Al4  1  0.45274515  0.08898271  0.31966197  1
  Al  Al5  1  0.56127633  0.20943876  0.06825852  1
  Al  Al6  1  0.09917325  0.10005293  0.88994269  1
  Al  Al7  1  0.22187250  0.19883844  0.64335793  1
  Al  Al8  1  0.78280534  0.09902001  0.32123572  1
  Al  Al9  1  0.45146935  0.09132947  0.82549394  1
  Al  Al10  1  0.56217960  0.19490003  0.56793176  1
  Al  Al11  1  0.10620315  0.43033815  0.32743759  1
  Al  Al12  1  0.22261026  0.54392014  0.13890285  1
  Al  Al13  1  0.77602892  0.43118149  0.81388682  1
  Al  Al14  1  0.89052727  0.54497584  0.56814129  1
  Al  Al15  1  0.45127729  0.42417994  0.32664018  1
  Al  Al16  1  0.55924305  0.53421439  0.07204239  1
  Al  Al17  1  0.10540565  0.43245834  0.82314295  1
  Al  Al18  1  0.21651206  0.54551450  0.62668178  1
  Al  Al19  1  0.78307716  0.42066037  0.32725868  1
  Al  Al20  1  0.89141153  0.53075544  0.06817775  1
  Al  Al21  1  0.45124287  0.42568589  0.81814205  1
  Al  Al22  1  0.55648059  0.54116691  0.56651536  1
  Al  Al23  1  0.09872027  0.76907720  0.38994554  1
  Al  Al24  1  0.20821341  0.88089913  0.14506872  1
  Al  Al25  1  0.78254295  0.76336037  0.82753525  1
  Al  Al26  1  0.44833210  0.75993430  0.32186621  1
  Al  Al27  1  0.55578693  0.86940800  0.06668301  1
  Al  Al28  1  0.11369407  0.76010733  0.89727123  1
  Al  Al29  1  0.20785838  0.87733417  0.64571780  1
  Al  Al30  1  0.77618368  0.75928015  0.31342261  1
  Al  Al31  1  0.88774339  0.87556524  0.10151322  1
  Al  Al32  1  0.44801696  0.75831390  0.82211195  1
  Al  Al33  1  0.55908813  0.87300930  0.57215705  1
  B  B34  1  0.88550638  0.20973475  0.10902754  1
  B  B35  1  0.88548447  0.87168299  0.60974149  1
  N  N36  1  0.22004856  0.19995209  0.32987639  1
  N  N37  1  0.07718063  0.11148390  0.08424630  1
  N  N38  1  0.88908098  0.20473554  0.82128575  1
  N  N39  1  0.79116437  0.05694420  0.62630993  1
  N  N40  1  0.55872011  0.20194986  0.38097493  1
  N  N41  1  0.45453601  0.09042319  0.12738187  1
  N  N42  1  0.21970151  0.20305474  0.84074403  1
  N  N43  1  0.12112260  0.08799542  0.58295121  1
  N  N44  1  0.88142251  0.20875217  0.39599577  1
  N  N45  1  0.79116281  0.11882852  0.12572694  1
  N  N46  1  0.55750084  0.20688137  0.88121657  1
  N  N47  1  0.45234989  0.09003174  0.63428198  1
  N  N48  1  0.22129065  0.54298863  0.34960576  1
  N  N49  1  0.10700732  0.43239772  0.12941920  1
  N  N50  1  0.88588721  0.53923462  0.88115689  1
  N  N51  1  0.77346641  0.44152468  0.62703145  1
  N  N52  1  0.55700275  0.54013091  0.37935372  1
  N  N53  1  0.45202028  0.42419175  0.13539971  1
  N  N54  1  0.21969609  0.54723533  0.82850865  1
  N  N55  1  0.10709487  0.42668683  0.62616229  1
  N  N56  1  0.88529293  0.54217632  0.38133043  1
  N  N57  1  0.79496519  0.39827346  0.13015363  1
  N  N58  1  0.55644633  0.53853630  0.88443079  1
  N  N59  1  0.45574087  0.42061090  0.62622998  1
  N  N60  1  0.21407235  0.87628796  0.33365983  1
  N  N61  1  0.12112562  0.75688340  0.08253124  1
  N  N62  1  0.88066179  0.87719122  0.89620513  1
  N  N63  1  0.79477637  0.77357316  0.63056171  1
  N  N64  1  0.55694134  0.87100864  0.38452210  1
  N  N65  1  0.44671217  0.76019665  0.13079594  1
  N  N66  1  0.21385052  0.87710681  0.83424939  1
  N  N67  1  0.07630573  0.77925851  0.58416673  1
  N  N68  1  0.88942765  0.87285402  0.31980725  1
  N  N69  1  0.77318943  0.75150967  0.12659929  1
  N  N70  1  0.55622971  0.87015340  0.87953621  1
  N  N71  1  0.44657295  0.75926430  0.63096443  1
