# generated using pymatgen
data_Al17BN18
_symmetry_space_group_name_H-M   'P 1'
_cell_length_a   9.29034519
_cell_length_b   9.35156672
_cell_length_c   10.25372072
_cell_angle_alpha   89.87648029
_cell_angle_beta   89.41499874
_cell_angle_gamma   59.85028437
_symmetry_Int_Tables_number   1
_chemical_formula_structural   Al17BN18
_chemical_formula_sum   'Al34 B2 N36'
_cell_volume   770.27529649
_cell_formula_units_Z   2
loop_
 _symmetry_equiv_pos_site_id
 _symmetry_equiv_pos_as_xyz
  1  'x, y, z'
loop_
 _atom_site_type_symbol
 _atom_site_label
 _atom_site_symmetry_multiplicity
 _atom_site_fract_x
 _atom_site_fract_y
 _atom_site_fract_z
 _atom_site_occupancy
  Al  Al0  1  0.11737315  0.09102012  0.39659294  1
  Al  Al1  1  0.21181833  0.20826666  0.13769412  1
  Al  Al2  1  0.78086572  0.08566200  0.81822199  1
  Al  Al3  1  0.89289684  0.19626464  0.60328247  1
  Al  Al4  1  0.45226293  0.09066896  0.31715567  1
  Al  Al5  1  0.56115472  0.20874437  0.06763736  1
  Al  Al6  1  0.10054172  0.09936551  0.88722370  1
  Al  Al7  1  0.21864845  0.20798184  0.64425832  1
  Al  Al8  1  0.78333690  0.10108193  0.31714089  1
  Al  Al9  1  0.44958080  0.09309129  0.82271620  1
  Al  Al10  1  0.56108159  0.19701027  0.56607899  1
  Al  Al11  1  0.11360298  0.42538045  0.39012959  1
  Al  Al12  1  0.21636654  0.54112581  0.14461633  1
  Al  Al13  1  0.77673446  0.42563716  0.83474905  1
  Al  Al14  1  0.89599722  0.54322233  0.63697168  1
  Al  Al15  1  0.45168207  0.42489607  0.32100806  1
  Al  Al16  1  0.55979250  0.53197412  0.06851238  1
  Al  Al17  1  0.10926229  0.42982326  0.89285197  1
  Al  Al18  1  0.21010203  0.54609980  0.63883842  1
  Al  Al19  1  0.78314365  0.42663732  0.39630786  1
  Al  Al20  1  0.89128475  0.52127794  0.14006319  1
  Al  Al21  1  0.44845669  0.42471907  0.81836279  1
  Al  Al22  1  0.54394822  0.54705882  0.57089596  1
  Al  Al23  1  0.10055145  0.76746260  0.38804964  1
  Al  Al24  1  0.20910140  0.87899726  0.14318184  1
  Al  Al25  1  0.77944764  0.77033633  0.82905933  1
  Al  Al26  1  0.45044422  0.75803809  0.31902376  1
  Al  Al27  1  0.55609715  0.86919013  0.06628349  1
  Al  Al28  1  0.11526173  0.75866367  0.89727351  1
  Al  Al29  1  0.20893168  0.87853713  0.64421846  1
  Al  Al30  1  0.77518298  0.76482290  0.31261914  1
  Al  Al31  1  0.88835500  0.87608027  0.09657552  1
  Al  Al32  1  0.44761306  0.76067156  0.82082932  1
  Al  Al33  1  0.55935273  0.87518549  0.56975641  1
  B  B34  1  0.88423974  0.21073962  0.10037884  1
  B  B35  1  0.88556688  0.87295531  0.60623024  1
  N  N36  1  0.21691970  0.20660679  0.32562191  1
  N  N37  1  0.08040947  0.10826650  0.07990772  1
  N  N38  1  0.89101291  0.20328031  0.81030011  1
  N  N39  1  0.79106698  0.05762350  0.62542678  1
  N  N40  1  0.55738964  0.20434138  0.38018294  1
  N  N41  1  0.45353507  0.09031337  0.12729665  1
  N  N42  1  0.21507346  0.20936784  0.83385759  1
  N  N43  1  0.12620673  0.08858146  0.58080912  1
  N  N44  1  0.88575740  0.20155545  0.39645143  1
  N  N45  1  0.79162164  0.11658557  0.12380697  1
  N  N46  1  0.55691648  0.20669092  0.88116313  1
  N  N47  1  0.45179051  0.09199404  0.63379697  1
  N  N48  1  0.21630510  0.54321456  0.33380810  1
  N  N49  1  0.11261903  0.42719089  0.07807270  1
  N  N50  1  0.89112845  0.53950400  0.82574055  1
  N  N51  1  0.77543192  0.43794028  0.59795311  1
  N  N52  1  0.54952510  0.54301474  0.38467907  1
  N  N53  1  0.45047411  0.42407462  0.13267969  1
  N  N54  1  0.21314876  0.54438564  0.82657320  1
  N  N55  1  0.11524527  0.42467667  0.57597959  1
  N  N56  1  0.89160246  0.53239838  0.33142880  1
  N  N57  1  0.79547200  0.39298880  0.09329381  1
  N  N58  1  0.55109041  0.54097487  0.88012237  1
  N  N59  1  0.45103114  0.42171715  0.62972323  1
  N  N60  1  0.21562226  0.87561202  0.33088690  1
  N  N61  1  0.12279633  0.75351973  0.08066409  1
  N  N62  1  0.88166480  0.87909164  0.89519036  1
  N  N63  1  0.79300628  0.77943185  0.62838052  1
  N  N64  1  0.55615808  0.87182041  0.38365233  1
  N  N65  1  0.44970637  0.75684117  0.12968821  1
  N  N66  1  0.21315990  0.87673769  0.83166436  1
  N  N67  1  0.07931147  0.77757351  0.58275415  1
  N  N68  1  0.88897401  0.87522533  0.32356608  1
  N  N69  1  0.77434277  0.75439880  0.12345841  1
  N  N70  1  0.55395424  0.87288246  0.88041186  1
  N  N71  1  0.44818819  0.76201792  0.63278714  1
