# generated using pymatgen
data_Al17BN18
_symmetry_space_group_name_H-M   'P 1'
_cell_length_a   9.34170793
_cell_length_b   9.33890085
_cell_length_c   10.20770615
_cell_angle_alpha   90.02715469
_cell_angle_beta   89.73962195
_cell_angle_gamma   59.87216171
_symmetry_Int_Tables_number   1
_chemical_formula_structural   Al17BN18
_chemical_formula_sum   'Al34 B2 N36'
_cell_volume   770.21728252
_cell_formula_units_Z   2
loop_
 _symmetry_equiv_pos_site_id
 _symmetry_equiv_pos_as_xyz
  1  'x, y, z'
loop_
 _atom_site_type_symbol
 _atom_site_label
 _atom_site_symmetry_multiplicity
 _atom_site_fract_x
 _atom_site_fract_y
 _atom_site_fract_z
 _atom_site_occupancy
  Al  Al0  1  0.11420408  0.09413186  0.39587805  1
  Al  Al1  1  0.20996492  0.20993128  0.13642823  1
  Al  Al2  1  0.78284371  0.08284207  0.81327109  1
  Al  Al3  1  0.89152244  0.20231927  0.60640985  1
  Al  Al4  1  0.45158936  0.09132280  0.31476459  1
  Al  Al5  1  0.56159656  0.20851241  0.06353242  1
  Al  Al6  1  0.10071230  0.09895301  0.88217465  1
  Al  Al7  1  0.21742299  0.20976033  0.64321966  1
  Al  Al8  1  0.78287271  0.10249158  0.31526241  1
  Al  Al9  1  0.45209496  0.08989181  0.81956243  1
  Al  Al10  1  0.56164923  0.19709943  0.56465594  1
  Al  Al11  1  0.11180479  0.42495216  0.39096009  1
  Al  Al12  1  0.21635658  0.53971114  0.14207018  1
  Al  Al13  1  0.78176169  0.42115777  0.88056879  1
  Al  Al14  1  0.89000717  0.54907105  0.64105709  1
  Al  Al15  1  0.44851091  0.42057808  0.32234789  1
  Al  Al16  1  0.56360356  0.53290252  0.13447750  1
  Al  Al17  1  0.11095239  0.42877122  0.89023211  1
  Al  Al18  1  0.21090247  0.54665244  0.63495626  1
  Al  Al19  1  0.77780033  0.43038766  0.39708690  1
  Al  Al20  1  0.89068423  0.52927179  0.14203837  1
  Al  Al21  1  0.44655676  0.42016224  0.81805453  1
  Al  Al22  1  0.55914098  0.54373782  0.64003210  1
  Al  Al23  1  0.10187111  0.76758223  0.38378884  1
  Al  Al24  1  0.21166312  0.87737290  0.14023278  1
  Al  Al25  1  0.78450472  0.75583565  0.89613658  1
  Al  Al26  1  0.44242239  0.75964787  0.36623781  1
  Al  Al27  1  0.54970373  0.87613714  0.07127084  1
  Al  Al28  1  0.11285267  0.75927157  0.89574072  1
  Al  Al29  1  0.21421933  0.87583696  0.64085102  1
  Al  Al30  1  0.78726847  0.76107754  0.37621857  1
  Al  Al31  1  0.89091498  0.87346218  0.11020039  1
  Al  Al32  1  0.43897262  0.76133517  0.87556599  1
  Al  Al33  1  0.55305248  0.87903024  0.56844852  1
  B  B34  1  0.88630866  0.20761713  0.09566873  1
  B  B35  1  0.88678883  0.87258843  0.59608767  1
  N  N36  1  0.21690004  0.20662769  0.32522078  1
  N  N37  1  0.07806872  0.10961406  0.07783106  1
  N  N38  1  0.88801284  0.20817889  0.81108338  1
  N  N39  1  0.79161533  0.05729598  0.62076543  1
  N  N40  1  0.56001570  0.20091405  0.37842610  1
  N  N41  1  0.45067273  0.09467313  0.12662152  1
  N  N42  1  0.21734713  0.20765394  0.83334492  1
  N  N43  1  0.12316169  0.09084001  0.58132930  1
  N  N44  1  0.88633063  0.20295233  0.38972055  1
  N  N45  1  0.79112962  0.11942104  0.12179931  1
  N  N46  1  0.56004685  0.20290760  0.87791935  1
  N  N47  1  0.45007934  0.09379108  0.63137365  1
  N  N48  1  0.21610977  0.54207493  0.33398087  1
  N  N49  1  0.11015829  0.42810700  0.07724969  1
  N  N50  1  0.88892332  0.54036701  0.82832953  1
  N  N51  1  0.77613910  0.44246441  0.58282927  1
  N  N52  1  0.56440376  0.53631472  0.32595154  1
  N  N53  1  0.44599529  0.42099080  0.12811121  1
  N  N54  1  0.21431777  0.54356106  0.82530631  1
  N  N55  1  0.11099118  0.42737748  0.57767064  1
  N  N56  1  0.89053782  0.53519334  0.32876314  1
  N  N57  1  0.79442343  0.39712139  0.07587614  1
  N  N58  1  0.55829464  0.53887521  0.83323283  1
  N  N59  1  0.44968366  0.42069604  0.62392377  1
  N  N60  1  0.21649753  0.87618580  0.32772252  1
  N  N61  1  0.12097793  0.75372778  0.08111897  1
  N  N62  1  0.88620757  0.87846272  0.88674346  1
  N  N63  1  0.79771160  0.77482169  0.57608660  1
  N  N64  1  0.55495100  0.87558231  0.37762597  1
  N  N65  1  0.43800330  0.76094957  0.09134020  1
  N  N66  1  0.21567576  0.87423057  0.82902558  1
  N  N67  1  0.07914439  0.77941274  0.57805327  1
  N  N68  1  0.88960886  0.87164741  0.31099902  1
  N  N69  1  0.77865234  0.74896160  0.08658858  1
  N  N70  1  0.55312113  0.87533300  0.87917917  1
  N  N71  1  0.43873035  0.76239526  0.58993609  1
