# generated using pymatgen
data_Al17BN18
_symmetry_space_group_name_H-M   'P 1'
_cell_length_a   9.31693125
_cell_length_b   9.31774995
_cell_length_c   9.98161269
_cell_angle_alpha   89.96659917
_cell_angle_beta   89.96865476
_cell_angle_gamma   60.01349351
_symmetry_Int_Tables_number   1
_chemical_formula_structural   Al17BN18
_chemical_formula_sum   'Al34 B2 N36'
_cell_volume   750.54066966
_cell_formula_units_Z   2
loop_
 _symmetry_equiv_pos_site_id
 _symmetry_equiv_pos_as_xyz
  1  'x, y, z'
loop_
 _atom_site_type_symbol
 _atom_site_label
 _atom_site_symmetry_multiplicity
 _atom_site_fract_x
 _atom_site_fract_y
 _atom_site_fract_z
 _atom_site_occupancy
  Al  Al0  1  0.10461994  0.09799419  0.30780678  1
  Al  Al1  1  0.21801299  0.20732811  0.06225604  1
  Al  Al2  1  0.78149199  0.09149707  0.82361177  1
  Al  Al3  1  0.89067769  0.19867338  0.56282021  1
  Al  Al4  1  0.44593906  0.09364547  0.31133106  1
  Al  Al5  1  0.55952978  0.20766979  0.06029649  1
  Al  Al6  1  0.10777052  0.09842298  0.82148157  1
  Al  Al7  1  0.22099835  0.20530077  0.55994594  1
  Al  Al8  1  0.78060789  0.09712632  0.30583815  1
  Al  Al9  1  0.44404200  0.09514786  0.81082515  1
  Al  Al10  1  0.56118650  0.19842865  0.56109043  1
  Al  Al11  1  0.10994628  0.42963699  0.31185008  1
  Al  Al12  1  0.22441223  0.53553682  0.06032926  1
  Al  Al13  1  0.77883159  0.42506381  0.81587914  1
  Al  Al14  1  0.89005742  0.54197529  0.56155343  1
  Al  Al15  1  0.44383215  0.42825660  0.31257842  1
  Al  Al16  1  0.56013804  0.53223024  0.06146474  1
  Al  Al17  1  0.11176589  0.42656755  0.80970730  1
  Al  Al18  1  0.21468526  0.54441979  0.56131886  1
  Al  Al19  1  0.78077117  0.42268970  0.30782098  1
  Al  Al20  1  0.89065187  0.53225692  0.05953283  1
  Al  Al21  1  0.44495720  0.42759106  0.80929449  1
  Al  Al22  1  0.55720324  0.53772756  0.55925123  1
  Al  Al23  1  0.10883712  0.76289427  0.30839548  1
  Al  Al24  1  0.21865084  0.87577174  0.06975872  1
  Al  Al25  1  0.78033649  0.76297519  0.81671396  1
  Al  Al26  1  0.44496124  0.76173854  0.31150253  1
  Al  Al27  1  0.55643995  0.87118499  0.05901967  1
  Al  Al28  1  0.10552469  0.76197523  0.82436844  1
  Al  Al29  1  0.21441544  0.87567038  0.58171557  1
  Al  Al30  1  0.77795271  0.76172473  0.30889057  1
  Al  Al31  1  0.88861496  0.87591077  0.07593699  1
  Al  Al32  1  0.44721400  0.75877998  0.81333517  1
  Al  Al33  1  0.55988187  0.87488723  0.56115604  1
  B  B34  1  0.88580201  0.20801251  0.05775643  1
  B  B35  1  0.88847088  0.87268842  0.60335500  1
  N  N36  1  0.22117713  0.20533393  0.36854049  1
  N  N37  1  0.08515713  0.10905280  0.11251528  1
  N  N38  1  0.88780214  0.20703556  0.89103813  1
  N  N39  1  0.79327516  0.06524972  0.62500517  1
  N  N40  1  0.55803961  0.20492331  0.37040326  1
  N  N41  1  0.44592382  0.09394349  0.11965803  1
  N  N42  1  0.22335472  0.20658632  0.87234900  1
  N  N43  1  0.10754090  0.09968421  0.62868601  1
  N  N44  1  0.88769729  0.20624252  0.37554197  1
  N  N45  1  0.78814293  0.11317059  0.11151054  1
  N  N46  1  0.55561115  0.20607765  0.86901303  1
  N  N47  1  0.44309457  0.09547761  0.62028715  1
  N  N48  1  0.22089606  0.54122604  0.37193964  1
  N  N49  1  0.11114341  0.42797653  0.12135933  1
  N  N50  1  0.88963579  0.53840053  0.86826220  1
  N  N51  1  0.77867825  0.42514201  0.62378371  1
  N  N52  1  0.55803770  0.53799027  0.36832790  1
  N  N53  1  0.44436896  0.42702849  0.12176232  1
  N  N54  1  0.22347982  0.53624788  0.86903648  1
  N  N55  1  0.11105966  0.42723407  0.61972014  1
  N  N56  1  0.88670919  0.53904879  0.37078751  1
  N  N57  1  0.79087063  0.40267597  0.11325503  1
  N  N58  1  0.55610149  0.53711255  0.87130088  1
  N  N59  1  0.44380693  0.42786224  0.61838488  1
  N  N60  1  0.22086335  0.87464569  0.36188142  1
  N  N61  1  0.11609889  0.75575742  0.11549223  1
  N  N62  1  0.88656120  0.87277093  0.88327961  1
  N  N63  1  0.79244342  0.77616457  0.62036622  1
  N  N64  1  0.55680220  0.87169243  0.37197476  1
  N  N65  1  0.44725477  0.75907086  0.11871474  1
  N  N66  1  0.22268429  0.87164976  0.86516785  1
  N  N67  1  0.07975531  0.77522502  0.62448201  1
  N  N68  1  0.88624926  0.87557009  0.34201856  1
  N  N69  1  0.77599529  0.75544564  0.11735317  1
  N  N70  1  0.55632782  0.87244691  0.86810118  1
  N  N71  1  0.44683646  0.76008257  0.62119865  1
