# generated using pymatgen
data_Al17BN18
_symmetry_space_group_name_H-M   'P 1'
_cell_length_a   9.30292359
_cell_length_b   9.32678760
_cell_length_c   10.17024980
_cell_angle_alpha   90.00000107
_cell_angle_beta   89.49347122
_cell_angle_gamma   59.91510235
_symmetry_Int_Tables_number   1
_chemical_formula_structural   Al17BN18
_chemical_formula_sum   'Al34 B2 N36'
_cell_volume   763.51743048
_cell_formula_units_Z   2
loop_
 _symmetry_equiv_pos_site_id
 _symmetry_equiv_pos_as_xyz
  1  'x, y, z'
loop_
 _atom_site_type_symbol
 _atom_site_label
 _atom_site_symmetry_multiplicity
 _atom_site_fract_x
 _atom_site_fract_y
 _atom_site_fract_z
 _atom_site_occupancy
  Al  Al0  1  0.11017049  0.09256935  0.39675292  1
  Al  Al1  1  0.22095132  0.20842033  0.07237178  1
  Al  Al2  1  0.77966172  0.08541708  0.81984139  1
  Al  Al3  1  0.88910976  0.20308686  0.60371398  1
  Al  Al4  1  0.44700794  0.09382882  0.31837145  1
  Al  Al5  1  0.56271070  0.20725838  0.06695417  1
  Al  Al6  1  0.09704410  0.09689274  0.88516519  1
  Al  Al7  1  0.22942353  0.20807951  0.57081342  1
  Al  Al8  1  0.77966229  0.10158604  0.31984167  1
  Al  Al9  1  0.44403656  0.09369909  0.82037960  1
  Al  Al10  1  0.56271075  0.19669822  0.56695396  1
  Al  Al11  1  0.11227912  0.42995153  0.31988359  1
  Al  Al12  1  0.22942307  0.52916535  0.07081394  1
  Al  Al13  1  0.77586259  0.43164412  0.81283053  1
  Al  Al14  1  0.89208402  0.54500498  0.56795074  1
  Al  Al15  1  0.44403695  0.42893061  0.32037958  1
  Al  Al16  1  0.55919602  0.53368986  0.07074560  1
  Al  Al17  1  0.11227957  0.42443606  0.81988364  1
  Al  Al18  1  0.22095132  0.53729611  0.57237207  1
  Al  Al19  1  0.78285683  0.42203862  0.32619550  1
  Al  Al20  1  0.89208415  0.52957802  0.06795042  1
  Al  Al21  1  0.44700862  0.42582931  0.81837168  1
  Al  Al22  1  0.55543517  0.54170838  0.56515776  1
  Al  Al23  1  0.09704421  0.77272849  0.38516468  1
  Al  Al24  1  0.20832627  0.88099453  0.14324383  1
  Al  Al25  1  0.78285684  0.76177112  0.82619536  1
  Al  Al26  1  0.44917970  0.76054160  0.31979718  1
  Al  Al27  1  0.55543454  0.86952307  0.06515762  1
  Al  Al28  1  0.11017130  0.76392606  0.89675273  1
  Al  Al29  1  0.20832666  0.87734657  0.64324365  1
  Al  Al30  1  0.77586135  0.75915917  0.31283019  1
  Al  Al31  1  0.88910875  0.87447065  0.10371353  1
  Al  Al32  1  0.44918078  0.75694447  0.81979675  1
  Al  Al33  1  0.55919587  0.87378128  0.57074545  1
  B  B34  1  0.88626045  0.20882481  0.10876685  1
  B  B35  1  0.88626046  0.87158186  0.60876653  1
  N  N36  1  0.22611206  0.20981835  0.37891424  1
  N  N37  1  0.07537135  0.11102224  0.08391085  1
  N  N38  1  0.88799682  0.20436950  0.81757984  1
  N  N39  1  0.78986106  0.05798805  0.62462266  1
  N  N40  1  0.55667543  0.20559349  0.37923389  1
  N  N41  1  0.44872661  0.09254678  0.12895663  1
  N  N42  1  0.22351605  0.20436796  0.88347006  1
  N  N43  1  0.12008923  0.08914781  0.58438247  1
  N  N44  1  0.88003718  0.20984318  0.39389491  1
  N  N45  1  0.78986093  0.11881781  0.12462294  1
  N  N46  1  0.55667541  0.20439734  0.87923411  1
  N  N47  1  0.44694504  0.09438960  0.63246089  1
  N  N48  1  0.22351660  0.53878194  0.38347025  1
  N  N49  1  0.11174539  0.42745104  0.13261494  1
  N  N50  1  0.88938198  0.53633330  0.87986016  1
  N  N51  1  0.77316206  0.44238785  0.62552409  1
  N  N52  1  0.55540185  0.54036079  0.37725612  1
  N  N53  1  0.44694488  0.42533266  0.13246095  1
  N  N54  1  0.22611280  0.53073582  0.87891467  1
  N  N55  1  0.11174555  0.42747123  0.63261498  1
  N  N56  1  0.88938171  0.54095122  0.37986044  1
  N  N57  1  0.79410100  0.39857131  0.12916840  1
  N  N58  1  0.55635707  0.53736944  0.88280255  1
  N  N59  1  0.44872673  0.42539347  0.62895687  1
  N  N60  1  0.21479748  0.87780310  0.33126132  1
  N  N61  1  0.12008849  0.75743115  0.08438244  1
  N  N62  1  0.88003769  0.87678543  0.89389494  1
  N  N63  1  0.79410088  0.77399480  0.62916833  1
  N  N64  1  0.55635617  0.87294028  0.38280244  1
  N  N65  1  0.44709057  0.75968613  0.12898016  1
  N  N66  1  0.21479830  0.87406533  0.83126113  1
  N  N67  1  0.07537140  0.78027384  0.58391065  1
  N  N68  1  0.88799661  0.87429873  0.31757975  1
  N  N69  1  0.77316138  0.75111680  0.12552375  1
  N  N70  1  0.55540194  0.87090391  0.87725598  1
  N  N71  1  0.44709111  0.75988965  0.62897989  1
