# generated using pymatgen
data_Al17BN18
_symmetry_space_group_name_H-M   'P 1'
_cell_length_a   9.28443674
_cell_length_b   9.34059772
_cell_length_c   10.27069990
_cell_angle_alpha   89.82888124
_cell_angle_beta   89.43793998
_cell_angle_gamma   59.88597905
_symmetry_Int_Tables_number   1
_chemical_formula_structural   Al17BN18
_chemical_formula_sum   'Al34 B2 N36'
_cell_volume   770.43993694
_cell_formula_units_Z   2
loop_
 _symmetry_equiv_pos_site_id
 _symmetry_equiv_pos_as_xyz
  1  'x, y, z'
loop_
 _atom_site_type_symbol
 _atom_site_label
 _atom_site_symmetry_multiplicity
 _atom_site_fract_x
 _atom_site_fract_y
 _atom_site_fract_z
 _atom_site_occupancy
  Al  Al0  1  0.11650475  0.09136468  0.39670141  1
  Al  Al1  1  0.21231582  0.20824997  0.13807210  1
  Al  Al2  1  0.78114138  0.08628800  0.81809692  1
  Al  Al3  1  0.89164530  0.20015309  0.60626190  1
  Al  Al4  1  0.45265499  0.09030676  0.31740822  1
  Al  Al5  1  0.56052467  0.20917149  0.06709507  1
  Al  Al6  1  0.10207672  0.09818882  0.88540953  1
  Al  Al7  1  0.21874532  0.20814404  0.64373727  1
  Al  Al8  1  0.78350954  0.10108047  0.31660811  1
  Al  Al9  1  0.45012047  0.09302401  0.82201315  1
  Al  Al10  1  0.56169608  0.19696597  0.56594775  1
  Al  Al11  1  0.11221073  0.42539269  0.39026328  1
  Al  Al12  1  0.21578787  0.54108964  0.14540462  1
  Al  Al13  1  0.78268370  0.42109135  0.86978470  1
  Al  Al14  1  0.89389503  0.54026168  0.64077230  1
  Al  Al15  1  0.45114839  0.42491067  0.32195384  1
  Al  Al16  1  0.55263130  0.53620208  0.06890313  1
  Al  Al17  1  0.11058851  0.42971594  0.89237372  1
  Al  Al18  1  0.20949558  0.54612126  0.63840273  1
  Al  Al19  1  0.78366510  0.42681021  0.39882307  1
  Al  Al20  1  0.89154586  0.52155804  0.13828782  1
  Al  Al21  1  0.44935004  0.42515030  0.81726789  1
  Al  Al22  1  0.54565219  0.54632990  0.57074096  1
  Al  Al23  1  0.09994724  0.76766445  0.38806931  1
  Al  Al24  1  0.20847922  0.87933723  0.14393531  1
  Al  Al25  1  0.77969198  0.77003744  0.82953264  1
  Al  Al26  1  0.45014316  0.75816579  0.31971832  1
  Al  Al27  1  0.55557560  0.86981084  0.06574281  1
  Al  Al28  1  0.11550239  0.75856324  0.89711258  1
  Al  Al29  1  0.20885651  0.87846932  0.64354429  1
  Al  Al30  1  0.77518494  0.76380345  0.31136666  1
  Al  Al31  1  0.88861429  0.87584221  0.09659642  1
  Al  Al32  1  0.44856107  0.75988079  0.81971941  1
  Al  Al33  1  0.56039221  0.87445572  0.56985554  1
  B  B34  1  0.88577545  0.20829524  0.09672237  1
  B  B35  1  0.88589297  0.87261656  0.60719399  1
  N  N36  1  0.21738186  0.20620825  0.32560715  1
  N  N37  1  0.08016049  0.10846113  0.07914823  1
  N  N38  1  0.88994973  0.20628501  0.81118648  1
  N  N39  1  0.79170200  0.05796943  0.62592787  1
  N  N40  1  0.55791672  0.20384474  0.38017383  1
  N  N41  1  0.45372370  0.09037162  0.12748270  1
  N  N42  1  0.21575599  0.20926372  0.83335683  1
  N  N43  1  0.12507725  0.08930025  0.58089469  1
  N  N44  1  0.88640580  0.20152576  0.39233247  1
  N  N45  1  0.79159959  0.11781311  0.12250976  1
  N  N46  1  0.55697437  0.20710544  0.88107716  1
  N  N47  1  0.45210721  0.09181013  0.63343934  1
  N  N48  1  0.21547399  0.54315692  0.33404634  1
  N  N49  1  0.11312156  0.42676040  0.07750005  1
  N  N50  1  0.89021959  0.53850346  0.82844893  1
  N  N51  1  0.77713097  0.43826176  0.58853927  1
  N  N52  1  0.54901423  0.54305804  0.38358067  1
  N  N53  1  0.45011609  0.42363022  0.13388733  1
  N  N54  1  0.21343811  0.54460552  0.82590003  1
  N  N55  1  0.11344701  0.42537578  0.57627148  1
  N  N56  1  0.89151741  0.53051060  0.32714014  1
  N  N57  1  0.79611332  0.39382428  0.07684532  1
  N  N58  1  0.54896835  0.54237841  0.88182018  1
  N  N59  1  0.45099953  0.42186165  0.62927760  1
  N  N60  1  0.21532368  0.87573234  0.33102978  1
  N  N61  1  0.12325474  0.75324570  0.08043607  1
  N  N62  1  0.88176337  0.87951205  0.89548067  1
  N  N63  1  0.79367287  0.77846235  0.62989480  1
  N  N64  1  0.55700116  0.87120825  0.38376468  1
  N  N65  1  0.44870127  0.75839398  0.13051994  1
  N  N66  1  0.21353618  0.87631459  0.83082967  1
  N  N67  1  0.07905936  0.77767176  0.58232094  1
  N  N68  1  0.88897651  0.87478284  0.32144895  1
  N  N69  1  0.77389751  0.75449841  0.12231985  1
  N  N70  1  0.55379157  0.87301853  0.88035548  1
  N  N71  1  0.44823917  0.76189059  0.63233549  1
