# generated using pymatgen
data_Al17BN18
_symmetry_space_group_name_H-M   'P 1'
_cell_length_a   9.33745333
_cell_length_b   9.34044358
_cell_length_c   10.22920243
_cell_angle_alpha   90.02022776
_cell_angle_beta   89.74219149
_cell_angle_gamma   59.90135418
_symmetry_Int_Tables_number   1
_chemical_formula_structural   Al17BN18
_chemical_formula_sum   'Al34 B2 N36'
_cell_volume   771.84380325
_cell_formula_units_Z   2
loop_
 _symmetry_equiv_pos_site_id
 _symmetry_equiv_pos_as_xyz
  1  'x, y, z'
loop_
 _atom_site_type_symbol
 _atom_site_label
 _atom_site_symmetry_multiplicity
 _atom_site_fract_x
 _atom_site_fract_y
 _atom_site_fract_z
 _atom_site_occupancy
  Al  Al0  1  0.11450945  0.09361654  0.39620385  1
  Al  Al1  1  0.21031074  0.21000077  0.13674365  1
  Al  Al2  1  0.78318277  0.08267533  0.81343221  1
  Al  Al3  1  0.89171087  0.20221799  0.60615836  1
  Al  Al4  1  0.45177019  0.09079971  0.31518718  1
  Al  Al5  1  0.56158494  0.20782748  0.06372930  1
  Al  Al6  1  0.10050928  0.09910125  0.88266159  1
  Al  Al7  1  0.21769244  0.20981870  0.64349387  1
  Al  Al8  1  0.78304419  0.10236802  0.31543209  1
  Al  Al9  1  0.45202418  0.09043838  0.82009112  1
  Al  Al10  1  0.56182170  0.19646523  0.56466707  1
  Al  Al11  1  0.11166627  0.42491876  0.39096376  1
  Al  Al12  1  0.21635682  0.53961731  0.14241344  1
  Al  Al13  1  0.78159656  0.42107739  0.88110911  1
  Al  Al14  1  0.89011315  0.54929508  0.64125930  1
  Al  Al15  1  0.44846069  0.42046565  0.32306065  1
  Al  Al16  1  0.56578198  0.52906915  0.13349917  1
  Al  Al17  1  0.11074232  0.42894887  0.89031831  1
  Al  Al18  1  0.21078734  0.54644984  0.63540974  1
  Al  Al19  1  0.77761758  0.43026767  0.39726462  1
  Al  Al20  1  0.89068407  0.52957006  0.14223999  1
  Al  Al21  1  0.44650521  0.42036143  0.81925579  1
  Al  Al22  1  0.56181469  0.53881299  0.63905176  1
  Al  Al23  1  0.10208457  0.76739769  0.38388003  1
  Al  Al24  1  0.20754480  0.88007211  0.14057390  1
  Al  Al25  1  0.78431962  0.75570780  0.89693152  1
  Al  Al26  1  0.44638053  0.76308643  0.32249306  1
  Al  Al27  1  0.54753406  0.87487948  0.06953082  1
  Al  Al28  1  0.11346197  0.75923783  0.89631894  1
  Al  Al29  1  0.20935433  0.87816937  0.64130122  1
  Al  Al30  1  0.78662549  0.76105520  0.37716321  1
  Al  Al31  1  0.89039177  0.87318675  0.11035258  1
  Al  Al32  1  0.44346007  0.76588707  0.82824733  1
  Al  Al33  1  0.55136609  0.87835259  0.56811724  1
  B  B34  1  0.88645992  0.20751362  0.09582893  1
  B  B35  1  0.88644119  0.87252094  0.59612050  1
  N  N36  1  0.21689202  0.20657793  0.32519374  1
  N  N37  1  0.07792874  0.11008108  0.07791282  1
  N  N38  1  0.88796992  0.20845838  0.81103878  1
  N  N39  1  0.79191465  0.05709724  0.62099775  1
  N  N40  1  0.55999147  0.20035887  0.37872585  1
  N  N41  1  0.45124700  0.09370117  0.12691220  1
  N  N42  1  0.21721542  0.20786796  0.83329955  1
  N  N43  1  0.12345166  0.09107282  0.58113724  1
  N  N44  1  0.88637967  0.20279276  0.39025063  1
  N  N45  1  0.79130040  0.11928989  0.12206905  1
  N  N46  1  0.56018443  0.20264874  0.87826410  1
  N  N47  1  0.45054130  0.09342896  0.63192166  1
  N  N48  1  0.21589751  0.54192030  0.33379707  1
  N  N49  1  0.11017595  0.42809260  0.07716284  1
  N  N50  1  0.88845758  0.54070964  0.82825339  1
  N  N51  1  0.77715072  0.44204361  0.58260576  1
  N  N52  1  0.56509286  0.53372067  0.32865084  1
  N  N53  1  0.44589388  0.42047215  0.12812091  1
  N  N54  1  0.21416822  0.54362104  0.82522787  1
  N  N55  1  0.11103893  0.42730140  0.57759754  1
  N  N56  1  0.89017023  0.53541733  0.32874071  1
  N  N57  1  0.79525345  0.39659503  0.07607877  1
  N  N58  1  0.55889448  0.53685835  0.83647044  1
  N  N59  1  0.44954777  0.42035387  0.62398003  1
  N  N60  1  0.21405328  0.87722358  0.32969659  1
  N  N61  1  0.12117463  0.75349851  0.08117338  1
  N  N62  1  0.88605791  0.87827006  0.88689438  1
  N  N63  1  0.79739909  0.77493116  0.57604963  1
  N  N64  1  0.55259561  0.87435201  0.38071281  1
  N  N65  1  0.44149960  0.76395136  0.12384007  1
  N  N66  1  0.21229480  0.87625106  0.83059243  1
  N  N67  1  0.07919044  0.77894397  0.57803192  1
  N  N68  1  0.88897969  0.87140823  0.31109384  1
  N  N69  1  0.77798507  0.74898428  0.08629085  1
  N  N70  1  0.55103603  0.87535248  0.88174705  1
  N  N71  1  0.44300239  0.76623139  0.62553164  1
