# generated using pymatgen
data_Al17BN18
_symmetry_space_group_name_H-M   'P 1'
_cell_length_a   9.30637996
_cell_length_b   9.34520261
_cell_length_c   10.19412605
_cell_angle_alpha   89.99952215
_cell_angle_beta   89.45169777
_cell_angle_gamma   59.85649789
_symmetry_Int_Tables_number   1
_chemical_formula_structural   Al17BN18
_chemical_formula_sum   'Al34 B2 N36'
_cell_volume   766.64400774
_cell_formula_units_Z   2
loop_
 _symmetry_equiv_pos_site_id
 _symmetry_equiv_pos_as_xyz
  1  'x, y, z'
loop_
 _atom_site_type_symbol
 _atom_site_label
 _atom_site_symmetry_multiplicity
 _atom_site_fract_x
 _atom_site_fract_y
 _atom_site_fract_z
 _atom_site_occupancy
  Al  Al0  1  0.11436058  0.09280733  0.39814946  1
  Al  Al1  1  0.21170632  0.20964757  0.13774787  1
  Al  Al2  1  0.78221037  0.08494755  0.82121849  1
  Al  Al3  1  0.88820180  0.20280077  0.60060976  1
  Al  Al4  1  0.45280625  0.08924070  0.31804800  1
  Al  Al5  1  0.56053192  0.20957476  0.06799504  1
  Al  Al6  1  0.09906468  0.09905698  0.88934928  1
  Al  Al7  1  0.21791063  0.20641749  0.64504509  1
  Al  Al8  1  0.78221004  0.09951131  0.32121810  1
  Al  Al9  1  0.45200753  0.09024388  0.82343190  1
  Al  Al10  1  0.56052951  0.19655976  0.56799530  1
  Al  Al11  1  0.11703270  0.42355260  0.38346210  1
  Al  Al12  1  0.21791108  0.54233168  0.14504511  1
  Al  Al13  1  0.77695297  0.43069980  0.81311876  1
  Al  Al14  1  0.88594043  0.54788420  0.56897879  1
  Al  Al15  1  0.45200783  0.42442260  0.32343189  1
  Al  Al16  1  0.55774365  0.53428932  0.07136093  1
  Al  Al17  1  0.11703202  0.42608479  0.88346224  1
  Al  Al18  1  0.21170542  0.54530776  0.63774777  1
  Al  Al19  1  0.78354066  0.42099830  0.32663762  1
  Al  Al20  1  0.88593939  0.53283808  0.06897850  1
  Al  Al21  1  0.45280606  0.42462724  0.81804812  1
  Al  Al22  1  0.55527426  0.54133806  0.56633899  1
  Al  Al23  1  0.09906428  0.76854757  0.38934926  1
  Al  Al24  1  0.20825504  0.88041866  0.14474903  1
  Al  Al25  1  0.78354169  0.76213004  0.82663670  1
  Al  Al26  1  0.44874209  0.75992103  0.32134518  1
  Al  Al27  1  0.55527355  0.87005464  0.06633908  1
  Al  Al28  1  0.11436137  0.75950049  0.89814972  1
  Al  Al29  1  0.20825625  0.87798717  0.64474985  1
  Al  Al30  1  0.77695326  0.75901608  0.31311830  1
  Al  Al31  1  0.88820313  0.87565915  0.10061056  1
  Al  Al32  1  0.44874347  0.75801085  0.82134508  1
  Al  Al33  1  0.55774439  0.87463163  0.57136097  1
  B  B34  1  0.88591811  0.20903288  0.10879362  1
  B  B35  1  0.88591828  0.87171666  0.60879396  1
  N  N36  1  0.21709400  0.20446332  0.32623094  1
  N  N37  1  0.07771598  0.11128335  0.08373528  1
  N  N38  1  0.88887074  0.20411151  0.82114368  1
  N  N39  1  0.79120191  0.05705989  0.62574521  1
  N  N40  1  0.55699455  0.20345357  0.38117718  1
  N  N41  1  0.45395404  0.09057159  0.12754183  1
  N  N42  1  0.21803948  0.20432016  0.83604550  1
  N  N43  1  0.12200005  0.08945094  0.58240726  1
  N  N44  1  0.88117448  0.20902834  0.39577308  1
  N  N45  1  0.79120803  0.11840968  0.12574364  1
  N  N46  1  0.55699346  0.20621310  0.88117752  1
  N  N47  1  0.45128610  0.09111280  0.63413556  1
  N  N48  1  0.21804022  0.54429569  0.33604510  1
  N  N49  1  0.11675134  0.42709179  0.08322745  1
  N  N50  1  0.88357023  0.53986559  0.87937296  1
  N  N51  1  0.77335039  0.44098412  0.62696406  1
  N  N52  1  0.55626613  0.54025083  0.37952582  1
  N  N53  1  0.45128678  0.42427785  0.13413549  1
  N  N54  1  0.21709389  0.54509898  0.82623128  1
  N  N55  1  0.11675355  0.42282968  0.58322726  1
  N  N56  1  0.88357048  0.54321908  0.37937333  1
  N  N57  1  0.79476550  0.39796676  0.13061119  1
  N  N58  1  0.55623879  0.53843622  0.88417221  1
  N  N59  1  0.45395379  0.42215321  0.62754119  1
  N  N60  1  0.21415592  0.87649333  0.33333206  1
  N  N61  1  0.12200167  0.75522218  0.08240722  1
  N  N62  1  0.88117536  0.87645160  0.89577312  1
  N  N63  1  0.79477065  0.77393882  0.63061040  1
  N  N64  1  0.55623808  0.87198578  0.38417249  1
  N  N65  1  0.44722995  0.75990604  0.13076400  1
  N  N66  1  0.21415775  0.87600565  0.83333195  1
  N  N67  1  0.07771596  0.77767102  0.58373557  1
  N  N68  1  0.88887051  0.87367177  0.32114304  1
  N  N69  1  0.77334963  0.75234097  0.12696484  1
  N  N70  1  0.55626762  0.87014335  0.87952542  1
  N  N71  1  0.44723068  0.75954241  0.63076481  1
