# generated using pymatgen
data_Al17BN18
_symmetry_space_group_name_H-M   'P 1'
_cell_length_a   9.32176617
_cell_length_b   9.32239618
_cell_length_c   9.98463208
_cell_angle_alpha   89.96375366
_cell_angle_beta   89.96613503
_cell_angle_gamma   60.01398707
_symmetry_Int_Tables_number   1
_chemical_formula_structural   Al17BN18
_chemical_formula_sum   'Al34 B2 N36'
_cell_volume   751.53557386
_cell_formula_units_Z   2
loop_
 _symmetry_equiv_pos_site_id
 _symmetry_equiv_pos_as_xyz
  1  'x, y, z'
loop_
 _atom_site_type_symbol
 _atom_site_label
 _atom_site_symmetry_multiplicity
 _atom_site_fract_x
 _atom_site_fract_y
 _atom_site_fract_z
 _atom_site_occupancy
  Al  Al0  1  0.10420545  0.09893688  0.30777010  1
  Al  Al1  1  0.21804897  0.20748300  0.06209736  1
  Al  Al2  1  0.78142375  0.09155045  0.82373330  1
  Al  Al3  1  0.89062734  0.19862184  0.56261853  1
  Al  Al4  1  0.44593665  0.09359656  0.31129294  1
  Al  Al5  1  0.55954580  0.20768893  0.06021013  1
  Al  Al6  1  0.10725502  0.09943441  0.82218485  1
  Al  Al7  1  0.22104893  0.20538363  0.55975894  1
  Al  Al8  1  0.78053272  0.09734511  0.30556314  1
  Al  Al9  1  0.44405949  0.09518850  0.81072957  1
  Al  Al10  1  0.56115065  0.19842480  0.56106902  1
  Al  Al11  1  0.10992355  0.42967295  0.31185371  1
  Al  Al12  1  0.22474046  0.53481838  0.06021359  1
  Al  Al13  1  0.77887320  0.42502945  0.81566798  1
  Al  Al14  1  0.89006937  0.54193662  0.56153626  1
  Al  Al15  1  0.44385922  0.42826978  0.31259068  1
  Al  Al16  1  0.56041816  0.53187953  0.06121399  1
  Al  Al17  1  0.11178784  0.42654126  0.80950653  1
  Al  Al18  1  0.21451742  0.54461459  0.56116566  1
  Al  Al19  1  0.78072887  0.42273923  0.30775190  1
  Al  Al20  1  0.89066381  0.53218401  0.05943979  1
  Al  Al21  1  0.44497507  0.42753345  0.80913770  1
  Al  Al22  1  0.55725175  0.53763080  0.55904722  1
  Al  Al23  1  0.10867933  0.76252732  0.30778178  1
  Al  Al24  1  0.21881484  0.87605642  0.07792895  1
  Al  Al25  1  0.78036256  0.76298427  0.81676059  1
  Al  Al26  1  0.44579362  0.76137874  0.31119937  1
  Al  Al27  1  0.55667687  0.87114571  0.05869286  1
  Al  Al28  1  0.10510253  0.76147376  0.82679354  1
  Al  Al29  1  0.21434798  0.87529792  0.59434866  1
  Al  Al30  1  0.77782808  0.76158634  0.30856183  1
  Al  Al31  1  0.88807435  0.87610158  0.07664158  1
  Al  Al32  1  0.44845344  0.75810538  0.81380479  1
  Al  Al33  1  0.55989332  0.87498040  0.56097979  1
  B  B34  1  0.88563131  0.20836398  0.05755153  1
  B  B35  1  0.88841431  0.87254528  0.60428930  1
  N  N36  1  0.22121598  0.20555255  0.36856169  1
  N  N37  1  0.08439004  0.11033746  0.11186519  1
  N  N38  1  0.88750187  0.20727052  0.89094882  1
  N  N39  1  0.79337636  0.06508564  0.62506929  1
  N  N40  1  0.55804607  0.20490498  0.37041662  1
  N  N41  1  0.44592957  0.09384855  0.11958701  1
  N  N42  1  0.22349103  0.20673698  0.87233585  1
  N  N43  1  0.10685827  0.10109137  0.62872768  1
  N  N44  1  0.88749091  0.20639577  0.37550230  1
  N  N45  1  0.78799761  0.11356697  0.11133631  1
  N  N46  1  0.55555202  0.20612097  0.86892580  1
  N  N47  1  0.44305721  0.09547078  0.62023397  1
  N  N48  1  0.22085455  0.54126872  0.37182970  1
  N  N49  1  0.11112076  0.42787997  0.12140669  1
  N  N50  1  0.88969265  0.53834515  0.86811864  1
  N  N51  1  0.77862287  0.42513548  0.62366538  1
  N  N52  1  0.55814950  0.53786874  0.36828806  1
  N  N53  1  0.44446996  0.42695408  0.12178671  1
  N  N54  1  0.22375626  0.53560492  0.86911088  1
  N  N55  1  0.11107754  0.42729115  0.61960123  1
  N  N56  1  0.88669562  0.53905781  0.37077796  1
  N  N57  1  0.79084464  0.40274009  0.11318173  1
  N  N58  1  0.55633127  0.53670915  0.87117647  1
  N  N59  1  0.44368155  0.42799625  0.61827590  1
  N  N60  1  0.22106509  0.87485702  0.35253840  1
  N  N61  1  0.11571037  0.75496144  0.11384825  1
  N  N62  1  0.88587981  0.87311350  0.88365748  1
  N  N63  1  0.79236608  0.77622595  0.62037563  1
  N  N64  1  0.55696591  0.87170262  0.37195762  1
  N  N65  1  0.44883542  0.75812793  0.11785359  1
  N  N66  1  0.22270155  0.87157144  0.85923229  1
  N  N67  1  0.07906211  0.77484834  0.62469714  1
  N  N68  1  0.88604357  0.87560414  0.33974663  1
  N  N69  1  0.77585267  0.75513440  0.11712523  1
  N  N70  1  0.55647565  0.87258630  0.86795046  1
  N  N71  1  0.44782961  0.75962744  0.62108727  1
