# generated using pymatgen
data_Al17BN18
_symmetry_space_group_name_H-M   'P 1'
_cell_length_a   9.31216180
_cell_length_b   9.33708467
_cell_length_c   10.14234447
_cell_angle_alpha   90.06306035
_cell_angle_beta   89.52805397
_cell_angle_gamma   59.93269759
_symmetry_Int_Tables_number   1
_chemical_formula_structural   Al17BN18
_chemical_formula_sum   'Al34 B2 N36'
_cell_volume   763.15580301
_cell_formula_units_Z   2
loop_
 _symmetry_equiv_pos_site_id
 _symmetry_equiv_pos_as_xyz
  1  'x, y, z'
loop_
 _atom_site_type_symbol
 _atom_site_label
 _atom_site_symmetry_multiplicity
 _atom_site_fract_x
 _atom_site_fract_y
 _atom_site_fract_z
 _atom_site_occupancy
  Al  Al0  1  0.11106359  0.09286176  0.39756106  1
  Al  Al1  1  0.22066092  0.20821149  0.08110770  1
  Al  Al2  1  0.78084883  0.08574252  0.82172963  1
  Al  Al3  1  0.88831730  0.20286680  0.60365028  1
  Al  Al4  1  0.44749775  0.09300520  0.31964651  1
  Al  Al5  1  0.56381740  0.20773939  0.06901870  1
  Al  Al6  1  0.09785113  0.09790694  0.88876001  1
  Al  Al7  1  0.22779537  0.20634038  0.58280268  1
  Al  Al8  1  0.77958851  0.10126212  0.32269685  1
  Al  Al9  1  0.44537662  0.09378511  0.82587509  1
  Al  Al10  1  0.56193142  0.19633523  0.56937306  1
  Al  Al11  1  0.11131831  0.43049503  0.32085456  1
  Al  Al12  1  0.22973400  0.53036007  0.07238818  1
  Al  Al13  1  0.77633769  0.43129499  0.81477219  1
  Al  Al14  1  0.89167926  0.54478384  0.57024751  1
  Al  Al15  1  0.44365801  0.42844797  0.32268369  1
  Al  Al16  1  0.55933304  0.53398729  0.07315324  1
  Al  Al17  1  0.11200811  0.42608320  0.82497941  1
  Al  Al18  1  0.22067698  0.53634684  0.57472573  1
  Al  Al19  1  0.78296514  0.42154665  0.32864770  1
  Al  Al20  1  0.89128976  0.53038357  0.06979979  1
  Al  Al21  1  0.44749833  0.42633473  0.82033342  1
  Al  Al22  1  0.55511811  0.54132365  0.56719177  1
  Al  Al23  1  0.09689125  0.77203075  0.38744225  1
  Al  Al24  1  0.20846067  0.88069430  0.14621569  1
  Al  Al25  1  0.78287870  0.76225267  0.82808568  1
  Al  Al26  1  0.44895687  0.76019197  0.32270614  1
  Al  Al27  1  0.55606709  0.86896594  0.06738850  1
  Al  Al28  1  0.10996067  0.76549624  0.89873990  1
  Al  Al29  1  0.20805401  0.87646934  0.64519983  1
  Al  Al30  1  0.77560490  0.75909402  0.31535818  1
  Al  Al31  1  0.88894975  0.87458030  0.10621056  1
  Al  Al32  1  0.44910091  0.75728587  0.82207554  1
  Al  Al33  1  0.55895898  0.87342082  0.57323959  1
  B  B34  1  0.88635014  0.20882615  0.11133730  1
  B  B35  1  0.88595604  0.87126408  0.61063457  1
  N  N36  1  0.22442981  0.20822732  0.37187440  1
  N  N37  1  0.07556428  0.11086403  0.08749920  1
  N  N38  1  0.88922740  0.20433700  0.82006212  1
  N  N39  1  0.78967281  0.05767162  0.62619543  1
  N  N40  1  0.55629732  0.20518007  0.38140038  1
  N  N41  1  0.45157060  0.09179132  0.12973342  1
  N  N42  1  0.22380952  0.20520089  0.88640056  1
  N  N43  1  0.11965616  0.08815852  0.58598526  1
  N  N44  1  0.88024519  0.20938163  0.39655193  1
  N  N45  1  0.79024688  0.11893503  0.12722281  1
  N  N46  1  0.55809839  0.20527201  0.88118694  1
  N  N47  1  0.44754041  0.09341573  0.63656325  1
  N  N48  1  0.22307429  0.53811821  0.38558797  1
  N  N49  1  0.11063616  0.43037397  0.13303095  1
  N  N50  1  0.88847796  0.53742157  0.88173979  1
  N  N51  1  0.77291048  0.44190766  0.62710776  1
  N  N52  1  0.55541676  0.53971332  0.37904371  1
  N  N53  1  0.44696584  0.42570416  0.13436739  1
  N  N54  1  0.22664322  0.53258249  0.88044914  1
  N  N55  1  0.11078504  0.42778816  0.63637478  1
  N  N56  1  0.88904462  0.54093502  0.38193717  1
  N  N57  1  0.79445141  0.39844031  0.13126488  1
  N  N58  1  0.55680181  0.53774028  0.88470926  1
  N  N59  1  0.44847130  0.42500105  0.63067980  1
  N  N60  1  0.21490824  0.87661871  0.33459258  1
  N  N61  1  0.11967576  0.75826182  0.08678331  1
  N  N62  1  0.88005198  0.87728360  0.89582726  1
  N  N63  1  0.79381924  0.77385473  0.63090673  1
  N  N64  1  0.55621308  0.87276337  0.38509589  1
  N  N65  1  0.44692388  0.76007684  0.13132560  1
  N  N66  1  0.21492324  0.87524487  0.83371529  1
  N  N67  1  0.07506785  0.77950700  0.58653752  1
  N  N68  1  0.88767028  0.87420536  0.32021496  1
  N  N69  1  0.77316405  0.75117815  0.12778368  1
  N  N70  1  0.55608622  0.87039273  0.87943748  1
  N  N71  1  0.44664161  0.75956463  0.63074826  1
