# generated using pymatgen
data_Al17BN18
_symmetry_space_group_name_H-M   'P 1'
_cell_length_a   9.32364345
_cell_length_b   9.33416617
_cell_length_c   10.23766909
_cell_angle_alpha   89.99504360
_cell_angle_beta   89.73494383
_cell_angle_gamma   59.92174691
_symmetry_Int_Tables_number   1
_chemical_formula_structural   Al17BN18
_chemical_formula_sum   'Al34 B2 N36'
_cell_volume   770.98125404
_cell_formula_units_Z   2
loop_
 _symmetry_equiv_pos_site_id
 _symmetry_equiv_pos_as_xyz
  1  'x, y, z'
loop_
 _atom_site_type_symbol
 _atom_site_label
 _atom_site_symmetry_multiplicity
 _atom_site_fract_x
 _atom_site_fract_y
 _atom_site_fract_z
 _atom_site_occupancy
  Al  Al0  1  0.11580725  0.09217045  0.39628583  1
  Al  Al1  1  0.20997873  0.21019376  0.13728077  1
  Al  Al2  1  0.78304617  0.08279194  0.81390347  1
  Al  Al3  1  0.89245798  0.20153323  0.60646331  1
  Al  Al4  1  0.45177325  0.09045405  0.31597054  1
  Al  Al5  1  0.56205419  0.20680547  0.06430846  1
  Al  Al6  1  0.10116537  0.09868173  0.88309767  1
  Al  Al7  1  0.21762644  0.21007013  0.64396531  1
  Al  Al8  1  0.78295257  0.10191870  0.31560259  1
  Al  Al9  1  0.45181192  0.09137995  0.82071455  1
  Al  Al10  1  0.56242839  0.19597798  0.56483364  1
  Al  Al11  1  0.11246938  0.42479440  0.39099495  1
  Al  Al12  1  0.21567686  0.53950639  0.14330456  1
  Al  Al13  1  0.78351237  0.42053955  0.87941948  1
  Al  Al14  1  0.89026289  0.54940594  0.64167487  1
  Al  Al15  1  0.45106003  0.42218551  0.32021905  1
  Al  Al16  1  0.55605128  0.53429207  0.08718573  1
  Al  Al17  1  0.11104518  0.42932015  0.89083962  1
  Al  Al18  1  0.21014133  0.54657449  0.63747220  1
  Al  Al19  1  0.78069974  0.42803907  0.39567432  1
  Al  Al20  1  0.88942274  0.52933124  0.14256904  1
  Al  Al21  1  0.44927553  0.42365859  0.82058291  1
  Al  Al22  1  0.55444434  0.54190937  0.59532169  1
  Al  Al23  1  0.10294026  0.76648418  0.38343795  1
  Al  Al24  1  0.20617538  0.88114108  0.14179721  1
  Al  Al25  1  0.78383805  0.75627312  0.89699799  1
  Al  Al26  1  0.44904597  0.75935600  0.31756716  1
  Al  Al27  1  0.54672371  0.87533820  0.06862000  1
  Al  Al28  1  0.11423907  0.75944123  0.89668671  1
  Al  Al29  1  0.20765431  0.87872073  0.64287395  1
  Al  Al30  1  0.78582763  0.76097372  0.37740124  1
  Al  Al31  1  0.89030196  0.87274993  0.11035062  1
  Al  Al32  1  0.44699142  0.76216711  0.82317060  1
  Al  Al33  1  0.55159464  0.87886933  0.56854735  1
  B  B34  1  0.88662799  0.20760610  0.09658674  1
  B  B35  1  0.88664334  0.87217691  0.59620856  1
  N  N36  1  0.21669614  0.20660005  0.32539145  1
  N  N37  1  0.07866319  0.10949149  0.07793658  1
  N  N38  1  0.88821447  0.20837407  0.81047047  1
  N  N39  1  0.79238448  0.05659870  0.62137244  1
  N  N40  1  0.55936656  0.20126543  0.37904674  1
  N  N41  1  0.45123744  0.09339622  0.12746182  1
  N  N42  1  0.21679528  0.20858741  0.83333655  1
  N  N43  1  0.12482548  0.09010581  0.58106580  1
  N  N44  1  0.88726674  0.20129725  0.39088150  1
  N  N45  1  0.79167461  0.11850707  0.12254646  1
  N  N46  1  0.55997441  0.20375850  0.87874539  1
  N  N47  1  0.45066462  0.09366152  0.63247340  1
  N  N48  1  0.21653366  0.54118257  0.33323709  1
  N  N49  1  0.10985224  0.42818252  0.07734046  1
  N  N50  1  0.88842964  0.54147370  0.82797087  1
  N  N51  1  0.78003033  0.44002223  0.58451360  1
  N  N52  1  0.55740052  0.53787900  0.35823024  1
  N  N53  1  0.44710283  0.42072541  0.12968186  1
  N  N54  1  0.21483971  0.54373335  0.82579304  1
  N  N55  1  0.11161944  0.42731130  0.57769647  1
  N  N56  1  0.89032866  0.53542511  0.32867454  1
  N  N57  1  0.79744194  0.39488850  0.07747017  1
  N  N58  1  0.55227089  0.54102491  0.87503709  1
  N  N59  1  0.45125673  0.42061779  0.62847100  1
  N  N60  1  0.21455678  0.87676402  0.32965366  1
  N  N61  1  0.12187770  0.75310667  0.08130537  1
  N  N62  1  0.88635799  0.87835910  0.88739459  1
  N  N63  1  0.79734499  0.77481952  0.57627014  1
  N  N64  1  0.55128739  0.87389252  0.38186012  1
  N  N65  1  0.44268341  0.76340253  0.12786384  1
  N  N66  1  0.21309438  0.87624786  0.83047518  1
  N  N67  1  0.07983778  0.77822597  0.57812327  1
  N  N68  1  0.88884188  0.87075789  0.31124934  1
  N  N69  1  0.77735234  0.74878091  0.08598414  1
  N  N70  1  0.55010428  0.87573759  0.88141710  1
  N  N71  1  0.44576208  0.76409405  0.63219693  1
