# generated using pymatgen
data_Al17BN18
_symmetry_space_group_name_H-M   'P 1'
_cell_length_a   9.29699126
_cell_length_b   9.29769184
_cell_length_c   9.99330353
_cell_angle_alpha   89.97682188
_cell_angle_beta   89.95857388
_cell_angle_gamma   59.98875542
_symmetry_Int_Tables_number   1
_chemical_formula_structural   Al17BN18
_chemical_formula_sum   'Al34 B2 N36'
_cell_volume   748.01093450
_cell_formula_units_Z   2
loop_
 _symmetry_equiv_pos_site_id
 _symmetry_equiv_pos_as_xyz
  1  'x, y, z'
loop_
 _atom_site_type_symbol
 _atom_site_label
 _atom_site_symmetry_multiplicity
 _atom_site_fract_x
 _atom_site_fract_y
 _atom_site_fract_z
 _atom_site_occupancy
  Al  Al0  1  0.10842689  0.09555663  0.39851634  1
  Al  Al1  1  0.21571892  0.20768914  0.14808524  1
  Al  Al2  1  0.78205695  0.09326290  0.88594770  1
  Al  Al3  1  0.89057832  0.20113541  0.63720924  1
  Al  Al4  1  0.44379825  0.09495931  0.39730320  1
  Al  Al5  1  0.56166030  0.20680927  0.14824632  1
  Al  Al6  1  0.10659544  0.09653443  0.89433888  1
  Al  Al7  1  0.22305116  0.20509448  0.64945460  1
  Al  Al8  1  0.78075283  0.09006276  0.40246544  1
  Al  Al9  1  0.44518637  0.09353872  0.89957340  1
  Al  Al10  1  0.55922386  0.19969946  0.64848639  1
  Al  Al11  1  0.11012500  0.42758008  0.39812902  1
  Al  Al12  1  0.22104648  0.54079098  0.14937317  1
  Al  Al13  1  0.78050505  0.42276989  0.89388646  1
  Al  Al14  1  0.89034189  0.54335563  0.64957225  1
  Al  Al15  1  0.44551911  0.42749865  0.39824137  1
  Al  Al16  1  0.55976193  0.53245430  0.14810646  1
  Al  Al17  1  0.11174475  0.42782569  0.89913826  1
  Al  Al18  1  0.21737194  0.54235699  0.64757214  1
  Al  Al19  1  0.77804824  0.42651377  0.39895623  1
  Al  Al20  1  0.89013279  0.53445141  0.14785292  1
  Al  Al21  1  0.44421861  0.42725148  0.89846137  1
  Al  Al22  1  0.55534692  0.53984260  0.64983737  1
  Al  Al23  1  0.10479104  0.76527526  0.40212043  1
  Al  Al24  1  0.21460219  0.87587611  0.14785847  1
  Al  Al25  1  0.77874819  0.76245050  0.89270284  1
  Al  Al26  1  0.44367909  0.76097409  0.39763288  1
  Al  Al27  1  0.55716561  0.87171912  0.14979951  1
  Al  Al28  1  0.10894330  0.76128807  0.89199558  1
  Al  Al29  1  0.21735760  0.87367449  0.64925834  1
  Al  Al30  1  0.78068294  0.76359136  0.40149438  1
  Al  Al31  1  0.89057438  0.87733570  0.14641724  1
  Al  Al32  1  0.44451218  0.76155660  0.89913651  1
  Al  Al33  1  0.55890539  0.87366121  0.64761979  1
  B  B34  1  0.88856655  0.20472708  0.11406124  1
  B  B35  1  0.88750193  0.87265536  0.65091586  1
  N  N36  1  0.22139011  0.20518954  0.33715984  1
  N  N37  1  0.08171097  0.10885695  0.08980915  1
  N  N38  1  0.88966660  0.20566827  0.82806530  1
  N  N39  1  0.78900773  0.06674006  0.59704476  1
  N  N40  1  0.55782500  0.20417476  0.33906112  1
  N  N41  1  0.44459233  0.09494550  0.09036182  1
  N  N42  1  0.22258610  0.20494944  0.84120506  1
  N  N43  1  0.11595924  0.09262365  0.58933409  1
  N  N44  1  0.88656603  0.20494675  0.35582932  1
  N  N45  1  0.79290088  0.10759857  0.08475426  1
  N  N46  1  0.55593893  0.20465965  0.83939612  1
  N  N47  1  0.44378357  0.09504604  0.58784739  1
  N  N48  1  0.22088576  0.54140592  0.34099992  1
  N  N49  1  0.11127046  0.42858889  0.08906059  1
  N  N50  1  0.88942228  0.53811189  0.84037790  1
  N  N51  1  0.77634764  0.43308854  0.59065962  1
  N  N52  1  0.55595346  0.53901504  0.33735411  1
  N  N53  1  0.44339432  0.42792941  0.08881232  1
  N  N54  1  0.22286817  0.53777093  0.83758241  1
  N  N55  1  0.11136277  0.42689974  0.58860044  1
  N  N56  1  0.88691162  0.54114610  0.33856547  1
  N  N57  1  0.79253679  0.39833373  0.08965142  1
  N  N58  1  0.55594237  0.53870894  0.84113554  1
  N  N59  1  0.44523842  0.42702020  0.58952018  1
  N  N60  1  0.22042039  0.87206893  0.33855564  1
  N  N61  1  0.10951609  0.76135017  0.08344089  1
  N  N62  1  0.88936972  0.87106377  0.81822199  1
  N  N63  1  0.79077152  0.77322905  0.59582302  1
  N  N64  1  0.55755116  0.87105234  0.34087007  1
  N  N65  1  0.44395024  0.76139392  0.09021780  1
  N  N66  1  0.22220238  0.87270537  0.84005372  1
  N  N67  1  0.08612453  0.77387009  0.59594799  1
  N  N68  1  0.88796035  0.87315574  0.33388007  1
  N  N69  1  0.77901356  0.76247255  0.08494385  1
  N  N70  1  0.55520569  0.87233135  0.83790169  1
  N  N71  1  0.44334673  0.76170098  0.58913971  1
