# generated using pymatgen
data_Al17BN18
_symmetry_space_group_name_H-M   'P 1'
_cell_length_a   9.31519547
_cell_length_b   9.35596066
_cell_length_c   10.19941007
_cell_angle_alpha   89.99954534
_cell_angle_beta   89.43006620
_cell_angle_gamma   59.84407863
_symmetry_Int_Tables_number   1
_chemical_formula_structural   Al17BN18
_chemical_formula_sum   'Al34 B2 N36'
_cell_volume   768.55124791
_cell_formula_units_Z   2
loop_
 _symmetry_equiv_pos_site_id
 _symmetry_equiv_pos_as_xyz
  1  'x, y, z'
loop_
 _atom_site_type_symbol
 _atom_site_label
 _atom_site_symmetry_multiplicity
 _atom_site_fract_x
 _atom_site_fract_y
 _atom_site_fract_z
 _atom_site_occupancy
  Al  Al0  1  0.11439407  0.09260678  0.39852193  1
  Al  Al1  1  0.21473782  0.20425399  0.13542978  1
  Al  Al2  1  0.78269812  0.08484279  0.82110668  1
  Al  Al3  1  0.88775199  0.20330469  0.60064342  1
  Al  Al4  1  0.45275512  0.08919381  0.31892879  1
  Al  Al5  1  0.56105722  0.20939832  0.06786337  1
  Al  Al6  1  0.09914703  0.09885547  0.89005184  1
  Al  Al7  1  0.22113393  0.20031699  0.64392066  1
  Al  Al8  1  0.78248436  0.09912590  0.32135776  1
  Al  Al9  1  0.45226089  0.09029191  0.82477901  1
  Al  Al10  1  0.56072584  0.19649912  0.56795992  1
  Al  Al11  1  0.10623324  0.42971328  0.32844466  1
  Al  Al12  1  0.22115135  0.54540069  0.14368469  1
  Al  Al13  1  0.77631248  0.43078777  0.81321210  1
  Al  Al14  1  0.89102574  0.54493539  0.56838106  1
  Al  Al15  1  0.45205168  0.42418363  0.32449938  1
  Al  Al16  1  0.55902590  0.53421171  0.07156074  1
  Al  Al17  1  0.10644020  0.43038618  0.82963078  1
  Al  Al18  1  0.21444456  0.54790918  0.63682842  1
  Al  Al19  1  0.78277750  0.42083165  0.32708542  1
  Al  Al20  1  0.89072545  0.53082843  0.06836034  1
  Al  Al21  1  0.45307342  0.42458916  0.81929639  1
  Al  Al22  1  0.55579700  0.54147673  0.56655679  1
  Al  Al23  1  0.09921205  0.76830679  0.39006457  1
  Al  Al24  1  0.20801841  0.88086931  0.14544832  1
  Al  Al25  1  0.78295131  0.76290709  0.82695058  1
  Al  Al26  1  0.44836891  0.76012319  0.32157544  1
  Al  Al27  1  0.55597986  0.86928624  0.06651043  1
  Al  Al28  1  0.11449761  0.75971910  0.89874972  1
  Al  Al29  1  0.20809479  0.87785596  0.64524087  1
  Al  Al30  1  0.77622974  0.75962699  0.31337819  1
  Al  Al31  1  0.88773131  0.87565846  0.10069420  1
  Al  Al32  1  0.44848199  0.75816693  0.82146559  1
  Al  Al33  1  0.55899928  0.87358371  0.57154595  1
  B  B34  1  0.88552578  0.20936588  0.10914527  1
  B  B35  1  0.88552148  0.87173718  0.60897177  1
  N  N36  1  0.21961177  0.20003210  0.32869260  1
  N  N37  1  0.07731252  0.11095326  0.08384030  1
  N  N38  1  0.88917033  0.20430935  0.82110926  1
  N  N39  1  0.79118481  0.05710359  0.62582562  1
  N  N40  1  0.55760029  0.20303243  0.38122345  1
  N  N41  1  0.45486510  0.09014256  0.12736774  1
  N  N42  1  0.22023629  0.20131387  0.84063902  1
  N  N43  1  0.12133210  0.08867506  0.58243820  1
  N  N44  1  0.88110396  0.20897093  0.39587134  1
  N  N45  1  0.79122259  0.11833142  0.12601888  1
  N  N46  1  0.55798896  0.20580819  0.88119267  1
  N  N47  1  0.45222196  0.09037313  0.63438816  1
  N  N48  1  0.21990380  0.54512163  0.33953344  1
  N  N49  1  0.10795365  0.43148071  0.12475689  1
  N  N50  1  0.88487002  0.53927490  0.88151618  1
  N  N51  1  0.77341586  0.44152622  0.62683524  1
  N  N52  1  0.55637044  0.54041297  0.37969514  1
  N  N53  1  0.45230911  0.42411492  0.13409310  1
  N  N54  1  0.21986099  0.54672965  0.82958735  1
  N  N55  1  0.10784252  0.42739546  0.62577223  1
  N  N56  1  0.88503552  0.54232878  0.38143169  1
  N  N57  1  0.79477045  0.39809366  0.13054097  1
  N  N58  1  0.55678116  0.53863458  0.88440396  1
  N  N59  1  0.45458202  0.42194400  0.62772719  1
  N  N60  1  0.21390155  0.87637406  0.33362537  1
  N  N61  1  0.12123217  0.75699605  0.08255216  1
  N  N62  1  0.88124786  0.87643831  0.89580910  1
  N  N63  1  0.79479522  0.77378690  0.63039908  1
  N  N64  1  0.55658715  0.87146386  0.38437653  1
  N  N65  1  0.44698205  0.76010107  0.13097736  1
  N  N66  1  0.21399884  0.87620226  0.83345067  1
  N  N67  1  0.07747070  0.77817823  0.58395632  1
  N  N68  1  0.88902633  0.87320109  0.32151881  1
  N  N69  1  0.77348823  0.75176168  0.12698956  1
  N  N70  1  0.55662351  0.86965121  0.87966868  1
  N  N71  1  0.44702141  0.75972188  0.63090026  1
