# generated using pymatgen
data_Al17BN18
_symmetry_space_group_name_H-M   'P 1'
_cell_length_a   9.34072735
_cell_length_b   9.33644914
_cell_length_c   10.20829246
_cell_angle_alpha   90.02460443
_cell_angle_beta   89.73662741
_cell_angle_gamma   59.86509089
_symmetry_Int_Tables_number   1
_chemical_formula_structural   Al17BN18
_chemical_formula_sum   'Al34 B2 N36'
_cell_volume   769.92319202
_cell_formula_units_Z   2
loop_
 _symmetry_equiv_pos_site_id
 _symmetry_equiv_pos_as_xyz
  1  'x, y, z'
loop_
 _atom_site_type_symbol
 _atom_site_label
 _atom_site_symmetry_multiplicity
 _atom_site_fract_x
 _atom_site_fract_y
 _atom_site_fract_z
 _atom_site_occupancy
  Al  Al0  1  0.11427243  0.09403062  0.39567473  1
  Al  Al1  1  0.20987745  0.20994275  0.13643303  1
  Al  Al2  1  0.78278553  0.08288616  0.81326047  1
  Al  Al3  1  0.89150039  0.20234990  0.60637731  1
  Al  Al4  1  0.45159506  0.09112081  0.31480259  1
  Al  Al5  1  0.56159284  0.20865262  0.06348125  1
  Al  Al6  1  0.10091641  0.09870378  0.88200258  1
  Al  Al7  1  0.21734320  0.20979396  0.64324676  1
  Al  Al8  1  0.78281390  0.10253562  0.31522124  1
  Al  Al9  1  0.45213161  0.08966287  0.81961934  1
  Al  Al10  1  0.56159836  0.19726272  0.56458203  1
  Al  Al11  1  0.11183644  0.42494837  0.39093913  1
  Al  Al12  1  0.21634885  0.53971651  0.14205284  1
  Al  Al13  1  0.78155467  0.42134781  0.88039083  1
  Al  Al14  1  0.89007768  0.54898457  0.64107126  1
  Al  Al15  1  0.44857156  0.42075227  0.32223133  1
  Al  Al16  1  0.56323120  0.53365247  0.13489897  1
  Al  Al17  1  0.11097477  0.42874800  0.89022967  1
  Al  Al18  1  0.21086341  0.54665411  0.63494001  1
  Al  Al19  1  0.77763055  0.43054396  0.39688379  1
  Al  Al20  1  0.89071454  0.52918498  0.14201758  1
  Al  Al21  1  0.44659776  0.42032340  0.81792057  1
  Al  Al22  1  0.55882358  0.54431193  0.64027847  1
  Al  Al23  1  0.10190244  0.76766862  0.38359275  1
  Al  Al24  1  0.21245411  0.87684655  0.14045291  1
  Al  Al25  1  0.78435219  0.75592402  0.89593380  1
  Al  Al26  1  0.44159799  0.75884404  0.37519469  1
  Al  Al27  1  0.55002600  0.87635659  0.07137111  1
  Al  Al28  1  0.11290368  0.75933677  0.89556122  1
  Al  Al29  1  0.21457863  0.87557240  0.64088708  1
  Al  Al30  1  0.78715709  0.76110645  0.37591698  1
  Al  Al31  1  0.89102794  0.87351039  0.11012353  1
  Al  Al32  1  0.43834693  0.76058758  0.88221939  1
  Al  Al33  1  0.55376216  0.87939642  0.56845168  1
  B  B34  1  0.88628477  0.20762753  0.09560066  1
  B  B35  1  0.88687917  0.87260814  0.59607555  1
  N  N36  1  0.21687291  0.20666139  0.32518913  1
  N  N37  1  0.07817492  0.10945669  0.07779155  1
  N  N38  1  0.88804375  0.20816717  0.81102986  1
  N  N39  1  0.79156040  0.05734357  0.62073923  1
  N  N40  1  0.55996354  0.20101450  0.37837591  1
  N  N41  1  0.45057282  0.09474533  0.12663109  1
  N  N42  1  0.21734736  0.20764244  0.83330527  1
  N  N43  1  0.12327775  0.09067698  0.58127199  1
  N  N44  1  0.88631392  0.20298444  0.38970249  1
  N  N45  1  0.79110078  0.11944312  0.12176153  1
  N  N46  1  0.55998767  0.20301655  0.87787894  1
  N  N47  1  0.44999406  0.09385733  0.63139154  1
  N  N48  1  0.21613175  0.54207941  0.33397072  1
  N  N49  1  0.11016893  0.42811515  0.07722328  1
  N  N50  1  0.88902297  0.54030509  0.82829626  1
  N  N51  1  0.77586340  0.44272426  0.58274788  1
  N  N52  1  0.56388296  0.53741651  0.32567789  1
  N  N53  1  0.44604292  0.42115673  0.12810587  1
  N  N54  1  0.21432712  0.54353883  0.82527582  1
  N  N55  1  0.11099161  0.42736210  0.57763922  1
  N  N56  1  0.89064786  0.53512029  0.32871253  1
  N  N57  1  0.79421760  0.39727616  0.07581232  1
  N  N58  1  0.55794000  0.53975727  0.83251024  1
  N  N59  1  0.44964053  0.42086807  0.62385219  1
  N  N60  1  0.21750190  0.87565603  0.32757299  1
  N  N61  1  0.12107270  0.75378152  0.08106632  1
  N  N62  1  0.88625908  0.87847538  0.88676907  1
  N  N63  1  0.79784847  0.77475073  0.57616755  1
  N  N64  1  0.55506836  0.87547109  0.37745240  1
  N  N65  1  0.43743175  0.76040746  0.08586520  1
  N  N66  1  0.21670917  0.87362419  0.82861509  1
  N  N67  1  0.07920162  0.77944685  0.57798429  1
  N  N68  1  0.88967081  0.87167048  0.31094146  1
  N  N69  1  0.77868970  0.74894909  0.08663552  1
  N  N70  1  0.55322424  0.87505400  0.87872261  1
  N  N71  1  0.43804803  0.76161849  0.58394699  1
