# generated using pymatgen
data_Al17BN18
_symmetry_space_group_name_H-M   'P 1'
_cell_length_a   9.30090002
_cell_length_b   9.36108923
_cell_length_c   10.21043884
_cell_angle_alpha   89.99979327
_cell_angle_beta   89.36743440
_cell_angle_gamma   59.79054191
_symmetry_Int_Tables_number   1
_chemical_formula_structural   Al17BN18
_chemical_formula_sum   'Al34 B2 N36'
_cell_volume   768.19319778
_cell_formula_units_Z   2
loop_
 _symmetry_equiv_pos_site_id
 _symmetry_equiv_pos_as_xyz
  1  'x, y, z'
loop_
 _atom_site_type_symbol
 _atom_site_label
 _atom_site_symmetry_multiplicity
 _atom_site_fract_x
 _atom_site_fract_y
 _atom_site_fract_z
 _atom_site_occupancy
  Al  Al0  1  0.11582150  0.09235269  0.39698240  1
  Al  Al1  1  0.21179740  0.20923575  0.13884222  1
  Al  Al2  1  0.78212001  0.08572103  0.82031308  1
  Al  Al3  1  0.88854364  0.20100343  0.59701603  1
  Al  Al4  1  0.45158636  0.09044166  0.31796899  1
  Al  Al5  1  0.56017590  0.20924999  0.06743460  1
  Al  Al6  1  0.10003630  0.09930920  0.88898306  1
  Al  Al7  1  0.21730293  0.20754849  0.64546643  1
  Al  Al8  1  0.78212097  0.09882146  0.32031329  1
  Al  Al9  1  0.45029266  0.09199327  0.82269144  1
  Al  Al10  1  0.56017661  0.19724261  0.56743425  1
  Al  Al11  1  0.11280039  0.42547247  0.39065310  1
  Al  Al12  1  0.21730413  0.54181960  0.14546618  1
  Al  Al13  1  0.77571105  0.42796361  0.81376336  1
  Al  Al14  1  0.89223461  0.54497625  0.61963870  1
  Al  Al15  1  0.45029375  0.42437503  0.32269116  1
  Al  Al16  1  0.55802736  0.53338242  0.07016890  1
  Al  Al17  1  0.11279921  0.42839192  0.89065291  1
  Al  Al18  1  0.21179875  0.54563748  0.63884271  1
  Al  Al19  1  0.78174464  0.41800321  0.32993770  1
  Al  Al20  1  0.89223535  0.52946124  0.11963982  1
  Al  Al21  1  0.45158661  0.42463294  0.81796920  1
  Al  Al22  1  0.55404494  0.54161945  0.56540893  1
  Al  Al23  1  0.10003695  0.76731857  0.38898309  1
  Al  Al24  1  0.20897765  0.87923931  0.14424111  1
  Al  Al25  1  0.78174357  0.76691629  0.82993700  1
  Al  Al26  1  0.44963743  0.75911746  0.32051344  1
  Al  Al27  1  0.55404448  0.87100305  0.06540896  1
  Al  Al28  1  0.11582119  0.75849021  0.89698249  1
  Al  Al29  1  0.20897685  0.87845331  0.64424066  1
  Al  Al30  1  0.77571127  0.76298798  0.31376360  1
  Al  Al31  1  0.88854219  0.87712330  0.09701503  1
  Al  Al32  1  0.44963701  0.75790621  0.82051332  1
  Al  Al33  1  0.55802521  0.87526063  0.57016906  1
  B  B34  1  0.88580370  0.20761568  0.10736672  1
  B  B35  1  0.88580336  0.87324766  0.60736628  1
  N  N36  1  0.21619543  0.20675619  0.32652212  1
  N  N37  1  0.07867238  0.11041323  0.08369558  1
  N  N38  1  0.88933501  0.20319292  0.82288797  1
  N  N39  1  0.79118800  0.05842253  0.62531376  1
  N  N40  1  0.55659296  0.20376976  0.38080037  1
  N  N41  1  0.45277430  0.09122196  0.12746524  1
  N  N42  1  0.21630402  0.20722282  0.83519964  1
  N  N43  1  0.12288946  0.08983953  0.58150739  1
  N  N44  1  0.88222029  0.20617896  0.39557520  1
  N  N45  1  0.79118395  0.11705216  0.12531424  1
  N  N46  1  0.55659355  0.20630767  0.88080030  1
  N  N47  1  0.45060116  0.09211285  0.63344396  1
  N  N48  1  0.21630492  0.54314849  0.33519984  1
  N  N49  1  0.11700078  0.42612857  0.07759072  1
  N  N50  1  0.89007245  0.53971928  0.84238621  1
  N  N51  1  0.77204786  0.43652049  0.62359943  1
  N  N52  1  0.55443393  0.54004437  0.37942912  1
  N  N53  1  0.45060175  0.42394440  0.13344375  1
  N  N54  1  0.21619598  0.54372327  0.82652217  1
  N  N55  1  0.11699944  0.42353440  0.57759111  1
  N  N56  1  0.89007374  0.53688290  0.34238607  1
  N  N57  1  0.79276246  0.39466118  0.12897958  1
  N  N58  1  0.55548880  0.53856667  0.88358511  1
  N  N59  1  0.45277430  0.42266129  0.62746593  1
  N  N60  1  0.21485255  0.87583483  0.33256778  1
  N  N61  1  0.12288785  0.75393302  0.08150768  1
  N  N62  1  0.88222004  0.87827474  0.89557508  1
  N  N63  1  0.79275807  0.77923988  0.62897961  1
  N  N64  1  0.55548866  0.87261537  0.38358486  1
  N  N65  1  0.44878483  0.75854756  0.13034481  1
  N  N66  1  0.21485145  0.87598848  0.83256797  1
  N  N67  1  0.07867239  0.77757917  0.58369549  1
  N  N68  1  0.88933554  0.87414701  0.32288887  1
  N  N69  1  0.77204755  0.75809127  0.12359984  1
  N  N70  1  0.55443217  0.87219362  0.87942916  1
  N  N71  1  0.44878471  0.75932466  0.63034416  1
