# generated using pymatgen
data_Al17BN18
_symmetry_space_group_name_H-M   'P 1'
_cell_length_a   9.33128423
_cell_length_b   9.33276125
_cell_length_c   9.99971697
_cell_angle_alpha   89.94946456
_cell_angle_beta   89.94596304
_cell_angle_gamma   60.02131749
_symmetry_Int_Tables_number   1
_chemical_formula_structural   Al17BN18
_chemical_formula_sum   'Al34 B2 N36'
_cell_volume   754.33267858
_cell_formula_units_Z   2
loop_
 _symmetry_equiv_pos_site_id
 _symmetry_equiv_pos_as_xyz
  1  'x, y, z'
loop_
 _atom_site_type_symbol
 _atom_site_label
 _atom_site_symmetry_multiplicity
 _atom_site_fract_x
 _atom_site_fract_y
 _atom_site_fract_z
 _atom_site_occupancy
  Al  Al0  1  0.10238990  0.10264038  0.30778366  1
  Al  Al1  1  0.21805669  0.20745423  0.06159732  1
  Al  Al2  1  0.78130705  0.09163457  0.82390943  1
  Al  Al3  1  0.89088622  0.19816266  0.56268796  1
  Al  Al4  1  0.44611840  0.09345964  0.31111245  1
  Al  Al5  1  0.55969026  0.20774405  0.05967227  1
  Al  Al6  1  0.10595269  0.10218636  0.82313086  1
  Al  Al7  1  0.22106004  0.20516429  0.55983372  1
  Al  Al8  1  0.77980056  0.09876862  0.30439088  1
  Al  Al9  1  0.44416316  0.09532186  0.81035695  1
  Al  Al10  1  0.56116724  0.19833108  0.56130252  1
  Al  Al11  1  0.10984759  0.42939984  0.31192002  1
  Al  Al12  1  0.22635151  0.53187525  0.06059449  1
  Al  Al13  1  0.77896274  0.42501060  0.81507350  1
  Al  Al14  1  0.89004861  0.54202079  0.56177118  1
  Al  Al15  1  0.44436833  0.42780743  0.31265115  1
  Al  Al16  1  0.56092758  0.53141079  0.06060366  1
  Al  Al17  1  0.11186808  0.42677443  0.80878243  1
  Al  Al18  1  0.21342657  0.54617424  0.56106468  1
  Al  Al19  1  0.78064296  0.42288226  0.30753649  1
  Al  Al20  1  0.89065986  0.53183202  0.05895155  1
  Al  Al21  1  0.44500386  0.42745932  0.80846406  1
  Al  Al22  1  0.55702327  0.53788250  0.55898887  1
  Al  Al23  1  0.10810281  0.76055866  0.30616231  1
  Al  Al24  1  0.21956711  0.87704994  0.10730041  1
  Al  Al25  1  0.78075828  0.76313571  0.81677936  1
  Al  Al26  1  0.44910775  0.75976129  0.31061405  1
  Al  Al27  1  0.55694401  0.87084004  0.05764876  1
  Al  Al28  1  0.10522985  0.76108215  0.84200010  1
  Al  Al29  1  0.21308943  0.87410888  0.62541633  1
  Al  Al30  1  0.77712635  0.76078212  0.30725695  1
  Al  Al31  1  0.88596957  0.87708856  0.08092232  1
  Al  Al32  1  0.45160275  0.75651372  0.81401152  1
  Al  Al33  1  0.55961496  0.87495158  0.56108065  1
  B  B34  1  0.88529533  0.20919099  0.05713248  1
  B  B35  1  0.88981030  0.87148404  0.60739010  1
  N  N36  1  0.22151315  0.20556003  0.36879129  1
  N  N37  1  0.08262216  0.11323712  0.11040451  1
  N  N38  1  0.88701842  0.20775333  0.89068012  1
  N  N39  1  0.79351952  0.06475556  0.62535152  1
  N  N40  1  0.55819044  0.20465084  0.37064468  1
  N  N41  1  0.44607500  0.09355523  0.11942838  1
  N  N42  1  0.22376714  0.20712749  0.87222924  1
  N  N43  1  0.10594562  0.10294391  0.62777557  1
  N  N44  1  0.88704322  0.20655853  0.37564314  1
  N  N45  1  0.78723793  0.11548861  0.11087304  1
  N  N46  1  0.55533956  0.20639168  0.86863132  1
  N  N47  1  0.44300982  0.09547060  0.62012966  1
  N  N48  1  0.22093137  0.54129373  0.37102753  1
  N  N49  1  0.11103902  0.42739825  0.12177579  1
  N  N50  1  0.88994224  0.53821804  0.86769085  1
  N  N51  1  0.77844363  0.42513651  0.62339666  1
  N  N52  1  0.55825350  0.53760086  0.36834044  1
  N  N53  1  0.44515848  0.42648167  0.12216436  1
  N  N54  1  0.22486775  0.53358103  0.86987286  1
  N  N55  1  0.11126021  0.42734109  0.61917962  1
  N  N56  1  0.88671462  0.53904462  0.37091781  1
  N  N57  1  0.79076026  0.40296317  0.11305629  1
  N  N58  1  0.55661521  0.53607035  0.87086323  1
  N  N59  1  0.44321013  0.42831708  0.61785676  1
  N  N60  1  0.22131010  0.87548330  0.32625906  1
  N  N61  1  0.11588374  0.75356248  0.10629346  1
  N  N62  1  0.88342397  0.87461270  0.88568561  1
  N  N63  1  0.79220925  0.77640875  0.62038363  1
  N  N64  1  0.55711876  0.87183473  0.37209262  1
  N  N65  1  0.45245070  0.75590830  0.11589251  1
  N  N66  1  0.22272369  0.87153156  0.83949405  1
  N  N67  1  0.07718847  0.77481249  0.62106463  1
  N  N68  1  0.88541481  0.87585234  0.32894307  1
  N  N69  1  0.77505925  0.75372153  0.11638663  1
  N  N70  1  0.55669219  0.87290651  0.86741703  1
  N  N71  1  0.44881299  0.75912698  0.61975496  1
