# generated using pymatgen
data_Al17BN18
_symmetry_space_group_name_H-M   'P 1'
_cell_length_a   9.32778575
_cell_length_b   9.33927622
_cell_length_c   10.23736503
_cell_angle_alpha   89.99451762
_cell_angle_beta   89.73097072
_cell_angle_gamma   59.91926939
_symmetry_Int_Tables_number   1
_chemical_formula_structural   Al17BN18
_chemical_formula_sum   'Al34 B2 N36'
_cell_volume   771.70349315
_cell_formula_units_Z   2
loop_
 _symmetry_equiv_pos_site_id
 _symmetry_equiv_pos_as_xyz
  1  'x, y, z'
loop_
 _atom_site_type_symbol
 _atom_site_label
 _atom_site_symmetry_multiplicity
 _atom_site_fract_x
 _atom_site_fract_y
 _atom_site_fract_z
 _atom_site_occupancy
  Al  Al0  1  0.11551639  0.09248783  0.39630037  1
  Al  Al1  1  0.21011552  0.21015782  0.13719468  1
  Al  Al2  1  0.78324012  0.08278399  0.81379000  1
  Al  Al3  1  0.89242024  0.20144862  0.60601976  1
  Al  Al4  1  0.45183076  0.09037274  0.31576072  1
  Al  Al5  1  0.56191968  0.20679353  0.06390718  1
  Al  Al6  1  0.10090876  0.09895314  0.88287626  1
  Al  Al7  1  0.21769176  0.21001709  0.64389198  1
  Al  Al8  1  0.78309763  0.10192324  0.31567402  1
  Al  Al9  1  0.45189727  0.09130654  0.82048040  1
  Al  Al10  1  0.56225632  0.19607686  0.56471326  1
  Al  Al11  1  0.11222513  0.42476296  0.39101065  1
  Al  Al12  1  0.21548455  0.53959795  0.14286463  1
  Al  Al13  1  0.78238669  0.42099408  0.88028038  1
  Al  Al14  1  0.89033058  0.54944701  0.64148425  1
  Al  Al15  1  0.45006308  0.42111439  0.32074561  1
  Al  Al16  1  0.56110599  0.53159547  0.11303338  1
  Al  Al17  1  0.11075355  0.42931613  0.89069675  1
  Al  Al18  1  0.21027385  0.54648906  0.63700103  1
  Al  Al19  1  0.77862171  0.42909671  0.39572084  1
  Al  Al20  1  0.88989132  0.52950136  0.14260629  1
  Al  Al21  1  0.44790162  0.42246220  0.82114144  1
  Al  Al22  1  0.55879215  0.53969123  0.62160800  1
  Al  Al23  1  0.10278731  0.76659022  0.38351179  1
  Al  Al24  1  0.20601980  0.88122699  0.14135920  1
  Al  Al25  1  0.78397703  0.75610648  0.89686845  1
  Al  Al26  1  0.44824534  0.76115144  0.31776682  1
  Al  Al27  1  0.54667408  0.87547147  0.06832084  1
  Al  Al28  1  0.11418388  0.75945257  0.89671370  1
  Al  Al29  1  0.20770019  0.87878022  0.64244176  1
  Al  Al30  1  0.78604034  0.76081144  0.37739561  1
  Al  Al31  1  0.89016979  0.87280265  0.11032531  1
  Al  Al32  1  0.44559160  0.76465803  0.82368208  1
  Al  Al33  1  0.55143769  0.87889854  0.56830575  1
  B  B34  1  0.88665170  0.20739667  0.09626473  1
  B  B35  1  0.88658870  0.87220997  0.59616557  1
  N  N36  1  0.21678516  0.20654180  0.32535065  1
  N  N37  1  0.07825898  0.10984068  0.07793308  1
  N  N38  1  0.88820602  0.20856667  0.81047956  1
  N  N39  1  0.79232855  0.05662170  0.62128995  1
  N  N40  1  0.55957678  0.20086693  0.37894425  1
  N  N41  1  0.45129405  0.09333472  0.12737979  1
  N  N42  1  0.21692357  0.20851648  0.83334074  1
  N  N43  1  0.12456234  0.09040005  0.58106078  1
  N  N44  1  0.88701749  0.20164829  0.39103738  1
  N  N45  1  0.79151695  0.11883231  0.12253607  1
  N  N46  1  0.56022449  0.20319995  0.87859483  1
  N  N47  1  0.45065739  0.09363824  0.63232327  1
  N  N48  1  0.21642424  0.54129773  0.33331834  1
  N  N49  1  0.10970171  0.42812056  0.07728084  1
  N  N50  1  0.88843056  0.54127625  0.82791699  1
  N  N51  1  0.77874663  0.44092788  0.58296648  1
  N  N52  1  0.56239913  0.53511605  0.33765409  1
  N  N53  1  0.44563086  0.42001167  0.12796531  1
  N  N54  1  0.21439778  0.54382487  0.82572495  1
  N  N55  1  0.11142152  0.42727365  0.57768137  1
  N  N56  1  0.89043899  0.53530234  0.32880030  1
  N  N57  1  0.79680276  0.39539910  0.07658214  1
  N  N58  1  0.55518668  0.53961558  0.85570789  1
  N  N59  1  0.45025249  0.42013437  0.62658707  1
  N  N60  1  0.21447352  0.87680043  0.32969716  1
  N  N61  1  0.12149762  0.75329801  0.08137779  1
  N  N62  1  0.88629685  0.87840545  0.88745136  1
  N  N63  1  0.79731253  0.77485057  0.57619750  1
  N  N64  1  0.55156324  0.87391824  0.38167581  1
  N  N65  1  0.44128001  0.76518272  0.12620148  1
  N  N66  1  0.21263036  0.87656199  0.83045985  1
  N  N67  1  0.07964955  0.77832734  0.57807554  1
  N  N68  1  0.88882548  0.87083624  0.31122244  1
  N  N69  1  0.77729589  0.74877323  0.08598457  1
  N  N70  1  0.55038926  0.87600754  0.88134634  1
  N  N71  1  0.44454708  0.76591414  0.63049989  1
