# generated using pymatgen
data_Al17BN18
_symmetry_space_group_name_H-M   'P 1'
_cell_length_a   9.32149147
_cell_length_b   9.35641571
_cell_length_c   10.15785669
_cell_angle_alpha   90.00064038
_cell_angle_beta   89.47093310
_cell_angle_gamma   59.92107942
_symmetry_Int_Tables_number   1
_chemical_formula_structural   Al17BN18
_chemical_formula_sum   'Al34 B2 N36'
_cell_volume   766.57905158
_cell_formula_units_Z   2
loop_
 _symmetry_equiv_pos_site_id
 _symmetry_equiv_pos_as_xyz
  1  'x, y, z'
loop_
 _atom_site_type_symbol
 _atom_site_label
 _atom_site_symmetry_multiplicity
 _atom_site_fract_x
 _atom_site_fract_y
 _atom_site_fract_z
 _atom_site_occupancy
  Al  Al0  1  0.11443292  0.09287510  0.39876094  1
  Al  Al1  1  0.21491214  0.20381883  0.13673873  1
  Al  Al2  1  0.78173862  0.08607640  0.82195471  1
  Al  Al3  1  0.88801124  0.20300551  0.60175582  1
  Al  Al4  1  0.45272362  0.08908715  0.31995230  1
  Al  Al5  1  0.56183125  0.20885408  0.06824453  1
  Al  Al6  1  0.09927154  0.10038899  0.88985320  1
  Al  Al7  1  0.22177067  0.19870255  0.64386695  1
  Al  Al8  1  0.78261361  0.09924662  0.32144563  1
  Al  Al9  1  0.45135708  0.09157144  0.82569886  1
  Al  Al10  1  0.56254266  0.19463140  0.56800918  1
  Al  Al11  1  0.10763639  0.43175308  0.32781135  1
  Al  Al12  1  0.22496888  0.53972596  0.11702921  1
  Al  Al13  1  0.77610540  0.43113164  0.81411486  1
  Al  Al14  1  0.89027246  0.54507136  0.56836682  1
  Al  Al15  1  0.44859425  0.42555492  0.32729459  1
  Al  Al16  1  0.55955436  0.53440763  0.07212113  1
  Al  Al17  1  0.10618763  0.43359859  0.82184042  1
  Al  Al18  1  0.21874906  0.54148425  0.60544832  1
  Al  Al19  1  0.78321711  0.42063025  0.32755604  1
  Al  Al20  1  0.89099025  0.53100679  0.06816236  1
  Al  Al21  1  0.44944181  0.42649352  0.81766091  1
  Al  Al22  1  0.55656793  0.54108936  0.56659226  1
  Al  Al23  1  0.09819119  0.77009742  0.38988396  1
  Al  Al24  1  0.20843125  0.88108282  0.14535657  1
  Al  Al25  1  0.78264076  0.76321009  0.82757026  1
  Al  Al26  1  0.44847630  0.75978793  0.32209868  1
  Al  Al27  1  0.55571253  0.86945741  0.06660312  1
  Al  Al28  1  0.11271574  0.76151199  0.89630459  1
  Al  Al29  1  0.20771763  0.87705614  0.64594388  1
  Al  Al30  1  0.77621626  0.75909995  0.31363959  1
  Al  Al31  1  0.88725935  0.87586566  0.10196996  1
  Al  Al32  1  0.44809334  0.75810061  0.82221472  1
  Al  Al33  1  0.55904286  0.87305036  0.57234638  1
  B  B34  1  0.88551163  0.20981343  0.10905653  1
  B  B35  1  0.88557905  0.87182376  0.61028696  1
  N  N36  1  0.21995409  0.20048349  0.32991463  1
  N  N37  1  0.07708978  0.11176671  0.08449293  1
  N  N38  1  0.88916248  0.20470497  0.82138884  1
  N  N39  1  0.79077955  0.05728989  0.62638968  1
  N  N40  1  0.55870715  0.20219510  0.38071593  1
  N  N41  1  0.45441077  0.09058321  0.12735478  1
  N  N42  1  0.21962475  0.20337113  0.84097810  1
  N  N43  1  0.12118454  0.08790559  0.58313980  1
  N  N44  1  0.88161533  0.20863279  0.39600181  1
  N  N45  1  0.79090196  0.11921238  0.12578402  1
  N  N46  1  0.55759637  0.20702778  0.88130325  1
  N  N47  1  0.45217003  0.09020471  0.63417511  1
  N  N48  1  0.22297993  0.53981057  0.37039436  1
  N  N49  1  0.10700227  0.43312388  0.13126975  1
  N  N50  1  0.88632500  0.53898601  0.88121447  1
  N  N51  1  0.77343991  0.44142853  0.62701014  1
  N  N52  1  0.55697622  0.53989481  0.37904765  1
  N  N53  1  0.45077862  0.42471038  0.13628589  1
  N  N54  1  0.22125495  0.54447528  0.84019252  1
  N  N55  1  0.10676154  0.42695097  0.62749025  1
  N  N56  1  0.88580936  0.54195852  0.38121649  1
  N  N57  1  0.79494213  0.39832230  0.13017035  1
  N  N58  1  0.55654659  0.53828369  0.88450921  1
  N  N59  1  0.45552721  0.42060569  0.62677236  1
  N  N60  1  0.21423923  0.87632818  0.33380254  1
  N  N61  1  0.12005844  0.75854677  0.08346749  1
  N  N62  1  0.88017576  0.87762400  0.89639699  1
  N  N63  1  0.79453262  0.77368857  0.63058136  1
  N  N64  1  0.55696417  0.87102229  0.38450233  1
  N  N65  1  0.44667512  0.76019267  0.13078994  1
  N  N66  1  0.21402867  0.87739621  0.83449253  1
  N  N67  1  0.07526854  0.78055740  0.58544549  1
  N  N68  1  0.88940526  0.87285019  0.31938788  1
  N  N69  1  0.77303574  0.75149002  0.12662374  1
  N  N70  1  0.55623436  0.87015952  0.87945216  1
  N  N71  1  0.44650141  0.75918320  0.63086027  1
