# generated using pymatgen
data_Al17BN18
_symmetry_space_group_name_H-M   'P 1'
_cell_length_a   9.30033301
_cell_length_b   9.31403512
_cell_length_c   10.12009508
_cell_angle_alpha   90.00060656
_cell_angle_beta   89.77703771
_cell_angle_gamma   60.08373376
_symmetry_Int_Tables_number   1
_chemical_formula_structural   Al17BN18
_chemical_formula_sum   'Al34 B2 N36'
_cell_volume   759.82403472
_cell_formula_units_Z   2
loop_
 _symmetry_equiv_pos_site_id
 _symmetry_equiv_pos_as_xyz
  1  'x, y, z'
loop_
 _atom_site_type_symbol
 _atom_site_label
 _atom_site_symmetry_multiplicity
 _atom_site_fract_x
 _atom_site_fract_y
 _atom_site_fract_z
 _atom_site_occupancy
  Al  Al0  1  0.10208436  0.10592545  0.31593691  1
  Al  Al1  1  0.21610810  0.20498928  0.06072623  1
  Al  Al2  1  0.78236430  0.08977420  0.81919439  1
  Al  Al3  1  0.89035937  0.20041327  0.56502363  1
  Al  Al4  1  0.44678721  0.09389345  0.30861966  1
  Al  Al5  1  0.56079446  0.20732871  0.05718679  1
  Al  Al6  1  0.10462633  0.10148863  0.81258010  1
  Al  Al7  1  0.22364730  0.20498086  0.55819486  1
  Al  Al8  1  0.77774022  0.10153880  0.30500739  1
  Al  Al9  1  0.44378372  0.09436427  0.81034835  1
  Al  Al10  1  0.56163851  0.19750175  0.55981735  1
  Al  Al11  1  0.11126127  0.43116776  0.30956115  1
  Al  Al12  1  0.22846214  0.52857393  0.06052453  1
  Al  Al13  1  0.77859957  0.42505352  0.81095415  1
  Al  Al14  1  0.89162718  0.54288842  0.56051031  1
  Al  Al15  1  0.44386504  0.42880032  0.31058118  1
  Al  Al16  1  0.55973612  0.53308045  0.06034776  1
  Al  Al17  1  0.11163778  0.42612100  0.80977970  1
  Al  Al18  1  0.22034020  0.53600745  0.56213569  1
  Al  Al19  1  0.78082339  0.42447490  0.31069978  1
  Al  Al20  1  0.89077848  0.53085536  0.05706639  1
  Al  Al21  1  0.44538554  0.42697304  0.80896064  1
  Al  Al22  1  0.55818161  0.53769600  0.55730463  1
  Al  Al23  1  0.09760560  0.77311528  0.37532910  1
  Al  Al24  1  0.21427322  0.87352710  0.13260488  1
  Al  Al25  1  0.78175824  0.76334391  0.81667742  1
  Al  Al26  1  0.45135522  0.75895354  0.31300709  1
  Al  Al27  1  0.55455659  0.87004864  0.05579203  1
  Al  Al28  1  0.11029690  0.76571319  0.88622612  1
  Al  Al29  1  0.21272021  0.87130438  0.62562136  1
  Al  Al30  1  0.77686597  0.75943002  0.30289960  1
  Al  Al31  1  0.88794659  0.87622295  0.09124208  1
  Al  Al32  1  0.45011532  0.75597507  0.80865271  1
  Al  Al33  1  0.56063998  0.87479242  0.55992484  1
  B  B34  1  0.88590744  0.20924787  0.07899057  1
  B  B35  1  0.88756917  0.87300300  0.60071646  1
  N  N36  1  0.22326942  0.20775986  0.36911427  1
  N  N37  1  0.07935082  0.11359567  0.11957696  1
  N  N38  1  0.88688486  0.20713449  0.87145874  1
  N  N39  1  0.79324413  0.06302510  0.61985468  1
  N  N40  1  0.55735894  0.20546176  0.37068779  1
  N  N41  1  0.44590488  0.09328440  0.11871054  1
  N  N42  1  0.22206542  0.20410479  0.87257580  1
  N  N43  1  0.10952881  0.10095721  0.61867420  1
  N  N44  1  0.88504018  0.20780952  0.37890220  1
  N  N45  1  0.78687177  0.11878701  0.11396908  1
  N  N46  1  0.55565789  0.20530912  0.86851293  1
  N  N47  1  0.44419859  0.09490637  0.62092499  1
  N  N48  1  0.22367114  0.53853743  0.37299513  1
  N  N49  1  0.11107886  0.42652901  0.12150583  1
  N  N50  1  0.88892934  0.53807302  0.86801775  1
  N  N51  1  0.77813671  0.42916661  0.62048792  1
  N  N52  1  0.55791759  0.53759226  0.36890384  1
  N  N53  1  0.44602261  0.42565789  0.12239975  1
  N  N54  1  0.22527665  0.53196042  0.86846124  1
  N  N55  1  0.11175029  0.42608293  0.62137227  1
  N  N56  1  0.88852386  0.54042340  0.37111192  1
  N  N57  1  0.79131893  0.40202633  0.11727796  1
  N  N58  1  0.55589584  0.53765600  0.87184187  1
  N  N59  1  0.44695747  0.42610623  0.61927651  1
  N  N60  1  0.21943954  0.87478223  0.32786103  1
  N  N61  1  0.11928566  0.75707655  0.07483461  1
  N  N62  1  0.88055512  0.87653505  0.88367341  1
  N  N63  1  0.79406366  0.77592532  0.61916302  1
  N  N64  1  0.55832802  0.87306812  0.37223460  1
  N  N65  1  0.44935896  0.75730258  0.12067432  1
  N  N66  1  0.21855383  0.86867133  0.81795837  1
  N  N67  1  0.07472496  0.78017279  0.57321833  1
  N  N68  1  0.88836281  0.87493755  0.30950508  1
  N  N69  1  0.77311022  0.75210651  0.11508149  1
  N  N70  1  0.55486084  0.87147964  0.86690543  1
  N  N71  1  0.45096668  0.75807316  0.61582432  1
