# generated using pymatgen
data_Al17BN18
_symmetry_space_group_name_H-M   'P 1'
_cell_length_a   9.30290160
_cell_length_b   9.32678380
_cell_length_c   10.17020713
_cell_angle_alpha   89.99994882
_cell_angle_beta   89.49320830
_cell_angle_gamma   59.91513692
_symmetry_Int_Tables_number   1
_chemical_formula_structural   Al17BN18
_chemical_formula_sum   'Al34 B2 N36'
_cell_volume   763.51234040
_cell_formula_units_Z   2
loop_
 _symmetry_equiv_pos_site_id
 _symmetry_equiv_pos_as_xyz
  1  'x, y, z'
loop_
 _atom_site_type_symbol
 _atom_site_label
 _atom_site_symmetry_multiplicity
 _atom_site_fract_x
 _atom_site_fract_y
 _atom_site_fract_z
 _atom_site_occupancy
  Al  Al0  1  0.11015571  0.09255642  0.39910915  1
  Al  Al1  1  0.22096220  0.20841334  0.07471842  1
  Al  Al2  1  0.77965729  0.08543933  0.82219930  1
  Al  Al3  1  0.88909825  0.20310780  0.60607373  1
  Al  Al4  1  0.44701451  0.09380077  0.32071686  1
  Al  Al5  1  0.56271758  0.20725496  0.06930259  1
  Al  Al6  1  0.09703219  0.09692799  0.88750158  1
  Al  Al7  1  0.22943084  0.20807630  0.57314861  1
  Al  Al8  1  0.77965889  0.10156704  0.32219740  1
  Al  Al9  1  0.44403666  0.09371774  0.82272415  1
  Al  Al10  1  0.56272340  0.19669132  0.56930350  1
  Al  Al11  1  0.11228567  0.42992682  0.32222131  1
  Al  Al12  1  0.22942631  0.52916353  0.07315011  1
  Al  Al13  1  0.77585051  0.43168298  0.81517414  1
  Al  Al14  1  0.89209703  0.54500635  0.57029237  1
  Al  Al15  1  0.44403871  0.42891000  0.32272490  1
  Al  Al16  1  0.55919135  0.53369460  0.07309478  1
  Al  Al17  1  0.11228566  0.42445432  0.82222274  1
  Al  Al18  1  0.22096717  0.53728977  0.57471542  1
  Al  Al19  1  0.78285563  0.42202175  0.32854166  1
  Al  Al20  1  0.89209089  0.52956665  0.07029090  1
  Al  Al21  1  0.44701332  0.42585028  0.82071610  1
  Al  Al22  1  0.55543358  0.54171892  0.56749662  1
  Al  Al23  1  0.09703576  0.77270467  0.38749901  1
  Al  Al24  1  0.20830765  0.88100048  0.14558616  1
  Al  Al25  1  0.78285513  0.76179028  0.82853859  1
  Al  Al26  1  0.44916069  0.76053351  0.32214066  1
  Al  Al27  1  0.55543064  0.86951702  0.06749561  1
  Al  Al28  1  0.11015347  0.76395464  0.89911027  1
  Al  Al29  1  0.20831335  0.87735795  0.64558809  1
  Al  Al30  1  0.77585148  0.75913034  0.31517503  1
  Al  Al31  1  0.88909340  0.87446231  0.10607504  1
  Al  Al32  1  0.44916065  0.75697209  0.82214679  1
  Al  Al33  1  0.55919602  0.87377723  0.57309540  1
  B  B34  1  0.88626182  0.20881894  0.11111515  1
  B  B35  1  0.88626897  0.87158423  0.61111268  1
  N  N36  1  0.22611124  0.20978990  0.38124568  1
  N  N37  1  0.07537306  0.11102443  0.08625683  1
  N  N38  1  0.88797856  0.20440827  0.81993725  1
  N  N39  1  0.78987332  0.05798814  0.62698209  1
  N  N40  1  0.55667197  0.20557454  0.38158283  1
  N  N41  1  0.44873854  0.09253489  0.13130012  1
  N  N42  1  0.22351628  0.20438804  0.88581605  1
  N  N43  1  0.12007886  0.08915996  0.58673930  1
  N  N44  1  0.88002311  0.20983317  0.39625592  1
  N  N45  1  0.78986801  0.11880940  0.12698160  1
  N  N46  1  0.55666918  0.20442054  0.88158180  1
  N  N47  1  0.44694871  0.09438888  0.63480413  1
  N  N48  1  0.22351872  0.53876031  0.38581400  1
  N  N49  1  0.11175365  0.42744409  0.13495177  1
  N  N50  1  0.88938799  0.53635148  0.88219961  1
  N  N51  1  0.77315663  0.44241170  0.62786772  1
  N  N52  1  0.55539560  0.54035207  0.37959465  1
  N  N53  1  0.44694449  0.42533082  0.13480512  1
  N  N54  1  0.22611096  0.53076582  0.88124773  1
  N  N55  1  0.11175979  0.42746693  0.63495318  1
  N  N56  1  0.88939021  0.54092536  0.38220177  1
  N  N57  1  0.79410215  0.39856452  0.13151183  1
  N  N58  1  0.55634909  0.53739968  0.88515167  1
  N  N59  1  0.44874312  0.42539091  0.63129941  1
  N  N60  1  0.21477837  0.87779319  0.33360720  1
  N  N61  1  0.12007452  0.75743043  0.08673948  1
  N  N62  1  0.88002202  0.87680981  0.89625577  1
  N  N63  1  0.79410843  0.77399798  0.63150921  1
  N  N64  1  0.55634979  0.87291479  0.38515153  1
  N  N65  1  0.44706933  0.75969487  0.13132167  1
  N  N66  1  0.21477706  0.87409699  0.83361033  1
  N  N67  1  0.07537949  0.78026950  0.58625288  1
  N  N68  1  0.88798074  0.87427864  0.31993336  1
  N  N69  1  0.77315202  0.75109882  0.12786865  1
  N  N70  1  0.55539565  0.87091989  0.87959440  1
  N  N71  1  0.44707563  0.75989894  0.63132798  1
