# generated using pymatgen
data_Al17BN18
_symmetry_space_group_name_H-M   'P 1'
_cell_length_a   9.33016926
_cell_length_b   9.32841854
_cell_length_c   10.16552261
_cell_angle_alpha   90.05082743
_cell_angle_beta   89.74514952
_cell_angle_gamma   59.89807867
_symmetry_Int_Tables_number   1
_chemical_formula_structural   Al17BN18
_chemical_formula_sum   'Al34 B2 N36'
_cell_volume   765.42707894
_cell_formula_units_Z   2
loop_
 _symmetry_equiv_pos_site_id
 _symmetry_equiv_pos_as_xyz
  1  'x, y, z'
loop_
 _atom_site_type_symbol
 _atom_site_label
 _atom_site_symmetry_multiplicity
 _atom_site_fract_x
 _atom_site_fract_y
 _atom_site_fract_z
 _atom_site_occupancy
  Al  Al0  1  0.11343883  0.09406117  0.39433388  1
  Al  Al1  1  0.20947089  0.21010723  0.13559880  1
  Al  Al2  1  0.78265061  0.08335768  0.81264366  1
  Al  Al3  1  0.89109287  0.20318349  0.60524946  1
  Al  Al4  1  0.45012173  0.09221931  0.31642658  1
  Al  Al5  1  0.56623349  0.20073787  0.06351092  1
  Al  Al6  1  0.10179656  0.09799975  0.88086176  1
  Al  Al7  1  0.21618437  0.21055353  0.64202784  1
  Al  Al8  1  0.78118756  0.10378691  0.31398909  1
  Al  Al9  1  0.45220341  0.09037211  0.81828593  1
  Al  Al10  1  0.56519336  0.19163660  0.56459587  1
  Al  Al11  1  0.11120316  0.42579155  0.38935389  1
  Al  Al12  1  0.22519178  0.53560049  0.14180170  1
  Al  Al13  1  0.78087165  0.42184994  0.87863361  1
  Al  Al14  1  0.88980829  0.54844261  0.64011602  1
  Al  Al15  1  0.44250930  0.43326592  0.38861344  1
  Al  Al16  1  0.55914647  0.53103807  0.13723531  1
  Al  Al17  1  0.11161106  0.42862884  0.88941140  1
  Al  Al18  1  0.21649402  0.54323247  0.63655721  1
  Al  Al19  1  0.77547304  0.43190339  0.39526895  1
  Al  Al20  1  0.89162637  0.52852902  0.14057812  1
  Al  Al21  1  0.44044982  0.43328086  0.88551707  1
  Al  Al22  1  0.55369915  0.54172676  0.64196449  1
  Al  Al23  1  0.10173697  0.76751182  0.38129276  1
  Al  Al24  1  0.21485362  0.87538960  0.14032193  1
  Al  Al25  1  0.78320536  0.75688446  0.89402872  1
  Al  Al26  1  0.43964875  0.75837370  0.38699630  1
  Al  Al27  1  0.55207059  0.87389700  0.07617163  1
  Al  Al28  1  0.11324719  0.75978142  0.89437952  1
  Al  Al29  1  0.21443430  0.87497602  0.64028366  1
  Al  Al30  1  0.78562497  0.76223691  0.37498594  1
  Al  Al31  1  0.89340025  0.87200294  0.10860956  1
  Al  Al32  1  0.43892706  0.76020991  0.88761872  1
  Al  Al33  1  0.55573869  0.87777486  0.57208854  1
  B  B34  1  0.88642418  0.20816679  0.09490730  1
  B  B35  1  0.88872244  0.87106504  0.59546900  1
  N  N36  1  0.21555907  0.20734813  0.32483442  1
  N  N37  1  0.07856686  0.10897606  0.07738450  1
  N  N38  1  0.88862897  0.20813271  0.81023358  1
  N  N39  1  0.79304009  0.05626131  0.61981746  1
  N  N40  1  0.56050485  0.20004126  0.37551966  1
  N  N41  1  0.45036736  0.09418633  0.12694325  1
  N  N42  1  0.21751257  0.20765673  0.83269348  1
  N  N43  1  0.12301357  0.09024153  0.58057959  1
  N  N44  1  0.88520306  0.20421236  0.38870594  1
  N  N45  1  0.79140137  0.11938731  0.12108313  1
  N  N46  1  0.56209761  0.20025229  0.87453851  1
  N  N47  1  0.44832745  0.09494671  0.62928855  1
  N  N48  1  0.22136008  0.53923532  0.33071346  1
  N  N49  1  0.11191441  0.42830449  0.07729226  1
  N  N50  1  0.88977268  0.54006338  0.82792763  1
  N  N51  1  0.77226737  0.44443995  0.58258356  1
  N  N52  1  0.55760654  0.53733166  0.32461766  1
  N  N53  1  0.44207816  0.43084675  0.07650622  1
  N  N54  1  0.22031260  0.54088339  0.82438747  1
  N  N55  1  0.11097852  0.42833658  0.57719385  1
  N  N56  1  0.88959647  0.53599547  0.32802919  1
  N  N57  1  0.79330631  0.39772919  0.07613320  1
  N  N58  1  0.55517786  0.53945576  0.82937429  1
  N  N59  1  0.44360750  0.43143136  0.57943388  1
  N  N60  1  0.21916948  0.87471749  0.32766802  1
  N  N61  1  0.12304259  0.75243024  0.08114312  1
  N  N62  1  0.88707826  0.87829931  0.88681472  1
  N  N63  1  0.79820028  0.77439859  0.57639682  1
  N  N64  1  0.55434531  0.87448226  0.37659225  1
  N  N65  1  0.43834347  0.75824162  0.08002845  1
  N  N66  1  0.21887189  0.87251616  0.82789900  1
  N  N67  1  0.08024204  0.77769723  0.57744523  1
  N  N68  1  0.88945845  0.87186388  0.30999758  1
  N  N69  1  0.77958503  0.74856561  0.08574738  1
  N  N70  1  0.55443896  0.87305377  0.87233932  1
  N  N71  1  0.43706942  0.75959216  0.57895415  1
