# generated using pymatgen
data_Al17BN18
_symmetry_space_group_name_H-M   'P 1'
_cell_length_a   9.33033569
_cell_length_b   9.33209208
_cell_length_c   10.14220744
_cell_angle_alpha   90.06695109
_cell_angle_beta   89.74989275
_cell_angle_gamma   59.92579003
_symmetry_Int_Tables_number   1
_chemical_formula_structural   Al17BN18
_chemical_formula_sum   'Al34 B2 N36'
_cell_volume   764.19951058
_cell_formula_units_Z   2
loop_
 _symmetry_equiv_pos_site_id
 _symmetry_equiv_pos_as_xyz
  1  'x, y, z'
loop_
 _atom_site_type_symbol
 _atom_site_label
 _atom_site_symmetry_multiplicity
 _atom_site_fract_x
 _atom_site_fract_y
 _atom_site_fract_z
 _atom_site_occupancy
  Al  Al0  1  0.11333297  0.09400981  0.39423679  1
  Al  Al1  1  0.20932604  0.21018841  0.13516045  1
  Al  Al2  1  0.78277130  0.08291441  0.81298589  1
  Al  Al3  1  0.89097701  0.20321208  0.60533221  1
  Al  Al4  1  0.44846402  0.09485654  0.31851784  1
  Al  Al5  1  0.56623854  0.20048382  0.06313714  1
  Al  Al6  1  0.10198187  0.09779801  0.88056564  1
  Al  Al7  1  0.21560794  0.21115531  0.64151759  1
  Al  Al8  1  0.78145485  0.10350738  0.31379047  1
  Al  Al9  1  0.45183777  0.09087201  0.81775312  1
  Al  Al10  1  0.56521027  0.19210800  0.56416427  1
  Al  Al11  1  0.11063352  0.42637934  0.38924386  1
  Al  Al12  1  0.22527024  0.53556582  0.14178119  1
  Al  Al13  1  0.78088027  0.42193610  0.87833342  1
  Al  Al14  1  0.88994186  0.54817966  0.64060797  1
  Al  Al15  1  0.44248916  0.43381531  0.38844545  1
  Al  Al16  1  0.55950870  0.53012816  0.13689674  1
  Al  Al17  1  0.11140241  0.42888269  0.88921012  1
  Al  Al18  1  0.21649982  0.54321717  0.63643008  1
  Al  Al19  1  0.77538214  0.43204754  0.39504155  1
  Al  Al20  1  0.89213297  0.52784976  0.14035495  1
  Al  Al21  1  0.44041978  0.43345431  0.88525154  1
  Al  Al22  1  0.55362424  0.54174956  0.64224947  1
  Al  Al23  1  0.10166153  0.76759354  0.38084943  1
  Al  Al24  1  0.21450927  0.87572330  0.13998146  1
  Al  Al25  1  0.77930899  0.75869654  0.89340026  1
  Al  Al26  1  0.44011469  0.75901173  0.38746034  1
  Al  Al27  1  0.55465848  0.86904885  0.10235944  1
  Al  Al28  1  0.11330637  0.75969565  0.89407365  1
  Al  Al29  1  0.21439663  0.87504305  0.64038349  1
  Al  Al30  1  0.78494241  0.76273828  0.37639803  1
  Al  Al31  1  0.89359295  0.87225628  0.10728399  1
  Al  Al32  1  0.44129781  0.76193858  0.88699061  1
  Al  Al33  1  0.55743527  0.87481561  0.58754295  1
  B  B34  1  0.88641413  0.20813084  0.09482374  1
  B  B35  1  0.88873991  0.87127297  0.59514790  1
  N  N36  1  0.21481103  0.20802102  0.32488342  1
  N  N37  1  0.07848524  0.10902695  0.07742134  1
  N  N38  1  0.88856637  0.20794179  0.81024704  1
  N  N39  1  0.79293334  0.05601096  0.61969901  1
  N  N40  1  0.56082060  0.20083506  0.37506463  1
  N  N41  1  0.44971977  0.09490885  0.12629547  1
  N  N42  1  0.21751038  0.20773686  0.83275587  1
  N  N43  1  0.12279650  0.09019285  0.58072894  1
  N  N44  1  0.88511409  0.20435167  0.38867682  1
  N  N45  1  0.79137194  0.11938911  0.12072427  1
  N  N46  1  0.56198693  0.20031379  0.87416029  1
  N  N47  1  0.44631563  0.09779871  0.62642819  1
  N  N48  1  0.22133384  0.53930187  0.33082661  1
  N  N49  1  0.11200443  0.42837124  0.07737866  1
  N  N50  1  0.89006613  0.53997929  0.82851808  1
  N  N51  1  0.77213572  0.44458316  0.58271871  1
  N  N52  1  0.55746532  0.53767763  0.32442417  1
  N  N53  1  0.44206644  0.43059466  0.07656556  1
  N  N54  1  0.22030693  0.54088380  0.82436942  1
  N  N55  1  0.11041763  0.42889508  0.57720501  1
  N  N56  1  0.88935653  0.53643641  0.32795578  1
  N  N57  1  0.79345616  0.39753127  0.07623049  1
  N  N58  1  0.55502757  0.53953164  0.82990501  1
  N  N59  1  0.44354269  0.43183446  0.57942937  1
  N  N60  1  0.21931075  0.87471875  0.32756063  1
  N  N61  1  0.12349747  0.75216468  0.08120398  1
  N  N62  1  0.88673344  0.87801839  0.88791319  1
  N  N63  1  0.79793523  0.77440959  0.57559566  1
  N  N64  1  0.55498810  0.87265491  0.36587447  1
  N  N65  1  0.43929578  0.75886794  0.07934780  1
  N  N66  1  0.21938625  0.87222779  0.82831630  1
  N  N67  1  0.08004666  0.77776916  0.57747397  1
  N  N68  1  0.88926053  0.87171128  0.30973836  1
  N  N69  1  0.77899690  0.74834630  0.08468859  1
  N  N70  1  0.55772975  0.86820884  0.85049111  1
  N  N71  1  0.43718048  0.75960819  0.57805011  1
