# generated using pymatgen
data_Al17BN18
_symmetry_space_group_name_H-M   'P 1'
_cell_length_a   9.30431099
_cell_length_b   9.31539842
_cell_length_c   10.16791749
_cell_angle_alpha   90.02594798
_cell_angle_beta   89.73222581
_cell_angle_gamma   60.03075759
_symmetry_Int_Tables_number   1
_chemical_formula_structural   Al17BN18
_chemical_formula_sum   'Al34 B2 N36'
_cell_volume   763.44160692
_cell_formula_units_Z   2
loop_
 _symmetry_equiv_pos_site_id
 _symmetry_equiv_pos_as_xyz
  1  'x, y, z'
loop_
 _atom_site_type_symbol
 _atom_site_label
 _atom_site_symmetry_multiplicity
 _atom_site_fract_x
 _atom_site_fract_y
 _atom_site_fract_z
 _atom_site_occupancy
  Al  Al0  1  0.11327782  0.09368566  0.39996536  1
  Al  Al1  1  0.20983469  0.21000032  0.13944475  1
  Al  Al2  1  0.78297278  0.08276346  0.81861863  1
  Al  Al3  1  0.89093203  0.20267029  0.61100746  1
  Al  Al4  1  0.44571019  0.09915750  0.32287850  1
  Al  Al5  1  0.56547436  0.20015829  0.06914133  1
  Al  Al6  1  0.10162028  0.09748723  0.88679503  1
  Al  Al7  1  0.21611915  0.21053889  0.64691083  1
  Al  Al8  1  0.78153057  0.10276049  0.31921946  1
  Al  Al9  1  0.44876665  0.09653801  0.82642761  1
  Al  Al10  1  0.56472356  0.19060242  0.56945573  1
  Al  Al11  1  0.10957213  0.42721609  0.39473294  1
  Al  Al12  1  0.22511681  0.53589504  0.14766908  1
  Al  Al13  1  0.78103203  0.42168919  0.88441500  1
  Al  Al14  1  0.89086935  0.54660968  0.64609719  1
  Al  Al15  1  0.44233649  0.43448852  0.39450544  1
  Al  Al16  1  0.55935439  0.53092137  0.14266184  1
  Al  Al17  1  0.11015376  0.43035059  0.89539424  1
  Al  Al18  1  0.21659502  0.54303595  0.64245286  1
  Al  Al19  1  0.77526267  0.43173333  0.40070692  1
  Al  Al20  1  0.89141747  0.52891713  0.14612390  1
  Al  Al21  1  0.44041184  0.43483744  0.89181339  1
  Al  Al22  1  0.55391061  0.54145345  0.64764255  1
  Al  Al23  1  0.10158746  0.76742784  0.38624013  1
  Al  Al24  1  0.21613714  0.87541674  0.14566605  1
  Al  Al25  1  0.77658288  0.75966113  0.90085915  1
  Al  Al26  1  0.44278248  0.76130188  0.39489826  1
  Al  Al27  1  0.55852926  0.86225107  0.14597934  1
  Al  Al28  1  0.11338216  0.76011866  0.89997903  1
  Al  Al29  1  0.21591047  0.87469055  0.64572131  1
  Al  Al30  1  0.78069404  0.76464117  0.38554054  1
  Al  Al31  1  0.89255805  0.87178893  0.11296363  1
  Al  Al32  1  0.44369694  0.76325417  0.89496506  1
  Al  Al33  1  0.56273209  0.86732358  0.64051153  1
  B  B34  1  0.88633918  0.20771177  0.10065525  1
  B  B35  1  0.88799858  0.87138030  0.60069248  1
  N  N36  1  0.21340872  0.20904881  0.32995152  1
  N  N37  1  0.07839158  0.10873391  0.08284580  1
  N  N38  1  0.88868796  0.20794097  0.81579477  1
  N  N39  1  0.79260567  0.05562198  0.62573391  1
  N  N40  1  0.56067208  0.20070779  0.38128132  1
  N  N41  1  0.44861878  0.09493645  0.12859422  1
  N  N42  1  0.21623067  0.20877237  0.83898040  1
  N  N43  1  0.12267760  0.08986728  0.58618605  1
  N  N44  1  0.88485447  0.20392690  0.39449785  1
  N  N45  1  0.79103727  0.11882244  0.12685997  1
  N  N46  1  0.56263316  0.20131730  0.88064133  1
  N  N47  1  0.44594533  0.09752050  0.63255247  1
  N  N48  1  0.22135603  0.53924173  0.33623812  1
  N  N49  1  0.11121358  0.42924575  0.08294758  1
  N  N50  1  0.88932198  0.54084450  0.83387258  1
  N  N51  1  0.77260457  0.44335867  0.58824901  1
  N  N52  1  0.55704346  0.53866964  0.33042324  1
  N  N53  1  0.44197434  0.43114159  0.08224266  1
  N  N54  1  0.22040057  0.54120666  0.83003787  1
  N  N55  1  0.11067763  0.42851794  0.58256317  1
  N  N56  1  0.88815714  0.53783832  0.33396932  1
  N  N57  1  0.79349129  0.39718616  0.08188931  1
  N  N58  1  0.55508887  0.54083647  0.83539537  1
  N  N59  1  0.44339759  0.43200183  0.58485526  1
  N  N60  1  0.22064009  0.87414950  0.33372208  1
  N  N61  1  0.12332040  0.75274381  0.08694752  1
  N  N62  1  0.88619520  0.87785249  0.89334240  1
  N  N63  1  0.79407404  0.77532543  0.58115564  1
  N  N64  1  0.55679861  0.86737708  0.33737778  1
  N  N65  1  0.44213649  0.76091013  0.08358130  1
  N  N66  1  0.22125057  0.87200274  0.83388846  1
  N  N67  1  0.07972295  0.77742190  0.58311845  1
  N  N68  1  0.88825662  0.87088943  0.31631020  1
  N  N69  1  0.77538911  0.74937015  0.08767676  1
  N  N70  1  0.56145061  0.86395120  0.83153676  1
  N  N71  1  0.44159582  0.76160162  0.58334748  1
