# generated using pymatgen
data_Al17BN18
_symmetry_space_group_name_H-M   'P 1'
_cell_length_a   9.30343293
_cell_length_b   9.32546569
_cell_length_c   10.12409612
_cell_angle_alpha   89.98396924
_cell_angle_beta   89.72931663
_cell_angle_gamma   59.90407450
_symmetry_Int_Tables_number   1
_chemical_formula_structural   Al17BN18
_chemical_formula_sum   'Al34 B2 N36'
_cell_volume   759.93060098
_cell_formula_units_Z   2
loop_
 _symmetry_equiv_pos_site_id
 _symmetry_equiv_pos_as_xyz
  1  'x, y, z'
loop_
 _atom_site_type_symbol
 _atom_site_label
 _atom_site_symmetry_multiplicity
 _atom_site_fract_x
 _atom_site_fract_y
 _atom_site_fract_z
 _atom_site_occupancy
  Al  Al0  1  0.11243439  0.09329631  0.40434284  1
  Al  Al1  1  0.21632000  0.20723348  0.14706066  1
  Al  Al2  1  0.78067532  0.08346677  0.82364754  1
  Al  Al3  1  0.89229879  0.20283503  0.61718662  1
  Al  Al4  1  0.44002784  0.09112328  0.39586428  1
  Al  Al5  1  0.56792661  0.20438950  0.07670911  1
  Al  Al6  1  0.10145392  0.09788590  0.89076154  1
  Al  Al7  1  0.22471201  0.20558118  0.65237396  1
  Al  Al8  1  0.78067217  0.10234159  0.32355724  1
  Al  Al9  1  0.44289092  0.09002202  0.89773464  1
  Al  Al10  1  0.56796630  0.19476620  0.57681225  1
  Al  Al11  1  0.11091189  0.42593776  0.39922855  1
  Al  Al12  1  0.22457574  0.53646421  0.15212534  1
  Al  Al13  1  0.78090851  0.42167550  0.88934874  1
  Al  Al14  1  0.89167761  0.54591329  0.65003779  1
  Al  Al15  1  0.44305158  0.43343171  0.39691827  1
  Al  Al16  1  0.55936950  0.53334381  0.14678748  1
  Al  Al17  1  0.11085325  0.42968142  0.89921753  1
  Al  Al18  1  0.21617656  0.54327313  0.64664633  1
  Al  Al19  1  0.77587864  0.43079230  0.40496192  1
  Al  Al20  1  0.89160874  0.52916461  0.15003765  1
  Al  Al21  1  0.44004236  0.43523498  0.89477577  1
  Al  Al22  1  0.55446678  0.54267615  0.65179542  1
  Al  Al23  1  0.10139027  0.76726790  0.39061004  1
  Al  Al24  1  0.21602105  0.87597279  0.14980782  1
  Al  Al25  1  0.77567829  0.75993462  0.90509381  1
  Al  Al26  1  0.44325080  0.76010687  0.39919275  1
  Al  Al27  1  0.55426959  0.86988751  0.15212327  1
  Al  Al28  1  0.11241924  0.76078423  0.90426196  1
  Al  Al29  1  0.21610088  0.87464400  0.64978632  1
  Al  Al30  1  0.78090003  0.76400044  0.38935111  1
  Al  Al31  1  0.89214719  0.87162702  0.11694750  1
  Al  Al32  1  0.44317449  0.76325574  0.89918421  1
  Al  Al33  1  0.55943400  0.87416815  0.64710359  1
  B  B34  1  0.88806553  0.20801978  0.10554562  1
  B  B35  1  0.88799012  0.87075364  0.60550488  1
  N  N36  1  0.21954219  0.20478245  0.33500141  1
  N  N37  1  0.07975298  0.10971410  0.08798803  1
  N  N38  1  0.88805399  0.20792036  0.82088182  1
  N  N39  1  0.79303451  0.05526493  0.63092253  1
  N  N40  1  0.56066176  0.20198944  0.38162618  1
  N  N41  1  0.44368978  0.09028378  0.08988231  1
  N  N42  1  0.22104304  0.20606907  0.84125766  1
  N  N43  1  0.12323555  0.09035939  0.59169531  1
  N  N44  1  0.88486143  0.20337216  0.39820141  1
  N  N45  1  0.79304525  0.11849831  0.13079468  1
  N  N46  1  0.56058807  0.20373924  0.88153321  1
  N  N47  1  0.44193155  0.09183729  0.58735684  1
  N  N48  1  0.22095734  0.53943408  0.34107750  1
  N  N49  1  0.11264313  0.42765473  0.08808022  1
  N  N50  1  0.88895121  0.54080014  0.83874128  1
  N  N51  1  0.77343266  0.44267534  0.59290304  1
  N  N52  1  0.55749062  0.53882782  0.33498738  1
  N  N53  1  0.44181812  0.43323854  0.08711454  1
  N  N54  1  0.21926918  0.54230335  0.83464288  1
  N  N55  1  0.11269319  0.42631635  0.58806711  1
  N  N56  1  0.88904028  0.53677074  0.33872544  1
  N  N57  1  0.79377361  0.39758286  0.08663842  1
  N  N58  1  0.55506601  0.54175382  0.84005983  1
  N  N59  1  0.44372323  0.43295631  0.58976938  1
  N  N60  1  0.22061144  0.87366115  0.33865486  1
  N  N61  1  0.12312463  0.75325783  0.09160318  1
  N  N62  1  0.88480460  0.87819535  0.89830543  1
  N  N63  1  0.79374735  0.77547023  0.58670788  1
  N  N64  1  0.55498677  0.86989635  0.34033231  1
  N  N65  1  0.44236659  0.76232448  0.08854776  1
  N  N66  1  0.22055702  0.87226367  0.83862494  1
  N  N67  1  0.07965316  0.77739640  0.58780130  1
  N  N68  1  0.88802928  0.87052441  0.32072415  1
  N  N69  1  0.77315704  0.75074595  0.09303345  1
  N  N70  1  0.55729884  0.87045064  0.83521684  1
  N  N71  1  0.44248620  0.76227515  0.58854993  1
