# generated using pymatgen
data_Al17BN18
_symmetry_space_group_name_H-M   'P 1'
_cell_length_a   9.28895362
_cell_length_b   9.33120309
_cell_length_c   10.27968135
_cell_angle_alpha   89.84744478
_cell_angle_beta   89.58540472
_cell_angle_gamma   59.91763404
_symmetry_Int_Tables_number   1
_chemical_formula_structural   Al17BN18
_chemical_formula_sum   'Al34 B2 N36'
_cell_volume   770.97807653
_cell_formula_units_Z   2
loop_
 _symmetry_equiv_pos_site_id
 _symmetry_equiv_pos_as_xyz
  1  'x, y, z'
loop_
 _atom_site_type_symbol
 _atom_site_label
 _atom_site_symmetry_multiplicity
 _atom_site_fract_x
 _atom_site_fract_y
 _atom_site_fract_z
 _atom_site_occupancy
  Al  Al0  1  0.11403131  0.09291020  0.39720658  1
  Al  Al1  1  0.21130153  0.20891733  0.13939635  1
  Al  Al2  1  0.78226231  0.08320431  0.81656769  1
  Al  Al3  1  0.89115851  0.20308898  0.61146959  1
  Al  Al4  1  0.45066726  0.09245073  0.31885355  1
  Al  Al5  1  0.56023061  0.20941369  0.06575910  1
  Al  Al6  1  0.10389573  0.09681281  0.88361195  1
  Al  Al7  1  0.21877078  0.20893644  0.64233704  1
  Al  Al8  1  0.78207509  0.10295149  0.31394007  1
  Al  Al9  1  0.45296807  0.09032116  0.81911760  1
  Al  Al10  1  0.56386347  0.19615802  0.56616221  1
  Al  Al11  1  0.10912488  0.42735553  0.39168654  1
  Al  Al12  1  0.21660026  0.53978148  0.14576918  1
  Al  Al13  1  0.78418855  0.41841092  0.87893554  1
  Al  Al14  1  0.88883068  0.54940112  0.64518004  1
  Al  Al15  1  0.45046128  0.42472672  0.32315238  1
  Al  Al16  1  0.54884577  0.53788158  0.06939444  1
  Al  Al17  1  0.11497372  0.42657244  0.89099319  1
  Al  Al18  1  0.20902373  0.54714910  0.63720158  1
  Al  Al19  1  0.78350988  0.42755335  0.39834627  1
  Al  Al20  1  0.89336972  0.51841256  0.13571177  1
  Al  Al21  1  0.45080289  0.42447982  0.81593249  1
  Al  Al22  1  0.54745029  0.54598113  0.57066198  1
  Al  Al23  1  0.09793601  0.76803764  0.38679342  1
  Al  Al24  1  0.20763471  0.88002592  0.14510792  1
  Al  Al25  1  0.78265765  0.75838601  0.88788645  1
  Al  Al26  1  0.44753020  0.75849127  0.32162520  1
  Al  Al27  1  0.54422758  0.87561530  0.06981483  1
  Al  Al28  1  0.11796369  0.75774357  0.89680299  1
  Al  Al29  1  0.20925905  0.87825271  0.64140335  1
  Al  Al30  1  0.77426784  0.76320035  0.31100046  1
  Al  Al31  1  0.89353371  0.87780974  0.10179628  1
  Al  Al32  1  0.45014503  0.75915723  0.81756247  1
  Al  Al33  1  0.56514882  0.87282641  0.56775449  1
  B  B34  1  0.88600173  0.20778772  0.09556417  1
  B  B35  1  0.88443132  0.87054598  0.60429547  1
  N  N36  1  0.21567155  0.20772254  0.32671512  1
  N  N37  1  0.08032425  0.10840398  0.07828572  1
  N  N38  1  0.88947378  0.20682119  0.81258380  1
  N  N39  1  0.79264394  0.05833179  0.62598051  1
  N  N40  1  0.55892985  0.20305573  0.38033879  1
  N  N41  1  0.45213775  0.09292718  0.12964959  1
  N  N42  1  0.21808279  0.20738883  0.83177937  1
  N  N43  1  0.12316742  0.09083472  0.58089868  1
  N  N44  1  0.88580623  0.20301502  0.38706127  1
  N  N45  1  0.79073040  0.11977059  0.12080121  1
  N  N46  1  0.55779736  0.20586260  0.88016487  1
  N  N47  1  0.45257492  0.09120492  0.63127347  1
  N  N48  1  0.21431800  0.54287176  0.33393510  1
  N  N49  1  0.11434458  0.42578127  0.07635673  1
  N  N50  1  0.88982824  0.53874267  0.83384053  1
  N  N51  1  0.77918080  0.43979176  0.58672566  1
  N  N52  1  0.54858132  0.54301727  0.38364475  1
  N  N53  1  0.45028447  0.42259908  0.13497019  1
  N  N54  1  0.21490747  0.54400185  0.82499697  1
  N  N55  1  0.11029793  0.42752799  0.57774060  1
  N  N56  1  0.88984182  0.53150121  0.32145538  1
  N  N57  1  0.79565600  0.39378995  0.07433839  1
  N  N58  1  0.54902490  0.54257680  0.88283380  1
  N  N59  1  0.45170667  0.42198482  0.62851837  1
  N  N60  1  0.21308841  0.87698367  0.33162331  1
  N  N61  1  0.12694677  0.75115696  0.08020972  1
  N  N62  1  0.88549581  0.88039523  0.89836436  1
  N  N63  1  0.79614288  0.77715312  0.60874386  1
  N  N64  1  0.55614680  0.87161282  0.37943221  1
  N  N65  1  0.44659102  0.75825769  0.13331377  1
  N  N66  1  0.21496197  0.87529546  0.82881774  1
  N  N67  1  0.08007286  0.77803412  0.57934043  1
  N  N68  1  0.88978088  0.87356676  0.30761089  1
  N  N69  1  0.77482557  0.75150289  0.10397042  1
  N  N70  1  0.54986231  0.87431969  0.88485057  1
  N  N71  1  0.44936727  0.76257563  0.63060856  1
