# generated using pymatgen
data_Al17BN18
_symmetry_space_group_name_H-M   'P 1'
_cell_length_a   9.30292133
_cell_length_b   9.32678911
_cell_length_c   10.17025589
_cell_angle_alpha   89.99999936
_cell_angle_beta   89.49346996
_cell_angle_gamma   59.91509136
_symmetry_Int_Tables_number   1
_chemical_formula_structural   Al17BN18
_chemical_formula_sum   'Al34 B2 N36'
_cell_volume   763.51774013
_cell_formula_units_Z   2
loop_
 _symmetry_equiv_pos_site_id
 _symmetry_equiv_pos_as_xyz
  1  'x, y, z'
loop_
 _atom_site_type_symbol
 _atom_site_label
 _atom_site_symmetry_multiplicity
 _atom_site_fract_x
 _atom_site_fract_y
 _atom_site_fract_z
 _atom_site_occupancy
  Al  Al0  1  0.11017247  0.09256765  0.39440699  1
  Al  Al1  1  0.22095515  0.20841883  0.07001938  1
  Al  Al2  1  0.77966377  0.08541639  0.81749665  1
  Al  Al3  1  0.88911322  0.20308479  0.60137078  1
  Al  Al4  1  0.44700992  0.09382769  0.31602511  1
  Al  Al5  1  0.56271367  0.20725567  0.06460841  1
  Al  Al6  1  0.09704629  0.09689177  0.88281663  1
  Al  Al7  1  0.22942640  0.20807867  0.56846343  1
  Al  Al8  1  0.77966439  0.10158470  0.31749696  1
  Al  Al9  1  0.44403967  0.09369764  0.81802763  1
  Al  Al10  1  0.56271380  0.19669790  0.56460823  1
  Al  Al11  1  0.11228176  0.42994932  0.31753296  1
  Al  Al12  1  0.22942585  0.52916339  0.06846391  1
  Al  Al13  1  0.77586490  0.43164469  0.81047862  1
  Al  Al14  1  0.89208707  0.54500462  0.56560323  1
  Al  Al15  1  0.44404010  0.42892896  0.31802762  1
  Al  Al16  1  0.55919954  0.53368852  0.06839377  1
  Al  Al17  1  0.11228215  0.42443573  0.81753295  1
  Al  Al18  1  0.22095528  0.53729374  0.57001967  1
  Al  Al19  1  0.78285965  0.42203661  0.32384943  1
  Al  Al20  1  0.89208712  0.52957534  0.06560294  1
  Al  Al21  1  0.44701058  0.42582851  0.81602535  1
  Al  Al22  1  0.55543721  0.54170689  0.56280759  1
  Al  Al23  1  0.09704641  0.77272730  0.38281614  1
  Al  Al24  1  0.20832919  0.88099391  0.14089394  1
  Al  Al25  1  0.78285961  0.76177034  0.82384925  1
  Al  Al26  1  0.44918198  0.76053979  0.31744704  1
  Al  Al27  1  0.55543652  0.86952253  0.06280748  1
  Al  Al28  1  0.11017317  0.76392589  0.89440677  1
  Al  Al29  1  0.20832966  0.87734420  0.64089379  1
  Al  Al30  1  0.77586368  0.75915628  0.31047833  1
  Al  Al31  1  0.88911211  0.87446932  0.10137037  1
  Al  Al32  1  0.44918308  0.75694399  0.81744665  1
  Al  Al33  1  0.55919942  0.87377902  0.56839359  1
  B  B34  1  0.88626274  0.20882396  0.10641931  1
  B  B35  1  0.88626282  0.87158034  0.60641899  1
  N  N36  1  0.22611378  0.20981717  0.37656585  1
  N  N37  1  0.07537397  0.11102152  0.08156067  1
  N  N38  1  0.88799870  0.20436959  0.81522959  1
  N  N39  1  0.78986385  0.05798651  0.62227650  1
  N  N40  1  0.55667723  0.20559300  0.37688706  1
  N  N41  1  0.44872876  0.09254533  0.12660931  1
  N  N42  1  0.22351899  0.20436671  0.88111825  1
  N  N43  1  0.12009254  0.08914657  0.58203538  1
  N  N44  1  0.88003941  0.20984139  0.39154857  1
  N  N45  1  0.78986367  0.11881666  0.12227678  1
  N  N46  1  0.55667712  0.20439612  0.87688722  1
  N  N47  1  0.44694831  0.09438748  0.63011000  1
  N  N48  1  0.22351963  0.53878027  0.38111846  1
  N  N49  1  0.11174891  0.42744855  0.13026499  1
  N  N50  1  0.88938492  0.53633156  0.87751159  1
  N  N51  1  0.77316464  0.44238716  0.62317321  1
  N  N52  1  0.55540377  0.54035936  0.37490631  1
  N  N53  1  0.44694805  0.42533149  0.13011006  1
  N  N54  1  0.22611443  0.53073543  0.87656621  1
  N  N55  1  0.11174914  0.42747020  0.63026499  1
  N  N56  1  0.88938470  0.54094999  0.37751187  1
  N  N57  1  0.79410349  0.39857004  0.12682072  1
  N  N58  1  0.55636022  0.53736879  0.88045187  1
  N  N59  1  0.44872901  0.42539267  0.62660957  1
  N  N60  1  0.21479976  0.87780229  0.32891216  1
  N  N61  1  0.12009166  0.75742914  0.08203532  1
  N  N62  1  0.88003980  0.87678508  0.89154852  1
  N  N63  1  0.79410343  0.77399345  0.62682057  1
  N  N64  1  0.55635930  0.87293778  0.38045172  1
  N  N65  1  0.44709356  0.75968447  0.12663009  1
  N  N66  1  0.21480060  0.87406392  0.82891200  1
  N  N67  1  0.07537409  0.78027186  0.58156046  1
  N  N68  1  0.88799850  0.87429677  0.31522953  1
  N  N69  1  0.77316390  0.75111490  0.12317294  1
  N  N70  1  0.55540381  0.87090350  0.87490618  1
  N  N71  1  0.44709416  0.75988821  0.62662985  1
