# generated using pymatgen
data_Al17BN18
_symmetry_space_group_name_H-M   'P 1'
_cell_length_a   9.29183049
_cell_length_b   9.32247475
_cell_length_c   10.28743138
_cell_angle_alpha   89.91035175
_cell_angle_beta   89.65817699
_cell_angle_gamma   59.91966180
_symmetry_Int_Tables_number   1
_chemical_formula_structural   Al17BN18
_chemical_formula_sum   'Al34 B2 N36'
_cell_volume   771.09805936
_cell_formula_units_Z   2
loop_
 _symmetry_equiv_pos_site_id
 _symmetry_equiv_pos_as_xyz
  1  'x, y, z'
loop_
 _atom_site_type_symbol
 _atom_site_label
 _atom_site_symmetry_multiplicity
 _atom_site_fract_x
 _atom_site_fract_y
 _atom_site_fract_z
 _atom_site_occupancy
  Al  Al0  1  0.11433310  0.09281234  0.39713432  1
  Al  Al1  1  0.21022608  0.20980080  0.13874781  1
  Al  Al2  1  0.78268046  0.08205471  0.81588479  1
  Al  Al3  1  0.89142025  0.20301762  0.61195151  1
  Al  Al4  1  0.45022281  0.09283134  0.31753799  1
  Al  Al5  1  0.56076385  0.20898232  0.06535873  1
  Al  Al6  1  0.10355998  0.09687815  0.88369472  1
  Al  Al7  1  0.21837681  0.20935631  0.64326794  1
  Al  Al8  1  0.78205643  0.10303690  0.31338648  1
  Al  Al9  1  0.45284207  0.09015683  0.82015770  1
  Al  Al10  1  0.56358118  0.19605842  0.56594941  1
  Al  Al11  1  0.11062033  0.42622333  0.39199313  1
  Al  Al12  1  0.21674170  0.53949247  0.14516866  1
  Al  Al13  1  0.78467724  0.41924322  0.87825624  1
  Al  Al14  1  0.88828656  0.55062654  0.64339211  1
  Al  Al15  1  0.45088518  0.42433499  0.32255915  1
  Al  Al16  1  0.54962425  0.53748296  0.06900894  1
  Al  Al17  1  0.11366817  0.42779229  0.89077555  1
  Al  Al18  1  0.20955387  0.54683673  0.63749118  1
  Al  Al19  1  0.78344397  0.42667105  0.39857763  1
  Al  Al20  1  0.89090924  0.52331072  0.13818685  1
  Al  Al21  1  0.45121001  0.42423671  0.81601966  1
  Al  Al22  1  0.54744702  0.54578339  0.57062657  1
  Al  Al23  1  0.10036247  0.76740619  0.38571427  1
  Al  Al24  1  0.20746137  0.88021211  0.14429853  1
  Al  Al25  1  0.78341198  0.75611543  0.89892877  1
  Al  Al26  1  0.44772616  0.75801127  0.32035490  1
  Al  Al27  1  0.54466914  0.87538330  0.07085886  1
  Al  Al28  1  0.11710293  0.75815305  0.89673411  1
  Al  Al29  1  0.20902078  0.87835995  0.64201359  1
  Al  Al30  1  0.77961794  0.76214518  0.34357122  1
  Al  Al31  1  0.89266080  0.87562235  0.10433539  1
  Al  Al32  1  0.45027672  0.75938496  0.81820630  1
  Al  Al33  1  0.55984270  0.87516382  0.56774885  1
  B  B34  1  0.88608060  0.20805027  0.09560428  1
  B  B35  1  0.88532664  0.87082030  0.59900450  1
  N  N36  1  0.21535796  0.20778091  0.32616482  1
  N  N37  1  0.08012364  0.10847746  0.07796565  1
  N  N38  1  0.88918831  0.20691123  0.81202039  1
  N  N39  1  0.79289321  0.05713098  0.62462870  1
  N  N40  1  0.55914851  0.20250654  0.38017400  1
  N  N41  1  0.45143796  0.09363478  0.12933249  1
  N  N42  1  0.21750401  0.20789998  0.83218038  1
  N  N43  1  0.12337147  0.09080617  0.58082685  1
  N  N44  1  0.88626643  0.20239132  0.38680768  1
  N  N45  1  0.79110942  0.11920879  0.12114479  1
  N  N46  1  0.55840661  0.20557025  0.87993650  1
  N  N47  1  0.45228947  0.09174656  0.63228491  1
  N  N48  1  0.21492545  0.54225423  0.33352675  1
  N  N49  1  0.11264057  0.42695293  0.07656554  1
  N  N50  1  0.88887026  0.54114484  0.83093313  1
  N  N51  1  0.77907245  0.43968115  0.58640709  1
  N  N52  1  0.54866615  0.54290974  0.38359061  1
  N  N53  1  0.45055068  0.42250109  0.13465071  1
  N  N54  1  0.21549695  0.54373811  0.82497966  1
  N  N55  1  0.11071073  0.42744168  0.57774213  1
  N  N56  1  0.88954151  0.53244606  0.32378536  1
  N  N57  1  0.79621477  0.39440567  0.07471169  1
  N  N58  1  0.54954249  0.54233038  0.88269467  1
  N  N59  1  0.45195139  0.42176239  0.62846281  1
  N  N60  1  0.21343939  0.87713706  0.33083920  1
  N  N61  1  0.12607259  0.75143082  0.08035844  1
  N  N62  1  0.88609150  0.87938049  0.89526295  1
  N  N63  1  0.79726118  0.77542815  0.58817492  1
  N  N64  1  0.55188343  0.87374044  0.38017807  1
  N  N65  1  0.44638785  0.75807258  0.13299930  1
  N  N66  1  0.21496381  0.87517478  0.82893613  1
  N  N67  1  0.08058174  0.77795276  0.57829944  1
  N  N68  1  0.89026295  0.87262047  0.30762882  1
  N  N69  1  0.77645970  0.74980865  0.09406401  1
  N  N70  1  0.54952631  0.87459326  0.88471072  1
  N  N71  1  0.44883704  0.76230936  0.63109938  1
