# generated using pymatgen
data_Al17BN18
_symmetry_space_group_name_H-M   'P 1'
_cell_length_a   9.30378082
_cell_length_b   9.30737125
_cell_length_c   10.08225997
_cell_angle_alpha   90.01458284
_cell_angle_beta   89.68066218
_cell_angle_gamma   59.99877405
_symmetry_Int_Tables_number   1
_chemical_formula_structural   Al17BN18
_chemical_formula_sum   'Al34 B2 N36'
_cell_volume   756.06692860
_cell_formula_units_Z   2
loop_
 _symmetry_equiv_pos_site_id
 _symmetry_equiv_pos_as_xyz
  1  'x, y, z'
loop_
 _atom_site_type_symbol
 _atom_site_label
 _atom_site_symmetry_multiplicity
 _atom_site_fract_x
 _atom_site_fract_y
 _atom_site_fract_z
 _atom_site_occupancy
  Al  Al0  1  0.11496385  0.09339875  0.40475644  1
  Al  Al1  1  0.21480958  0.20776377  0.14782617  1
  Al  Al2  1  0.78695307  0.08225681  0.82301935  1
  Al  Al3  1  0.89092021  0.20261873  0.61404319  1
  Al  Al4  1  0.44344442  0.09534977  0.39775900  1
  Al  Al5  1  0.55425574  0.21041531  0.14551635  1
  Al  Al6  1  0.10420345  0.09673149  0.89264259  1
  Al  Al7  1  0.22328138  0.20565622  0.65292140  1
  Al  Al8  1  0.78386693  0.10091215  0.33781737  1
  Al  Al9  1  0.44670253  0.09264847  0.89915235  1
  Al  Al10  1  0.55305513  0.20273040  0.64362556  1
  Al  Al11  1  0.11013766  0.42759035  0.39982710  1
  Al  Al12  1  0.22222783  0.53913519  0.15161318  1
  Al  Al13  1  0.78123849  0.41981920  0.89170258  1
  Al  Al14  1  0.89067461  0.54554520  0.65305815  1
  Al  Al15  1  0.44455862  0.42902941  0.39909179  1
  Al  Al16  1  0.55957709  0.53233335  0.14766435  1
  Al  Al17  1  0.11169501  0.42818031  0.90022599  1
  Al  Al18  1  0.21544080  0.54382515  0.64909064  1
  Al  Al19  1  0.77479129  0.43403017  0.40552555  1
  Al  Al20  1  0.89048122  0.53191642  0.14986422  1
  Al  Al21  1  0.44541503  0.42581409  0.89766754  1
  Al  Al22  1  0.55398767  0.54209905  0.65273520  1
  Al  Al23  1  0.10383920  0.76637610  0.39931113  1
  Al  Al24  1  0.21500449  0.87617687  0.14956527  1
  Al  Al25  1  0.77806742  0.75975126  0.90046652  1
  Al  Al26  1  0.44314927  0.76113080  0.39932732  1
  Al  Al27  1  0.55550634  0.87115740  0.15176077  1
  Al  Al28  1  0.11222769  0.75849084  0.89972982  1
  Al  Al29  1  0.21655698  0.87411202  0.65221914  1
  Al  Al30  1  0.77993746  0.76502884  0.39844368  1
  Al  Al31  1  0.89300083  0.87111738  0.13912019  1
  Al  Al32  1  0.44436646  0.76166234  0.90019443  1
  Al  Al33  1  0.55888322  0.87418202  0.64841109  1
  B  B34  1  0.88755030  0.20549579  0.10735889  1
  B  B35  1  0.88734808  0.87127869  0.62598642  1
  N  N36  1  0.22111972  0.20551460  0.33641445  1
  N  N37  1  0.08005435  0.10933847  0.08983398  1
  N  N38  1  0.89119526  0.20638693  0.82368842  1
  N  N39  1  0.78994441  0.06129116  0.62471422  1
  N  N40  1  0.55122840  0.20826836  0.33671428  1
  N  N41  1  0.44432292  0.09352441  0.08925053  1
  N  N42  1  0.22328441  0.20453074  0.84284173  1
  N  N43  1  0.12318796  0.08957822  0.59261924  1
  N  N44  1  0.88726716  0.20678263  0.39861942  1
  N  N45  1  0.79486130  0.11364534  0.13079929  1
  N  N46  1  0.55381285  0.20563783  0.83624763  1
  N  N47  1  0.44280862  0.09469264  0.58643312  1
  N  N48  1  0.22093788  0.54123690  0.34193435  1
  N  N49  1  0.11160136  0.42844668  0.08974658  1
  N  N50  1  0.88958697  0.53736100  0.84194316  1
  N  N51  1  0.77252038  0.44287289  0.59416679  1
  N  N52  1  0.55657267  0.53876636  0.33662682  1
  N  N53  1  0.44293108  0.42867722  0.08692763  1
  N  N54  1  0.22409391  0.53716278  0.83743483  1
  N  N55  1  0.11143790  0.42697685  0.58952310  1
  N  N56  1  0.88771682  0.54041564  0.33940397  1
  N  N57  1  0.79320922  0.39701465  0.08948516  1
  N  N58  1  0.55560024  0.53892489  0.84222530  1
  N  N59  1  0.44407466  0.42961647  0.58870483  1
  N  N60  1  0.22021571  0.87350590  0.33913147  1
  N  N61  1  0.11569242  0.75754451  0.08856266  1
  N  N62  1  0.89427117  0.86162623  0.85131071  1
  N  N63  1  0.79242303  0.77474323  0.59244911  1
  N  N64  1  0.55613438  0.87173190  0.34157172  1
  N  N65  1  0.44340313  0.76150826  0.09055167  1
  N  N66  1  0.22251703  0.87113915  0.84125548  1
  N  N67  1  0.08201215  0.77628258  0.59289202  1
  N  N68  1  0.88933412  0.87049325  0.33023803  1
  N  N69  1  0.77634891  0.75753141  0.09043121  1
  N  N70  1  0.55661455  0.87088306  0.83757522  1
  N  N71  1  0.44227991  0.76221845  0.58964259  1
