# generated using pymatgen
data_Al17BN18
_symmetry_space_group_name_H-M   'P 1'
_cell_length_a   9.28703547
_cell_length_b   9.30708192
_cell_length_c   10.31582133
_cell_angle_alpha   89.99995165
_cell_angle_beta   89.77359599
_cell_angle_gamma   59.92832620
_symmetry_Int_Tables_number   1
_chemical_formula_structural   Al17BN18
_chemical_formula_sum   'Al34 B2 N36'
_cell_volume   771.62527089
_cell_formula_units_Z   2
loop_
 _symmetry_equiv_pos_site_id
 _symmetry_equiv_pos_as_xyz
  1  'x, y, z'
loop_
 _atom_site_type_symbol
 _atom_site_label
 _atom_site_symmetry_multiplicity
 _atom_site_fract_x
 _atom_site_fract_y
 _atom_site_fract_z
 _atom_site_occupancy
  Al  Al0  1  0.11543160  0.09218937  0.39667587  1
  Al  Al1  1  0.20989274  0.21011910  0.13821441  1
  Al  Al2  1  0.78257762  0.08256686  0.81419467  1
  Al  Al3  1  0.89150352  0.20349700  0.61077606  1
  Al  Al4  1  0.45167132  0.09068928  0.31629028  1
  Al  Al5  1  0.56224842  0.20763307  0.06517155  1
  Al  Al6  1  0.10268717  0.09742882  0.88394662  1
  Al  Al7  1  0.21715112  0.21058629  0.64446413  1
  Al  Al8  1  0.78258473  0.10152170  0.31419660  1
  Al  Al9  1  0.45169023  0.09151236  0.82134268  1
  Al  Al10  1  0.56226566  0.19677807  0.56517250  1
  Al  Al11  1  0.11194288  0.42514140  0.39124634  1
  Al  Al12  1  0.21713747  0.53893676  0.14446428  1
  Al  Al13  1  0.78519562  0.42008733  0.87838918  1
  Al  Al14  1  0.88855847  0.54945467  0.64182357  1
  Al  Al15  1  0.45169570  0.42345450  0.32133826  1
  Al  Al16  1  0.55096899  0.53666824  0.06895454  1
  Al  Al17  1  0.11193714  0.42957751  0.89124374  1
  Al  Al18  1  0.20990748  0.54664394  0.63820446  1
  Al  Al19  1  0.78364359  0.42641553  0.39777042  1
  Al  Al20  1  0.88855298  0.52865995  0.14182221  1
  Al  Al21  1  0.45166913  0.42430164  0.81628767  1
  Al  Al22  1  0.54692532  0.54567640  0.56955493  1
  Al  Al23  1  0.10269871  0.76653840  0.38394534  1
  Al  Al24  1  0.20784476  0.87992797  0.14324794  1
  Al  Al25  1  0.78363262  0.75661922  0.89777617  1
  Al  Al26  1  0.44960088  0.75770631  0.31897575  1
  Al  Al27  1  0.54691193  0.87407457  0.06956535  1
  Al  Al28  1  0.11543038  0.75903834  0.89666830  1
  Al  Al29  1  0.20786093  0.87888724  0.64324127  1
  Al  Al30  1  0.78520945  0.76138136  0.37837733  1
  Al  Al31  1  0.89149497  0.87168259  0.11075400  1
  Al  Al32  1  0.44959484  0.75935807  0.81897753  1
  Al  Al33  1  0.55098902  0.87902307  0.56894882  1
  B  B34  1  0.88683844  0.20728325  0.09620335  1
  B  B35  1  0.88685754  0.87254003  0.59619643  1
  N  N36  1  0.21601526  0.20710155  0.32512735  1
  N  N37  1  0.08035852  0.10808672  0.07745851  1
  N  N38  1  0.88880571  0.20789692  0.81067295  1
  N  N39  1  0.79253213  0.05724922  0.62235180  1
  N  N40  1  0.55918181  0.20189415  0.38002713  1
  N  N41  1  0.45195811  0.09284732  0.12872486  1
  N  N42  1  0.21610850  0.20922361  0.83262197  1
  N  N43  1  0.12390659  0.09066603  0.58039817  1
  N  N44  1  0.88705697  0.20157853  0.38680715  1
  N  N45  1  0.79250937  0.11689844  0.12235384  1
  N  N46  1  0.55917475  0.20558711  0.88002618  1
  N  N47  1  0.45121099  0.09354162  0.63405829  1
  N  N48  1  0.21611232  0.54132466  0.33262351  1
  N  N49  1  0.11092298  0.42794325  0.07701856  1
  N  N50  1  0.88828373  0.54229244  0.82727204  1
  N  N51  1  0.77845761  0.43996208  0.58499294  1
  N  N52  1  0.54866805  0.54264256  0.38304828  1
  N  N53  1  0.45119681  0.42192098  0.13405441  1
  N  N54  1  0.21601038  0.54354239  0.82511755  1
  N  N55  1  0.11093113  0.42779621  0.57702095  1
  N  N56  1  0.88829628  0.53609011  0.32726696  1
  N  N57  1  0.79718827  0.39436578  0.07560550  1
  N  N58  1  0.55011595  0.54223422  0.88321451  1
  N  N59  1  0.45197118  0.42185804  0.62872261  1
  N  N60  1  0.21445344  0.87672934  0.32938794  1
  N  N61  1  0.12389959  0.75209785  0.08039270  1
  N  N62  1  0.88704682  0.87803614  0.88682704  1
  N  N63  1  0.79720711  0.77511070  0.57560090  1
  N  N64  1  0.55013255  0.87430469  0.38320826  1
  N  N65  1  0.44722781  0.75789048  0.13229297  1
  N  N66  1  0.21444966  0.87547866  0.82937865  1
  N  N67  1  0.08037738  0.77821121  0.57745389  1
  N  N68  1  0.88882139  0.86996640  0.31066717  1
  N  N69  1  0.77844626  0.74825968  0.08499805  1
  N  N70  1  0.54865721  0.87535449  0.88305920  1
  N  N71  1  0.44724266  0.76154658  0.63229400  1
