# generated using pymatgen
data_Al17BN18
_symmetry_space_group_name_H-M   'P 1'
_cell_length_a   9.30053337
_cell_length_b   9.29830147
_cell_length_c   9.94035361
_cell_angle_alpha   90.00000228
_cell_angle_beta   90.03195881
_cell_angle_gamma   60.00793913
_symmetry_Int_Tables_number   1
_chemical_formula_structural   Al17BN18
_chemical_formula_sum   'Al34 B2 N36'
_cell_volume   744.52381039
_cell_formula_units_Z   2
loop_
 _symmetry_equiv_pos_site_id
 _symmetry_equiv_pos_as_xyz
  1  'x, y, z'
loop_
 _atom_site_type_symbol
 _atom_site_label
 _atom_site_symmetry_multiplicity
 _atom_site_fract_x
 _atom_site_fract_y
 _atom_site_fract_z
 _atom_site_occupancy
  Al  Al0  1  0.10841647  0.09559598  0.39970394  1
  Al  Al1  1  0.21708884  0.20741590  0.15667941  1
  Al  Al2  1  0.78171718  0.09439687  0.90435605  1
  Al  Al3  1  0.89029765  0.19999696  0.65493777  1
  Al  Al4  1  0.44447265  0.09478873  0.40646225  1
  Al  Al5  1  0.56082012  0.20654377  0.15678926  1
  Al  Al6  1  0.10549941  0.09713595  0.91104978  1
  Al  Al7  1  0.22099912  0.20464090  0.65661109  1
  Al  Al8  1  0.78171719  0.09055306  0.40435598  1
  Al  Al9  1  0.44441234  0.09421308  0.90727447  1
  Al  Al10  1  0.56082062  0.19930280  0.65678914  1
  Al  Al11  1  0.11080202  0.42809976  0.40677315  1
  Al  Al12  1  0.22099898  0.54102681  0.15661104  1
  Al  Al13  1  0.78073836  0.42209701  0.91056135  1
  Al  Al14  1  0.88961413  0.54103091  0.65631834  1
  Al  Al15  1  0.44441226  0.42804118  0.40727452  1
  Al  Al16  1  0.55899947  0.53388232  0.15658834  1
  Al  Al17  1  0.11080184  0.42776445  0.90677325  1
  Al  Al18  1  0.21708907  0.54216189  0.65667952  1
  Al  Al19  1  0.77894072  0.42517759  0.39980391  1
  Al  Al20  1  0.88961369  0.53602170  0.15631833  1
  Al  Al21  1  0.44447235  0.42740503  0.90646230  1
  Al  Al22  1  0.55729307  0.53758087  0.65708146  1
  Al  Al23  1  0.10549958  0.76403081  0.41104977  1
  Al  Al24  1  0.21611475  0.87502427  0.15640490  1
  Al  Al25  1  0.77894086  0.76254840  0.89980378  1
  Al  Al26  1  0.44435531  0.76075515  0.40650098  1
  Al  Al27  1  0.55729334  0.87179269  0.15708141  1
  Al  Al28  1  0.10841622  0.76265393  0.89970397  1
  Al  Al29  1  0.21611506  0.87552810  0.65640497  1
  Al  Al30  1  0.78073895  0.76383114  0.41056145  1
  Al  Al31  1  0.89029718  0.87637241  0.15493781  1
  Al  Al32  1  0.44435521  0.76155682  0.90650090  1
  Al  Al33  1  0.55899997  0.87378503  0.65658830  1
  B  B34  1  0.88899217  0.20472747  0.15925116  1
  B  B35  1  0.88899256  0.87294699  0.65925118  1
  N  N36  1  0.22227493  0.20610386  0.34672196  1
  N  N37  1  0.08588271  0.10691832  0.10520323  1
  N  N38  1  0.88929430  0.20562588  0.84312364  1
  N  N39  1  0.79091048  0.06992223  0.60051279  1
  N  N40  1  0.55745695  0.20512657  0.34868938  1
  N  N41  1  0.44437977  0.09521508  0.09887325  1
  N  N42  1  0.22098220  0.20427470  0.84942563  1
  N  N43  1  0.10940164  0.09547377  0.59180075  1
  N  N44  1  0.88798977  0.20442543  0.32667224  1
  N  N45  1  0.79091009  0.10583444  0.10051286  1
  N  N46  1  0.55745697  0.20408313  0.84868930  1
  N  N47  1  0.44336991  0.09514363  0.59750390  1
  N  N48  1  0.22098226  0.54140936  0.34942560  1
  N  N49  1  0.11100645  0.42874910  0.09753055  1
  N  N50  1  0.88786431  0.53732002  0.84809721  1
  N  N51  1  0.77911574  0.42505114  0.59289869  1
  N  N52  1  0.55501355  0.53894791  0.34683250  1
  N  N53  1  0.44336959  0.42815351  0.09750393  1
  N  N54  1  0.22227462  0.53828757  0.84672210  1
  N  N55  1  0.11100671  0.42691100  0.59753049  1
  N  N56  1  0.88786444  0.54148214  0.34809721  1
  N  N57  1  0.79060106  0.40283226  0.10492385  1
  N  N58  1  0.55785925  0.53773337  0.84942407  1
  N  N59  1  0.44437977  0.42707185  0.59887327  1
  N  N60  1  0.22113391  0.87042419  0.34817039  1
  N  N61  1  0.10940132  0.76179163  0.09180086  1
  N  N62  1  0.88798972  0.87425177  0.82667223  1
  N  N63  1  0.79060155  0.77323301  0.60492389  1
  N  N64  1  0.55785984  0.87107371  0.34942401  1
  N  N65  1  0.44390487  0.76145579  0.09847597  1
  N  N66  1  0.22113376  0.87510844  0.84817044  1
  N  N67  1  0.08588313  0.77386561  0.60520334  1
  N  N68  1  0.88929439  0.87174669  0.34312370  1
  N  N69  1  0.77911568  0.76249981  0.09289857  1
  N  N70  1  0.55501382  0.87270528  0.84683238  1
  N  N71  1  0.44390511  0.76130637  0.59847605  1
