# generated using pymatgen
data_Al17BN18
_symmetry_space_group_name_H-M   'P 1'
_cell_length_a   9.30402845
_cell_length_b   9.30893248
_cell_length_c   10.00086882
_cell_angle_alpha   89.95799200
_cell_angle_beta   89.87909538
_cell_angle_gamma   59.99875679
_symmetry_Int_Tables_number   1
_chemical_formula_structural   Al17BN18
_chemical_formula_sum   'Al34 B2 N36'
_cell_volume   750.12360952
_cell_formula_units_Z   2
loop_
 _symmetry_equiv_pos_site_id
 _symmetry_equiv_pos_as_xyz
  1  'x, y, z'
loop_
 _atom_site_type_symbol
 _atom_site_label
 _atom_site_symmetry_multiplicity
 _atom_site_fract_x
 _atom_site_fract_y
 _atom_site_fract_z
 _atom_site_occupancy
  Al  Al0  1  0.11135635  0.09423310  0.40158438  1
  Al  Al1  1  0.21534732  0.20793634  0.14757032  1
  Al  Al2  1  0.78313115  0.09176654  0.86674395  1
  Al  Al3  1  0.89144027  0.20311194  0.62408267  1
  Al  Al4  1  0.44308385  0.09506046  0.39689543  1
  Al  Al5  1  0.56257910  0.20701224  0.14806362  1
  Al  Al6  1  0.10622413  0.09648160  0.89193509  1
  Al  Al7  1  0.22384870  0.20489474  0.65082944  1
  Al  Al8  1  0.77898527  0.08943235  0.40475596  1
  Al  Al9  1  0.44581997  0.09307323  0.90002382  1
  Al  Al10  1  0.55596489  0.20128135  0.64636939  1
  Al  Al11  1  0.10987328  0.42758801  0.39844800  1
  Al  Al12  1  0.22084907  0.54080034  0.14971502  1
  Al  Al13  1  0.78087279  0.42172329  0.89144593  1
  Al  Al14  1  0.89050115  0.54427570  0.65110188  1
  Al  Al15  1  0.44501803  0.42837995  0.39796130  1
  Al  Al16  1  0.55974197  0.53230280  0.14762750  1
  Al  Al17  1  0.11218283  0.42746181  0.89968452  1
  Al  Al18  1  0.21718088  0.54246704  0.64780406  1
  Al  Al19  1  0.77612123  0.43047301  0.40213438  1
  Al  Al20  1  0.89033065  0.53419312  0.14764538  1
  Al  Al21  1  0.44461574  0.42661144  0.89874416  1
  Al  Al22  1  0.55442440  0.54115014  0.65091793  1
  Al  Al23  1  0.10458173  0.76557254  0.40211839  1
  Al  Al24  1  0.21410364  0.87619373  0.14759945  1
  Al  Al25  1  0.77877223  0.76155527  0.89405146  1
  Al  Al26  1  0.44328780  0.76117713  0.39784541  1
  Al  Al27  1  0.55712463  0.87189335  0.15014015  1
  Al  Al28  1  0.10992019  0.75992788  0.89310118  1
  Al  Al29  1  0.21777934  0.87293811  0.65037377  1
  Al  Al30  1  0.78066317  0.76345656  0.40142152  1
  Al  Al31  1  0.89015362  0.87898618  0.14631849  1
  Al  Al32  1  0.44460092  0.76145349  0.89968643  1
  Al  Al33  1  0.55896407  0.87339723  0.64756126  1
  B  B34  1  0.88739963  0.20402104  0.10293849  1
  B  B35  1  0.88813522  0.86951624  0.65053602  1
  N  N36  1  0.22079793  0.20541739  0.33657685  1
  N  N37  1  0.08028630  0.10947988  0.08875720  1
  N  N38  1  0.89118397  0.20646198  0.82231859  1
  N  N39  1  0.78727324  0.06512642  0.60173205  1
  N  N40  1  0.55714325  0.20475115  0.33956688  1
  N  N41  1  0.44500625  0.09501804  0.09067236  1
  N  N42  1  0.22338609  0.20471454  0.84229675  1
  N  N43  1  0.12139900  0.08993465  0.59158399  1
  N  N44  1  0.88619786  0.20594286  0.38317760  1
  N  N45  1  0.79342591  0.10886025  0.08727309  1
  N  N46  1  0.55430736  0.20525063  0.83734093  1
  N  N47  1  0.44336860  0.09458401  0.58712684  1
  N  N48  1  0.22044999  0.54171087  0.34109692  1
  N  N49  1  0.11138536  0.42862631  0.08935499  1
  N  N50  1  0.89000679  0.53780449  0.84169386  1
  N  N51  1  0.77367013  0.43975201  0.59297340  1
  N  N52  1  0.55597842  0.53931184  0.33684210  1
  N  N53  1  0.44318146  0.42795690  0.08893823  1
  N  N54  1  0.22353976  0.53703612  0.83785050  1
  N  N55  1  0.11152384  0.42656479  0.58912174  1
  N  N56  1  0.88693636  0.54120269  0.33818527  1
  N  N57  1  0.79302680  0.39707824  0.08872273  1
  N  N58  1  0.55551661  0.53871800  0.84197542  1
  N  N59  1  0.44477203  0.42819798  0.58902822  1
  N  N60  1  0.22004211  0.87259178  0.33821985  1
  N  N61  1  0.10944479  0.76119490  0.08407593  1
  N  N62  1  0.89200752  0.86579064  0.81732657  1
  N  N63  1  0.79125308  0.77253596  0.59554291  1
  N  N64  1  0.55739639  0.87108880  0.34109943  1
  N  N65  1  0.44392804  0.76162349  0.09054149  1
  N  N66  1  0.22238856  0.87176616  0.84099466  1
  N  N67  1  0.08632756  0.77344384  0.59560520  1
  N  N68  1  0.88756197  0.87380976  0.33439429  1
  N  N69  1  0.77908941  0.76266839  0.08577790  1
  N  N70  1  0.55564663  0.87196968  0.83808609  1
  N  N71  1  0.44290775  0.76184698  0.58930446  1
