# generated using pymatgen
data_Al17BN18
_symmetry_space_group_name_H-M   'P 1'
_cell_length_a   9.30863364
_cell_length_b   9.31480708
_cell_length_c   10.03599998
_cell_angle_alpha   89.93102757
_cell_angle_beta   89.74466840
_cell_angle_gamma   60.01806847
_symmetry_Int_Tables_number   1
_chemical_formula_structural   Al17BN18
_chemical_formula_sum   'Al34 B2 N36'
_cell_volume   753.74685692
_cell_formula_units_Z   2
loop_
 _symmetry_equiv_pos_site_id
 _symmetry_equiv_pos_as_xyz
  1  'x, y, z'
loop_
 _atom_site_type_symbol
 _atom_site_label
 _atom_site_symmetry_multiplicity
 _atom_site_fract_x
 _atom_site_fract_y
 _atom_site_fract_z
 _atom_site_occupancy
  Al  Al0  1  0.11488529  0.09313143  0.40341105  1
  Al  Al1  1  0.21477250  0.20800786  0.14775776  1
  Al  Al2  1  0.78444454  0.08758299  0.82258258  1
  Al  Al3  1  0.89154660  0.20287957  0.61451402  1
  Al  Al4  1  0.44279592  0.09499108  0.39748795  1
  Al  Al5  1  0.55762009  0.20954437  0.14641878  1
  Al  Al6  1  0.10498978  0.09664366  0.89319816  1
  Al  Al7  1  0.22342218  0.20494933  0.65216454  1
  Al  Al8  1  0.78062638  0.09765551  0.36166047  1
  Al  Al9  1  0.44617924  0.09289960  0.89978234  1
  Al  Al10  1  0.55276712  0.20272060  0.64277051  1
  Al  Al11  1  0.10976169  0.42806934  0.39906419  1
  Al  Al12  1  0.22063738  0.54093887  0.15012181  1
  Al  Al13  1  0.78119326  0.41991273  0.89254147  1
  Al  Al14  1  0.89049485  0.54404850  0.65255956  1
  Al  Al15  1  0.44345954  0.43017789  0.39858563  1
  Al  Al16  1  0.55974426  0.53230944  0.14773180  1
  Al  Al17  1  0.11216364  0.42713257  0.90008872  1
  Al  Al18  1  0.21688540  0.54244791  0.64867155  1
  Al  Al19  1  0.77490231  0.43430281  0.40416117  1
  Al  Al20  1  0.89018514  0.53385292  0.14835320  1
  Al  Al21  1  0.44542671  0.42577022  0.89836717  1
  Al  Al22  1  0.55430747  0.54147192  0.65198656  1
  Al  Al23  1  0.10415006  0.76608778  0.40337567  1
  Al  Al24  1  0.21386601  0.87653467  0.14808590  1
  Al  Al25  1  0.77872908  0.76010475  0.89532899  1
  Al  Al26  1  0.44318879  0.76130438  0.39844491  1
  Al  Al27  1  0.55665619  0.87182458  0.15051648  1
  Al  Al28  1  0.11130954  0.75856866  0.89428275  1
  Al  Al29  1  0.21789962  0.87290309  0.65154471  1
  Al  Al30  1  0.78021877  0.76462806  0.40281676  1
  Al  Al31  1  0.89162505  0.87537086  0.14559991  1
  Al  Al32  1  0.44455626  0.76134475  0.90015879  1
  Al  Al33  1  0.55909348  0.87320592  0.64817854  1
  B  B34  1  0.88672847  0.20443429  0.10735904  1
  B  B35  1  0.89032254  0.86558307  0.65058007  1
  N  N36  1  0.22092583  0.20589597  0.33657824  1
  N  N37  1  0.08019230  0.10957167  0.09001789  1
  N  N38  1  0.89226836  0.20663193  0.82380301  1
  N  N39  1  0.78786562  0.06496964  0.62032106  1
  N  N40  1  0.55130246  0.20837564  0.33843528  1
  N  N41  1  0.44433884  0.09458597  0.09016753  1
  N  N42  1  0.22346909  0.20425524  0.84284761  1
  N  N43  1  0.12335843  0.08880869  0.59216510  1
  N  N44  1  0.88810552  0.20799482  0.39520064  1
  N  N45  1  0.79452998  0.11226381  0.12234095  1
  N  N46  1  0.55344959  0.20547910  0.83696601  1
  N  N47  1  0.44274575  0.09404800  0.58665848  1
  N  N48  1  0.21987713  0.54262773  0.34124565  1
  N  N49  1  0.11134342  0.42873527  0.08974997  1
  N  N50  1  0.89000407  0.53671844  0.84241257  1
  N  N51  1  0.77273718  0.44159011  0.59374890  1
  N  N52  1  0.55618067  0.53915242  0.33690089  1
  N  N53  1  0.44232853  0.42923247  0.08805007  1
  N  N54  1  0.22437728  0.53608046  0.83792112  1
  N  N55  1  0.11154499  0.42642455  0.58941959  1
  N  N56  1  0.88695472  0.54211312  0.33869169  1
  N  N57  1  0.79287737  0.39759950  0.08993507  1
  N  N58  1  0.55567859  0.53868389  0.84233752  1
  N  N59  1  0.44424452  0.42912288  0.58868338  1
  N  N60  1  0.21975416  0.87287420  0.33855676  1
  N  N61  1  0.11029463  0.76078571  0.08421389  1
  N  N62  1  0.89626590  0.85756338  0.81988667  1
  N  N63  1  0.79160204  0.77221602  0.59580302  1
  N  N64  1  0.55733339  0.87139522  0.34125485  1
  N  N65  1  0.44372253  0.76164826  0.09086223  1
  N  N66  1  0.22248645  0.87154953  0.84154574  1
  N  N67  1  0.08645510  0.77316841  0.59581424  1
  N  N68  1  0.88913058  0.87087451  0.33428048  1
  N  N69  1  0.77852994  0.76194247  0.08627387  1
  N  N70  1  0.55598974  0.87157849  0.83816388  1
  N  N71  1  0.44291649  0.76173822  0.58944408  1
