# generated using pymatgen
data_Al17BN18
_symmetry_space_group_name_H-M   'P 1'
_cell_length_a   9.30431220
_cell_length_b   9.31539442
_cell_length_c   10.16791724
_cell_angle_alpha   90.02596060
_cell_angle_beta   89.73223901
_cell_angle_gamma   60.03076276
_symmetry_Int_Tables_number   1
_chemical_formula_structural   Al17BN18
_chemical_formula_sum   'Al34 B2 N36'
_cell_volume   763.44140022
_cell_formula_units_Z   2
loop_
 _symmetry_equiv_pos_site_id
 _symmetry_equiv_pos_as_xyz
  1  'x, y, z'
loop_
 _atom_site_type_symbol
 _atom_site_label
 _atom_site_symmetry_multiplicity
 _atom_site_fract_x
 _atom_site_fract_y
 _atom_site_fract_z
 _atom_site_occupancy
  Al  Al0  1  0.11328272  0.09368358  0.39587733  1
  Al  Al1  1  0.20983869  0.20999836  0.13536068  1
  Al  Al2  1  0.78297762  0.08276113  0.81453386  1
  Al  Al3  1  0.89093757  0.20266922  0.60692466  1
  Al  Al4  1  0.44571533  0.09915565  0.31879042  1
  Al  Al5  1  0.56547894  0.20015673  0.06505768  1
  Al  Al6  1  0.10162479  0.09748446  0.88271444  1
  Al  Al7  1  0.21612305  0.21053677  0.64282837  1
  Al  Al8  1  0.78153475  0.10275792  0.31513799  1
  Al  Al9  1  0.44877135  0.09653425  0.82234588  1
  Al  Al10  1  0.56472665  0.19060173  0.56537294  1
  Al  Al11  1  0.10957684  0.42721318  0.39064735  1
  Al  Al12  1  0.22512128  0.53589360  0.14358461  1
  Al  Al13  1  0.78103735  0.42168618  0.88032896  1
  Al  Al14  1  0.89087377  0.54660693  0.64201319  1
  Al  Al15  1  0.44234244  0.43448613  0.39041947  1
  Al  Al16  1  0.55935820  0.53091905  0.13857054  1
  Al  Al17  1  0.11015875  0.43034850  0.89131049  1
  Al  Al18  1  0.21659900  0.54303390  0.63836277  1
  Al  Al19  1  0.77526685  0.43173077  0.39661684  1
  Al  Al20  1  0.89142141  0.52891582  0.14203975  1
  Al  Al21  1  0.44041607  0.43483339  0.88772297  1
  Al  Al22  1  0.55391587  0.54145195  0.64355796  1
  Al  Al23  1  0.10159271  0.76742554  0.38215854  1
  Al  Al24  1  0.21614146  0.87541281  0.14158213  1
  Al  Al25  1  0.77658802  0.75965920  0.89676998  1
  Al  Al26  1  0.44278756  0.76129856  0.39081271  1
  Al  Al27  1  0.55853515  0.86224733  0.14189586  1
  Al  Al28  1  0.11338604  0.76011552  0.89588965  1
  Al  Al29  1  0.21591499  0.87469021  0.64163796  1
  Al  Al30  1  0.78069852  0.76463867  0.38145792  1
  Al  Al31  1  0.89256349  0.87178447  0.10888614  1
  Al  Al32  1  0.44370163  0.76325180  0.89088031  1
  Al  Al33  1  0.56273533  0.86732291  0.63642522  1
  B  B34  1  0.88634306  0.20770877  0.09657150  1
  B  B35  1  0.88800231  0.87137979  0.59660830  1
  N  N36  1  0.21341417  0.20904647  0.32586542  1
  N  N37  1  0.07839557  0.10873112  0.07876285  1
  N  N38  1  0.88869402  0.20793789  0.81170968  1
  N  N39  1  0.79260968  0.05562205  0.62164772  1
  N  N40  1  0.56067615  0.20070527  0.37719752  1
  N  N41  1  0.44862340  0.09493337  0.12450784  1
  N  N42  1  0.21623490  0.20876949  0.83489769  1
  N  N43  1  0.12268241  0.08986570  0.58209894  1
  N  N44  1  0.88486040  0.20392512  0.39040926  1
  N  N45  1  0.79104148  0.11881900  0.12277667  1
  N  N46  1  0.56263893  0.20131349  0.87655707  1
  N  N47  1  0.44594889  0.09751970  0.62846963  1
  N  N48  1  0.22136096  0.53923969  0.33215386  1
  N  N49  1  0.11121786  0.42924392  0.07886387  1
  N  N50  1  0.88932731  0.54084085  0.82978768  1
  N  N51  1  0.77260870  0.44335695  0.58416102  1
  N  N52  1  0.55704780  0.53866731  0.32633352  1
  N  N53  1  0.44197688  0.43114020  0.07815379  1
  N  N54  1  0.22040503  0.54120323  0.82594850  1
  N  N55  1  0.11068150  0.42851511  0.57847737  1
  N  N56  1  0.88816175  0.53783690  0.32988425  1
  N  N57  1  0.79349608  0.39718310  0.07780296  1
  N  N58  1  0.55509402  0.54083363  0.83131012  1
  N  N59  1  0.44340255  0.43200084  0.58076955  1
  N  N60  1  0.22064503  0.87414618  0.32963749  1
  N  N61  1  0.12332398  0.75274150  0.08285996  1
  N  N62  1  0.88620090  0.87784822  0.88925094  1
  N  N63  1  0.79407834  0.77532399  0.57707127  1
  N  N64  1  0.55680357  0.86737492  0.33329334  1
  N  N65  1  0.44214062  0.76090877  0.07949610  1
  N  N66  1  0.22125540  0.87200097  0.82980441  1
  N  N67  1  0.07972700  0.77742109  0.57903377  1
  N  N68  1  0.88826202  0.87088608  0.31222700  1
  N  N69  1  0.77539383  0.74936834  0.08358949  1
  N  N70  1  0.56145520  0.86394747  0.82745011  1
  N  N71  1  0.44159999  0.76159970  0.57926216  1
