# generated using pymatgen
data_Al17BN18
_symmetry_space_group_name_H-M   'P 1'
_cell_length_a   9.30442588
_cell_length_b   9.30894490
_cell_length_c   10.07044421
_cell_angle_alpha   89.99351503
_cell_angle_beta   89.68814837
_cell_angle_gamma   60.00477421
_symmetry_Int_Tables_number   1
_chemical_formula_structural   Al17BN18
_chemical_formula_sum   'Al34 B2 N36'
_cell_volume   755.40836354
_cell_formula_units_Z   2
loop_
 _symmetry_equiv_pos_site_id
 _symmetry_equiv_pos_as_xyz
  1  'x, y, z'
loop_
 _atom_site_type_symbol
 _atom_site_label
 _atom_site_symmetry_multiplicity
 _atom_site_fract_x
 _atom_site_fract_y
 _atom_site_fract_z
 _atom_site_occupancy
  Al  Al0  1  0.11503500  0.09331909  0.40454779  1
  Al  Al1  1  0.21476609  0.20782814  0.14793463  1
  Al  Al2  1  0.78597015  0.08428770  0.82215497  1
  Al  Al3  1  0.89072414  0.20228309  0.61361975  1
  Al  Al4  1  0.44346937  0.09527775  0.39775165  1
  Al  Al5  1  0.55431791  0.21046821  0.14548839  1
  Al  Al6  1  0.10448639  0.09675842  0.89278262  1
  Al  Al7  1  0.22325793  0.20554617  0.65268989  1
  Al  Al8  1  0.78337176  0.10088066  0.34012745  1
  Al  Al9  1  0.44640110  0.09273864  0.89925007  1
  Al  Al10  1  0.55339888  0.20250232  0.64330841  1
  Al  Al11  1  0.11002436  0.42780720  0.39970735  1
  Al  Al12  1  0.22171917  0.53966088  0.15125595  1
  Al  Al13  1  0.78120563  0.41986198  0.89191929  1
  Al  Al14  1  0.89048556  0.54521798  0.65293124  1
  Al  Al15  1  0.44429871  0.42927624  0.39903256  1
  Al  Al16  1  0.55957499  0.53231548  0.14779422  1
  Al  Al17  1  0.11185627  0.42783300  0.90016231  1
  Al  Al18  1  0.21587878  0.54356837  0.64896171  1
  Al  Al19  1  0.77483348  0.43420558  0.40532935  1
  Al  Al20  1  0.89047576  0.53239287  0.14953843  1
  Al  Al21  1  0.44536450  0.42585739  0.89779695  1
  Al  Al22  1  0.55406103  0.54193091  0.65252219  1
  Al  Al23  1  0.10356215  0.76661057  0.40113006  1
  Al  Al24  1  0.21464713  0.87627250  0.14919410  1
  Al  Al25  1  0.77832556  0.75971702  0.89848640  1
  Al  Al26  1  0.44315629  0.76118977  0.39916558  1
  Al  Al27  1  0.55577999  0.87136371  0.15145854  1
  Al  Al28  1  0.11197224  0.75838921  0.89764808  1
  Al  Al29  1  0.21688802  0.87371510  0.65205601  1
  Al  Al30  1  0.78004537  0.76532430  0.40035731  1
  Al  Al31  1  0.89297929  0.87135293  0.14215490  1
  Al  Al32  1  0.44440191  0.76158432  0.90018504  1
  Al  Al33  1  0.55905600  0.87384988  0.64833853  1
  B  B34  1  0.88760879  0.20536727  0.10742351  1
  B  B35  1  0.88841313  0.86929116  0.63788116  1
  N  N36  1  0.22113788  0.20562371  0.33650596  1
  N  N37  1  0.08006926  0.10940342  0.08999454  1
  N  N38  1  0.89154837  0.20641355  0.82451379  1
  N  N39  1  0.78913668  0.06280651  0.62488643  1
  N  N40  1  0.55108723  0.20845845  0.33673534  1
  N  N41  1  0.44414789  0.09369913  0.08939584  1
  N  N42  1  0.22330357  0.20447116  0.84283050  1
  N  N43  1  0.12310656  0.08943081  0.59260313  1
  N  N44  1  0.88753686  0.20713832  0.39777226  1
  N  N45  1  0.79491516  0.11308091  0.12989739  1
  N  N46  1  0.55359947  0.20559956  0.83694335  1
  N  N47  1  0.44279325  0.09456798  0.58652939  1
  N  N48  1  0.22057532  0.54183183  0.34172785  1
  N  N49  1  0.11154075  0.42850267  0.08976529  1
  N  N50  1  0.88974579  0.53701585  0.84216128  1
  N  N51  1  0.77263342  0.44231836  0.59416789  1
  N  N52  1  0.55651542  0.53884015  0.33672482  1
  N  N53  1  0.44262648  0.42904543  0.08714334  1
  N  N54  1  0.22426458  0.53670669  0.83760340  1
  N  N55  1  0.11144347  0.42689354  0.58952433  1
  N  N56  1  0.88740584  0.54112830  0.33921427  1
  N  N57  1  0.79311267  0.39712785  0.08973279  1
  N  N58  1  0.55561126  0.53889310  0.84227852  1
  N  N59  1  0.44420771  0.42937192  0.58874073  1
  N  N60  1  0.22001662  0.87331977  0.33893011  1
  N  N61  1  0.11362465  0.75873186  0.08675321  1
  N  N62  1  0.89561833  0.85888471  0.83681947  1
  N  N63  1  0.79203671  0.77391432  0.59380494  1
  N  N64  1  0.55656932  0.87160462  0.34142755  1
  N  N65  1  0.44351537  0.76146883  0.09066739  1
  N  N66  1  0.22249991  0.87130740  0.84146392  1
  N  N67  1  0.08365763  0.77525184  0.59409146  1
  N  N68  1  0.88929128  0.87064946  0.33136164  1
  N  N69  1  0.77718575  0.75906057  0.08871915  1
  N  N70  1  0.55639241  0.87109696  0.83781507  1
  N  N71  1  0.44245058  0.76212632  0.58961868  1
