# generated using pymatgen
data_Al17BN18
_symmetry_space_group_name_H-M   'P 1'
_cell_length_a   9.32547266
_cell_length_b   9.32602079
_cell_length_c   9.98859801
_cell_angle_alpha   89.96092748
_cell_angle_beta   89.96272668
_cell_angle_gamma   60.01490735
_symmetry_Int_Tables_number   1
_chemical_formula_structural   Al17BN18
_chemical_formula_sum   'Al34 B2 N36'
_cell_volume   752.43240166
_cell_formula_units_Z   2
loop_
 _symmetry_equiv_pos_site_id
 _symmetry_equiv_pos_as_xyz
  1  'x, y, z'
loop_
 _atom_site_type_symbol
 _atom_site_label
 _atom_site_symmetry_multiplicity
 _atom_site_fract_x
 _atom_site_fract_y
 _atom_site_fract_z
 _atom_site_occupancy
  Al  Al0  1  0.10370587  0.10000570  0.30778832  1
  Al  Al1  1  0.21806355  0.20756164  0.06194596  1
  Al  Al2  1  0.78137123  0.09159068  0.82380137  1
  Al  Al3  1  0.89065580  0.19852704  0.56252134  1
  Al  Al4  1  0.44595803  0.09356215  0.31124732  1
  Al  Al5  1  0.55956706  0.20770585  0.06011187  1
  Al  Al6  1  0.10679653  0.10034486  0.82262850  1
  Al  Al7  1  0.22106762  0.20539131  0.55967513  1
  Al  Al8  1  0.78041154  0.09759611  0.30529985  1
  Al  Al9  1  0.44408220  0.09522283  0.81063108  1
  Al  Al10  1  0.56113667  0.19841107  0.56108738  1
  Al  Al11  1  0.10990592  0.42966653  0.31185777  1
  Al  Al12  1  0.22506008  0.53417701  0.06015354  1
  Al  Al13  1  0.77890496  0.42500596  0.81549074  1
  Al  Al14  1  0.89007048  0.54192451  0.56155990  1
  Al  Al15  1  0.44392818  0.42822006  0.31259531  1
  Al  Al16  1  0.56061576  0.53164881  0.06100187  1
  Al  Al17  1  0.11180747  0.42654513  0.80932172  1
  Al  Al18  1  0.21430750  0.54490532  0.56109830  1
  Al  Al19  1  0.78069029  0.42278392  0.30768869  1
  Al  Al20  1  0.89066889  0.53211800  0.05934764  1
  Al  Al21  1  0.44499116  0.42749173  0.80898185  1
  Al  Al22  1  0.55724756  0.53762815  0.55894222  1
  Al  Al23  1  0.10844558  0.76204227  0.30729238  1
  Al  Al24  1  0.21895636  0.87635183  0.08759177  1
  Al  Al25  1  0.78040757  0.76300685  0.81677487  1
  Al  Al26  1  0.44673661  0.76094767  0.31100449  1
  Al  Al27  1  0.55683331  0.87109277  0.05840348  1
  Al  Al28  1  0.10480498  0.76109702  0.82929597  1
  Al  Al29  1  0.21423838  0.87497639  0.60616604  1
  Al  Al30  1  0.77769475  0.76144462  0.30826029  1
  Al  Al31  1  0.88760350  0.87629272  0.07736339  1
  Al  Al32  1  0.44956769  0.75751065  0.81402811  1
  Al  Al33  1  0.55985955  0.87501084  0.56089820  1
  B  B34  1  0.88552917  0.20862813  0.05739392  1
  B  B35  1  0.88854415  0.87233669  0.60508225  1
  N  N36  1  0.22127937  0.20566474  0.36859634  1
  N  N37  1  0.08371043  0.11144250  0.11128877  1
  N  N38  1  0.88729805  0.20743183  0.89087109  1
  N  N39  1  0.79344373  0.06496379  0.62513202  1
  N  N40  1  0.55805918  0.20487350  0.37044925  1
  N  N41  1  0.44593691  0.09376772  0.11953664  1
  N  N42  1  0.22359371  0.20684011  0.87231812  1
  N  N43  1  0.10637844  0.10209172  0.62845683  1
  N  N44  1  0.88731906  0.20649297  0.37549316  1
  N  N45  1  0.78785569  0.11394764  0.11120463  1
  N  N46  1  0.55549952  0.20616861  0.86886280  1
  N  N47  1  0.44303614  0.09546873  0.62019879  1
  N  N48  1  0.22085024  0.54130312  0.37171484  1
  N  N49  1  0.11111142  0.42777973  0.12147035  1
  N  N50  1  0.88974644  0.53830464  0.86801085  1
  N  N51  1  0.77857445  0.42512790  0.62358135  1
  N  N52  1  0.55820774  0.53777044  0.36827237  1
  N  N53  1  0.44458046  0.42687799  0.12183759  1
  N  N54  1  0.22401351  0.53506475  0.86921610  1
  N  N55  1  0.11110988  0.42732565  0.61950040  1
  N  N56  1  0.88669047  0.53906008  0.37078773  1
  N  N57  1  0.79081524  0.40279902  0.11313413  1
  N  N58  1  0.55648049  0.53642802  0.87107777  1
  N  N59  1  0.44357200  0.42809651  0.61818272  1
  N  N60  1  0.22121006  0.87507984  0.34338181  1
  N  N61  1  0.11544294  0.75432638  0.11219225  1
  N  N62  1  0.88529032  0.87344009  0.88404001  1
  N  N63  1  0.79229653  0.77627935  0.62038330  1
  N  N64  1  0.55705852  0.87174209  0.37195719  1
  N  N65  1  0.45020158  0.75731004  0.11710928  1
  N  N66  1  0.22269529  0.87146845  0.85225627  1
  N  N67  1  0.07845157  0.77461202  0.62441819  1
  N  N68  1  0.88586104  0.87565963  0.33755889  1
  N  N69  1  0.77570657  0.75485204  0.11694018  1
  N  N70  1  0.55656849  0.87269611  0.86782091  1
  N  N71  1  0.44852651  0.75931529  0.62070158  1
