# generated using pymatgen
data_Al17BN18
_symmetry_space_group_name_H-M   'P 1'
_cell_length_a   9.31467651
_cell_length_b   9.34114239
_cell_length_c   10.14659589
_cell_angle_alpha   90.07688462
_cell_angle_beta   89.54274649
_cell_angle_gamma   59.95628428
_symmetry_Int_Tables_number   1
_chemical_formula_structural   Al17BN18
_chemical_formula_sum   'Al34 B2 N36'
_cell_volume   764.19677395
_cell_formula_units_Z   2
loop_
 _symmetry_equiv_pos_site_id
 _symmetry_equiv_pos_as_xyz
  1  'x, y, z'
loop_
 _atom_site_type_symbol
 _atom_site_label
 _atom_site_symmetry_multiplicity
 _atom_site_fract_x
 _atom_site_fract_y
 _atom_site_fract_z
 _atom_site_occupancy
  Al  Al0  1  0.11367839  0.09500670  0.39704128  1
  Al  Al1  1  0.21751242  0.20540905  0.11750668  1
  Al  Al2  1  0.78160413  0.08575729  0.82137279  1
  Al  Al3  1  0.88798630  0.20290220  0.60229562  1
  Al  Al4  1  0.44983260  0.09135877  0.31857668  1
  Al  Al5  1  0.56424965  0.20784656  0.06845311  1
  Al  Al6  1  0.09877630  0.09907374  0.89018609  1
  Al  Al7  1  0.22343169  0.20219550  0.63035699  1
  Al  Al8  1  0.78008541  0.10118643  0.32280474  1
  Al  Al9  1  0.44975746  0.09189463  0.82811291  1
  Al  Al10  1  0.56149206  0.19647394  0.56894868  1
  Al  Al11  1  0.10953067  0.43331670  0.31952167  1
  Al  Al12  1  0.23010500  0.53061304  0.07137663  1
  Al  Al13  1  0.77644467  0.43095526  0.81452520  1
  Al  Al14  1  0.89144822  0.54494302  0.56983626  1
  Al  Al15  1  0.44362128  0.42839952  0.32237551  1
  Al  Al16  1  0.55928443  0.53410894  0.07306403  1
  Al  Al17  1  0.10977104  0.43098255  0.82686867  1
  Al  Al18  1  0.22099840  0.53558129  0.57407917  1
  Al  Al19  1  0.78319174  0.42112770  0.32872703  1
  Al  Al20  1  0.89075141  0.53096985  0.06895470  1
  Al  Al21  1  0.44771406  0.42647632  0.81998472  1
  Al  Al22  1  0.55509159  0.54130398  0.56709707  1
  Al  Al23  1  0.09679136  0.77231403  0.38749800  1
  Al  Al24  1  0.20848226  0.88005395  0.14654387  1
  Al  Al25  1  0.78271485  0.76243192  0.82762546  1
  Al  Al26  1  0.44857667  0.76023590  0.32275506  1
  Al  Al27  1  0.55658311  0.86850233  0.06690078  1
  Al  Al28  1  0.10984304  0.76639816  0.89867379  1
  Al  Al29  1  0.20794062  0.87603170  0.64470192  1
  Al  Al30  1  0.77547485  0.75908926  0.31506322  1
  Al  Al31  1  0.88882281  0.87441438  0.10614454  1
  Al  Al32  1  0.44879601  0.75739714  0.82192202  1
  Al  Al33  1  0.55904680  0.87330993  0.57274015  1
  B  B34  1  0.88598184  0.20901032  0.11072417  1
  B  B35  1  0.88589816  0.87127477  0.61038318  1
  N  N36  1  0.22002419  0.20388819  0.33419450  1
  N  N37  1  0.07592026  0.11066351  0.08556642  1
  N  N38  1  0.88993299  0.20404516  0.81986614  1
  N  N39  1  0.78997131  0.05763591  0.62584251  1
  N  N40  1  0.55594253  0.20521026  0.38123489  1
  N  N41  1  0.45588536  0.09009492  0.12676694  1
  N  N42  1  0.22206851  0.20400193  0.86154056  1
  N  N43  1  0.12104205  0.08873899  0.58370775  1
  N  N44  1  0.88104590  0.20898040  0.39697195  1
  N  N45  1  0.79070090  0.11894407  0.12722041  1
  N  N46  1  0.55911899  0.20587652  0.88105244  1
  N  N47  1  0.45101140  0.09148218  0.63631991  1
  N  N48  1  0.22308914  0.53763982  0.38542261  1
  N  N49  1  0.10848337  0.43484166  0.12973773  1
  N  N50  1  0.88713238  0.53839965  0.88153586  1
  N  N51  1  0.77297587  0.44178644  0.62689472  1
  N  N52  1  0.55547584  0.53957024  0.37894845  1
  N  N53  1  0.44703073  0.42571958  0.13421340  1
  N  N54  1  0.22722119  0.53370678  0.88018107  1
  N  N55  1  0.10905990  0.43060764  0.63585099  1
  N  N56  1  0.88873774  0.54109792  0.38189336  1
  N  N57  1  0.79483431  0.39819275  0.13118085  1
  N  N58  1  0.55689224  0.53782444  0.88460743  1
  N  N59  1  0.44844413  0.42491788  0.63043214  1
  N  N60  1  0.21460663  0.87670570  0.33507222  1
  N  N61  1  0.11950225  0.75860036  0.08654880  1
  N  N62  1  0.87990777  0.87734996  0.89562862  1
  N  N63  1  0.79383346  0.77385297  0.63062582  1
  N  N64  1  0.55619821  0.87257164  0.38499959  1
  N  N65  1  0.44680992  0.76025170  0.13138455  1
  N  N66  1  0.21457269  0.87584127  0.83321039  1
  N  N67  1  0.07509541  0.77955225  0.58620484  1
  N  N68  1  0.88754052  0.87418535  0.32015391  1
  N  N69  1  0.77307473  0.75104351  0.12782609  1
  N  N70  1  0.55674259  0.86930177  0.87945934  1
  N  N71  1  0.44650198  0.75966023  0.63052973  1
