# generated using pymatgen
data_Al17BN18
_symmetry_space_group_name_H-M   'P 1'
_cell_length_a   9.29185560
_cell_length_b   9.35851371
_cell_length_c   10.24845529
_cell_angle_alpha   89.94469938
_cell_angle_beta   89.38902221
_cell_angle_gamma   59.80055207
_symmetry_Int_Tables_number   1
_chemical_formula_structural   Al17BN18
_chemical_formula_sum   'Al34 B2 N36'
_cell_volume   770.17907088
_cell_formula_units_Z   2
loop_
 _symmetry_equiv_pos_site_id
 _symmetry_equiv_pos_as_xyz
  1  'x, y, z'
loop_
 _atom_site_type_symbol
 _atom_site_label
 _atom_site_symmetry_multiplicity
 _atom_site_fract_x
 _atom_site_fract_y
 _atom_site_fract_z
 _atom_site_occupancy
  Al  Al0  1  0.11762224  0.09102317  0.39706435  1
  Al  Al1  1  0.21156707  0.20872605  0.13772514  1
  Al  Al2  1  0.78137876  0.08581442  0.81878116  1
  Al  Al3  1  0.89134352  0.19796893  0.60008806  1
  Al  Al4  1  0.45146156  0.09098036  0.31735984  1
  Al  Al5  1  0.56078197  0.20873962  0.06752265  1
  Al  Al6  1  0.09947274  0.09999488  0.88820982  1
  Al  Al7  1  0.21810432  0.20796993  0.64483983  1
  Al  Al8  1  0.78261403  0.09939131  0.31863124  1
  Al  Al9  1  0.44946129  0.09292152  0.82283108  1
  Al  Al10  1  0.56064545  0.19731343  0.56682580  1
  Al  Al11  1  0.11335488  0.42565719  0.39099287  1
  Al  Al12  1  0.21665744  0.54141966  0.14418663  1
  Al  Al13  1  0.77347136  0.42774949  0.81160776  1
  Al  Al14  1  0.89626975  0.54403375  0.63501726  1
  Al  Al15  1  0.45036455  0.42459312  0.32099921  1
  Al  Al16  1  0.56176981  0.53096857  0.06944109  1
  Al  Al17  1  0.10881809  0.43004567  0.89193538  1
  Al  Al18  1  0.21120621  0.54590253  0.63909673  1
  Al  Al19  1  0.78103802  0.42085808  0.35669914  1
  Al  Al20  1  0.89346908  0.52466087  0.13950242  1
  Al  Al21  1  0.44971344  0.42471873  0.81877629  1
  Al  Al22  1  0.54960801  0.54413748  0.56841752  1
  Al  Al23  1  0.10084709  0.76714898  0.38878855  1
  Al  Al24  1  0.20910315  0.87896010  0.14319886  1
  Al  Al25  1  0.77994633  0.76963520  0.82912010  1
  Al  Al26  1  0.44971521  0.75905854  0.31914519  1
  Al  Al27  1  0.55562955  0.86952385  0.06600278  1
  Al  Al28  1  0.11572019  0.75853770  0.89693051  1
  Al  Al29  1  0.20934767  0.87840545  0.64464610  1
  Al  Al30  1  0.77455401  0.76615388  0.31355753  1
  Al  Al31  1  0.88818666  0.87652762  0.09511650  1
  Al  Al32  1  0.44875517  0.75913657  0.82117857  1
  Al  Al33  1  0.55906853  0.87509613  0.57012964  1
  B  B34  1  0.88455724  0.20970449  0.10624273  1
  B  B35  1  0.88556768  0.87333422  0.60607465  1
  N  N36  1  0.21588874  0.20722354  0.32570508  1
  N  N37  1  0.07926988  0.10941080  0.08165914  1
  N  N38  1  0.89043940  0.20278625  0.81562284  1
  N  N39  1  0.79114635  0.05813610  0.62519947  1
  N  N40  1  0.55667672  0.20442016  0.38051582  1
  N  N41  1  0.45309949  0.09058489  0.12748870  1
  N  N42  1  0.21501305  0.20894649  0.83440196  1
  N  N43  1  0.12552085  0.08874739  0.58090227  1
  N  N44  1  0.88444381  0.20244081  0.39759397  1
  N  N45  1  0.79153208  0.11591123  0.12508416  1
  N  N46  1  0.55672353  0.20635699  0.88121084  1
  N  N47  1  0.45138254  0.09209501  0.63384661  1
  N  N48  1  0.21598084  0.54328497  0.33375126  1
  N  N49  1  0.11326028  0.42719448  0.07751046  1
  N  N50  1  0.89141491  0.53980308  0.82662687  1
  N  N51  1  0.77328518  0.43677307  0.61505186  1
  N  N52  1  0.55076281  0.54214650  0.38276116  1
  N  N53  1  0.45052871  0.42402868  0.13259345  1
  N  N54  1  0.21421232  0.54397368  0.82676455  1
  N  N55  1  0.11610832  0.42440310  0.57622801  1
  N  N56  1  0.89239890  0.53499802  0.33254724  1
  N  N57  1  0.79335778  0.39334782  0.12037302  1
  N  N58  1  0.55490596  0.53884057  0.88191977  1
  N  N59  1  0.45195895  0.42228149  0.62908136  1
  N  N60  1  0.21520764  0.87574863  0.33114252  1
  N  N61  1  0.12264478  0.75379893  0.08071361  1
  N  N62  1  0.88184146  0.87883237  0.89517091  1
  N  N63  1  0.79284448  0.77998184  0.62784292  1
  N  N64  1  0.55530094  0.87249963  0.38375958  1
  N  N65  1  0.44980596  0.75696294  0.12992512  1
  N  N66  1  0.21399053  0.87654665  0.83227150  1
  N  N67  1  0.07962681  0.77748676  0.58317958  1
  N  N68  1  0.88924445  0.87485099  0.32525597  1
  N  N69  1  0.77375313  0.75614613  0.12380762  1
  N  N70  1  0.55401406  0.87280030  0.88028939  1
  N  N71  1  0.44896096  0.76052862  0.63208783  1
