# generated using pymatgen
data_Al17BN18
_symmetry_space_group_name_H-M   'P 1'
_cell_length_a   9.32180776
_cell_length_b   9.33216738
_cell_length_c   10.23900299
_cell_angle_alpha   89.99541350
_cell_angle_beta   89.73705424
_cell_angle_gamma   59.92250423
_symmetry_Int_Tables_number   1
_chemical_formula_structural   Al17BN18
_chemical_formula_sum   'Al34 B2 N36'
_cell_volume   770.77086679
_cell_formula_units_Z   2
loop_
 _symmetry_equiv_pos_site_id
 _symmetry_equiv_pos_as_xyz
  1  'x, y, z'
loop_
 _atom_site_type_symbol
 _atom_site_label
 _atom_site_symmetry_multiplicity
 _atom_site_fract_x
 _atom_site_fract_y
 _atom_site_fract_z
 _atom_site_occupancy
  Al  Al0  1  0.11588474  0.09208751  0.39631365  1
  Al  Al1  1  0.20994062  0.21020283  0.13730644  1
  Al  Al2  1  0.78298982  0.08279187  0.81391331  1
  Al  Al3  1  0.89237421  0.20169533  0.60664294  1
  Al  Al4  1  0.45175933  0.09047556  0.31602351  1
  Al  Al5  1  0.56208712  0.20688386  0.06444326  1
  Al  Al6  1  0.10124795  0.09859511  0.88316220  1
  Al  Al7  1  0.21760573  0.21008587  0.64398028  1
  Al  Al8  1  0.78292684  0.10186257  0.31555768  1
  Al  Al9  1  0.45178967  0.09139638  0.82077290  1
  Al  Al10  1  0.56240900  0.19607408  0.56492750  1
  Al  Al11  1  0.11253127  0.42479766  0.39102440  1
  Al  Al12  1  0.21579519  0.53947451  0.14340604  1
  Al  Al13  1  0.78379973  0.42043014  0.87917222  1
  Al  Al14  1  0.89014602  0.54935282  0.64168339  1
  Al  Al15  1  0.45124003  0.42242218  0.32021024  1
  Al  Al16  1  0.55486664  0.53489243  0.08197226  1
  Al  Al17  1  0.11113382  0.42932570  0.89087498  1
  Al  Al18  1  0.21022831  0.54653790  0.63757048  1
  Al  Al19  1  0.78145967  0.42767876  0.39579923  1
  Al  Al20  1  0.88928727  0.52928675  0.14247779  1
  Al  Al21  1  0.44963427  0.42390827  0.82020764  1
  Al  Al22  1  0.55321158  0.54253454  0.58856480  1
  Al  Al23  1  0.10294284  0.76647497  0.38346496  1
  Al  Al24  1  0.20627908  0.88106650  0.14190289  1
  Al  Al25  1  0.78379881  0.75632429  0.89704298  1
  Al  Al26  1  0.44917984  0.75900742  0.31762276  1
  Al  Al27  1  0.54673839  0.87523512  0.06873367  1
  Al  Al28  1  0.11424841  0.75944306  0.89667472  1
  Al  Al29  1  0.20777033  0.87863856  0.64295191  1
  Al  Al30  1  0.78577607  0.76103618  0.37745150  1
  Al  Al31  1  0.89034342  0.87273163  0.11034816  1
  Al  Al32  1  0.44735635  0.76157440  0.82282056  1
  Al  Al33  1  0.55158675  0.87879207  0.56867052  1
  B  B34  1  0.88657578  0.20769587  0.09663841  1
  B  B35  1  0.88666543  0.87217159  0.59621679  1
  N  N36  1  0.21666548  0.20662061  0.32539876  1
  N  N37  1  0.07877021  0.10940393  0.07794775  1
  N  N38  1  0.88821641  0.20831990  0.81049922  1
  N  N39  1  0.79240191  0.05660638  0.62139928  1
  N  N40  1  0.55933382  0.20138172  0.37907267  1
  N  N41  1  0.45122923  0.09340785  0.12749722  1
  N  N42  1  0.21675619  0.20860944  0.83333409  1
  N  N43  1  0.12483529  0.09005516  0.58105755  1
  N  N44  1  0.88730816  0.20121117  0.39071125  1
  N  N45  1  0.79171983  0.11840758  0.12255657  1
  N  N46  1  0.55989617  0.20395585  0.87882467  1
  N  N47  1  0.45068191  0.09365032  0.63252817  1
  N  N48  1  0.21657262  0.54116632  0.33321103  1
  N  N49  1  0.10992264  0.42819897  0.07735802  1
  N  N50  1  0.88841613  0.54153843  0.82798863  1
  N  N51  1  0.78009815  0.43991029  0.58478559  1
  N  N52  1  0.55590193  0.53870183  0.36406183  1
  N  N53  1  0.44763080  0.42104470  0.13019373  1
  N  N54  1  0.21498472  0.54370981  0.82583579  1
  N  N55  1  0.11164683  0.42733771  0.57769213  1
  N  N56  1  0.89023175  0.53547915  0.32856808  1
  N  N57  1  0.79740773  0.39486628  0.07759943  1
  N  N58  1  0.55168935  0.54130801  0.87846998  1
  N  N59  1  0.45154862  0.42083141  0.62878579  1
  N  N60  1  0.21460197  0.87671808  0.32964647  1
  N  N61  1  0.12198757  0.75305447  0.08128071  1
  N  N62  1  0.88636605  0.87835884  0.88738351  1
  N  N63  1  0.79735482  0.77481635  0.57626551  1
  N  N64  1  0.55122623  0.87385739  0.38190482  1
  N  N65  1  0.44321186  0.76266092  0.12836886  1
  N  N66  1  0.21324646  0.87614096  0.83049869  1
  N  N67  1  0.07989202  0.77819955  0.57812233  1
  N  N68  1  0.88885801  0.87071301  0.31124793  1
  N  N69  1  0.77738281  0.74879671  0.08597846  1
  N  N70  1  0.55000610  0.87563382  0.88148149  1
  N  N71  1  0.44612852  0.76347316  0.63246637  1
