# generated using pymatgen
data_Al17BN18
_symmetry_space_group_name_H-M   'P 1'
_cell_length_a   9.29138307
_cell_length_b   9.32630986
_cell_length_c   10.28337097
_cell_angle_alpha   89.89067551
_cell_angle_beta   89.63414247
_cell_angle_gamma   59.92063417
_symmetry_Int_Tables_number   1
_chemical_formula_structural   Al17BN18
_chemical_formula_sum   'Al34 B2 N36'
_cell_volume   771.07943984
_cell_formula_units_Z   2
loop_
 _symmetry_equiv_pos_site_id
 _symmetry_equiv_pos_as_xyz
  1  'x, y, z'
loop_
 _atom_site_type_symbol
 _atom_site_label
 _atom_site_symmetry_multiplicity
 _atom_site_fract_x
 _atom_site_fract_y
 _atom_site_fract_z
 _atom_site_occupancy
  Al  Al0  1  0.11413683  0.09291698  0.39722506  1
  Al  Al1  1  0.21054073  0.20954928  0.13901996  1
  Al  Al2  1  0.78260499  0.08212221  0.81603895  1
  Al  Al3  1  0.89133166  0.20301340  0.61190009  1
  Al  Al4  1  0.45006289  0.09306671  0.31815905  1
  Al  Al5  1  0.56054716  0.20921509  0.06543372  1
  Al  Al6  1  0.10373478  0.09679175  0.88360663  1
  Al  Al7  1  0.21862736  0.20913711  0.64289513  1
  Al  Al8  1  0.78198706  0.10322282  0.31366503  1
  Al  Al9  1  0.45312493  0.08992518  0.81970352  1
  Al  Al10  1  0.56383851  0.19598081  0.56611819  1
  Al  Al11  1  0.10989696  0.42686965  0.39207167  1
  Al  Al12  1  0.21676174  0.53957179  0.14540571  1
  Al  Al13  1  0.78450145  0.41882102  0.87833103  1
  Al  Al14  1  0.88825283  0.55082169  0.64420502  1
  Al  Al15  1  0.45070943  0.42451276  0.32283823  1
  Al  Al16  1  0.54927934  0.53759416  0.06906152  1
  Al  Al17  1  0.11426681  0.42721950  0.89073668  1
  Al  Al18  1  0.20933613  0.54704972  0.63734214  1
  Al  Al19  1  0.78345530  0.42709598  0.39872347  1
  Al  Al20  1  0.89228815  0.52038656  0.13710890  1
  Al  Al21  1  0.45110664  0.42421774  0.81592368  1
  Al  Al22  1  0.54750318  0.54587984  0.57078651  1
  Al  Al23  1  0.09931430  0.76762068  0.38630206  1
  Al  Al24  1  0.20749518  0.88016735  0.14466608  1
  Al  Al25  1  0.78320166  0.75652204  0.89705293  1
  Al  Al26  1  0.44735307  0.75818152  0.32098358  1
  Al  Al27  1  0.54355949  0.87597950  0.07078969  1
  Al  Al28  1  0.11750780  0.75790113  0.89673556  1
  Al  Al29  1  0.20923569  0.87825439  0.64168421  1
  Al  Al30  1  0.77642676  0.76278135  0.32502513  1
  Al  Al31  1  0.89343309  0.87707109  0.10327645  1
  Al  Al32  1  0.45038586  0.75928110  0.81790378  1
  Al  Al33  1  0.56288062  0.87386196  0.56742538  1
  B  B34  1  0.88599923  0.20800832  0.09555021  1
  B  B35  1  0.88476946  0.87043743  0.60092927  1
  N  N36  1  0.21528738  0.20794015  0.32641012  1
  N  N37  1  0.08016485  0.10848621  0.07809343  1
  N  N38  1  0.88933357  0.20667791  0.81233678  1
  N  N39  1  0.79286476  0.05769067  0.62515751  1
  N  N40  1  0.55904649  0.20276017  0.38024142  1
  N  N41  1  0.45151251  0.09364979  0.12953957  1
  N  N42  1  0.21788824  0.20754593  0.83206988  1
  N  N43  1  0.12327809  0.09084139  0.58089524  1
  N  N44  1  0.88608118  0.20277754  0.38682945  1
  N  N45  1  0.79085608  0.11966999  0.12101099  1
  N  N46  1  0.55824863  0.20554780  0.87999160  1
  N  N47  1  0.45249250  0.09134657  0.63180867  1
  N  N48  1  0.21465747  0.54248648  0.33363075  1
  N  N49  1  0.11329465  0.42654741  0.07640176  1
  N  N50  1  0.88912194  0.54041457  0.83257826  1
  N  N51  1  0.77919744  0.43975349  0.58674923  1
  N  N52  1  0.54864365  0.54295888  0.38368861  1
  N  N53  1  0.45046800  0.42252779  0.13475662  1
  N  N54  1  0.21532910  0.54378374  0.82501272  1
  N  N55  1  0.11052096  0.42748573  0.57789588  1
  N  N56  1  0.88976304  0.53174659  0.32262737  1
  N  N57  1  0.79592183  0.39415644  0.07445942  1
  N  N58  1  0.54937810  0.54237816  0.88268012  1
  N  N59  1  0.45188497  0.42182555  0.62847305  1
  N  N60  1  0.21316351  0.87715938  0.33114949  1
  N  N61  1  0.12663384  0.75121636  0.08028812  1
  N  N62  1  0.88574221  0.87968249  0.89724860  1
  N  N63  1  0.79696136  0.77620052  0.59694177  1
  N  N64  1  0.55361963  0.87292376  0.37936216  1
  N  N65  1  0.44637125  0.75801555  0.13322160  1
  N  N66  1  0.21504411  0.87513734  0.82889274  1
  N  N67  1  0.08067557  0.77789403  0.57858409  1
  N  N68  1  0.89032024  0.87326076  0.30725461  1
  N  N69  1  0.77547090  0.75074385  0.09946047  1
  N  N70  1  0.54982826  0.87430871  0.88536397  1
  N  N71  1  0.44921528  0.76253911  0.63083909  1
