# generated using pymatgen
data_Al17BN18
_symmetry_space_group_name_H-M   'P 1'
_cell_length_a   9.31062027
_cell_length_b   9.33644129
_cell_length_c   10.13655219
_cell_angle_alpha   90.03460572
_cell_angle_beta   89.64902416
_cell_angle_gamma   59.96680924
_symmetry_Int_Tables_number   1
_chemical_formula_structural   Al17BN18
_chemical_formula_sum   'Al34 B2 N36'
_cell_volume   762.82247298
_cell_formula_units_Z   2
loop_
 _symmetry_equiv_pos_site_id
 _symmetry_equiv_pos_as_xyz
  1  'x, y, z'
loop_
 _atom_site_type_symbol
 _atom_site_label
 _atom_site_symmetry_multiplicity
 _atom_site_fract_x
 _atom_site_fract_y
 _atom_site_fract_z
 _atom_site_occupancy
  Al  Al0  1  0.11000331  0.09273992  0.38678923  1
  Al  Al1  1  0.21650313  0.20664381  0.06102531  1
  Al  Al2  1  0.77926521  0.08582109  0.81069251  1
  Al  Al3  1  0.88612808  0.20434917  0.59147237  1
  Al  Al4  1  0.44637267  0.09350424  0.30760730  1
  Al  Al5  1  0.56215903  0.20753248  0.05773079  1
  Al  Al6  1  0.10267075  0.09796592  0.84535117  1
  Al  Al7  1  0.22995704  0.20861084  0.56154369  1
  Al  Al8  1  0.77970583  0.10106316  0.31011352  1
  Al  Al9  1  0.44536446  0.09394560  0.81048136  1
  Al  Al10  1  0.56280429  0.19616201  0.55691176  1
  Al  Al11  1  0.11246835  0.42842211  0.30890160  1
  Al  Al12  1  0.22872052  0.52990280  0.06127782  1
  Al  Al13  1  0.77486571  0.43319054  0.80303920  1
  Al  Al14  1  0.89215698  0.54522995  0.55778449  1
  Al  Al15  1  0.44440805  0.42801705  0.30989749  1
  Al  Al16  1  0.55887318  0.53426934  0.06155359  1
  Al  Al17  1  0.11153334  0.42756749  0.80998560  1
  Al  Al18  1  0.22133937  0.53617456  0.56159580  1
  Al  Al19  1  0.78341770  0.42126882  0.31604741  1
  Al  Al20  1  0.89136539  0.52984392  0.05836351  1
  Al  Al21  1  0.44665469  0.42665921  0.80882657  1
  Al  Al22  1  0.55644761  0.54049545  0.55449419  1
  Al  Al23  1  0.09728258  0.77052052  0.37409037  1
  Al  Al24  1  0.20708002  0.88342406  0.13566714  1
  Al  Al25  1  0.78261716  0.76246452  0.81688554  1
  Al  Al26  1  0.45026581  0.75928900  0.31102410  1
  Al  Al27  1  0.55402429  0.87003614  0.05561601  1
  Al  Al28  1  0.11021983  0.76602446  0.88748837  1
  Al  Al29  1  0.21131330  0.87185373  0.62670935  1
  Al  Al30  1  0.77619833  0.75883340  0.30226269  1
  Al  Al31  1  0.88879051  0.87563254  0.09358956  1
  Al  Al32  1  0.44986373  0.75661806  0.80793557  1
  Al  Al33  1  0.56049489  0.87363448  0.56008783  1
  B  B34  1  0.88912052  0.20779449  0.10074552  1
  B  B35  1  0.88620278  0.87100512  0.59819294  1
  N  N36  1  0.22614328  0.20892604  0.37045750  1
  N  N37  1  0.07547019  0.11243117  0.08528200  1
  N  N38  1  0.88445884  0.20684307  0.80726522  1
  N  N39  1  0.79002790  0.05705580  0.61447390  1
  N  N40  1  0.55661210  0.20493367  0.36881022  1
  N  N41  1  0.44625833  0.09345897  0.11771048  1
  N  N42  1  0.22310916  0.20547965  0.87028231  1
  N  N43  1  0.11931723  0.09069821  0.58153840  1
  N  N44  1  0.87993426  0.20934533  0.38689654  1
  N  N45  1  0.78937238  0.11943868  0.11554419  1
  N  N46  1  0.55651054  0.20519809  0.86931484  1
  N  N47  1  0.44759579  0.09379726  0.62230033  1
  N  N48  1  0.22407268  0.53705630  0.37232864  1
  N  N49  1  0.11182604  0.42671923  0.12111671  1
  N  N50  1  0.88914928  0.53716026  0.86960860  1
  N  N51  1  0.77328091  0.44298855  0.61519028  1
  N  N52  1  0.55645438  0.53866292  0.36676453  1
  N  N53  1  0.44653981  0.42565385  0.12195076  1
  N  N54  1  0.22579687  0.53276807  0.86888235  1
  N  N55  1  0.11172382  0.42780655  0.62246117  1
  N  N56  1  0.88995402  0.54043108  0.36928199  1
  N  N57  1  0.79344597  0.39933443  0.11975106  1
  N  N58  1  0.55597942  0.53845124  0.87264829  1
  N  N59  1  0.44899587  0.42507216  0.61870185  1
  N  N60  1  0.21664299  0.87571540  0.32652246  1
  N  N61  1  0.12022936  0.75839566  0.07573192  1
  N  N62  1  0.88023373  0.87733827  0.88427223  1
  N  N63  1  0.79432843  0.77369832  0.61918688  1
  N  N64  1  0.55724572  0.87272546  0.37209034  1
  N  N65  1  0.44594896  0.76030886  0.12004961  1
  N  N66  1  0.21615264  0.87142158  0.81619984  1
  N  N67  1  0.07498830  0.77866272  0.57230854  1
  N  N68  1  0.88794763  0.87410833  0.30784124  1
  N  N69  1  0.77263464  0.75182786  0.11467779  1
  N  N70  1  0.55486111  0.87129319  0.86675680  1
  N  N71  1  0.44880695  0.75892966  0.61631297  1
