# generated using pymatgen
data_Sc2Al7N9
_symmetry_space_group_name_H-M   'P 1'
_cell_length_a   9.77168805
_cell_length_b   9.75020222
_cell_length_c   10.09253522
_cell_angle_alpha   90.04445270
_cell_angle_beta   89.95984377
_cell_angle_gamma   59.77077451
_symmetry_Int_Tables_number   1
_chemical_formula_structural   Sc2Al7N9
_chemical_formula_sum   'Sc8 Al28 N36'
_cell_volume   830.81792651
_cell_formula_units_Z   4
loop_
 _symmetry_equiv_pos_site_id
 _symmetry_equiv_pos_as_xyz
  1  'x, y, z'
loop_
 _atom_site_type_symbol
 _atom_site_label
 _atom_site_symmetry_multiplicity
 _atom_site_fract_x
 _atom_site_fract_y
 _atom_site_fract_z
 _atom_site_occupancy
  Al  Al0  1  0.10346071  0.09766493  0.30059141  1
  Al  Al1  1  0.21067322  0.20740099  0.04932480  1
  Al  Al2  1  0.78615546  0.09877151  0.79912713  1
  Al  Al3  1  0.89370818  0.20556626  0.55150502  1
  Al  Al4  1  0.10672526  0.09722300  0.80013422  1
  Al  Al5  1  0.20667447  0.20789151  0.54916345  1
  Al  Al6  1  0.78848848  0.09421756  0.29937321  1
  Al  Al7  1  0.89451979  0.20554529  0.04940745  1
  Al  Al8  1  0.10421128  0.43020605  0.29701724  1
  Al  Al9  1  0.22127196  0.53633144  0.05171158  1
  Al  Al10  1  0.77706876  0.42523420  0.80125170  1
  Al  Al11  1  0.88941908  0.53359657  0.54693838  1
  Al  Al12  1  0.44243299  0.43832739  0.29484542  1
  Al  Al13  1  0.55506256  0.54401437  0.04986716  1
  Al  Al14  1  0.10444068  0.41969627  0.80338168  1
  Al  Al15  1  0.77599395  0.42748038  0.30155757  1
  Al  Al16  1  0.88983441  0.53205265  0.05409182  1
  Al  Al17  1  0.44985680  0.43016072  0.80284163  1
  Al  Al18  1  0.55538567  0.54094974  0.55064480  1
  Al  Al19  1  0.11283788  0.76080377  0.29450368  1
  Al  Al20  1  0.22477789  0.87674948  0.05431496  1
  Al  Al21  1  0.89687151  0.87155105  0.54379788  1
  Al  Al22  1  0.44534990  0.75579687  0.29719145  1
  Al  Al23  1  0.55372584  0.86485795  0.04870087  1
  Al  Al24  1  0.21887170  0.87515077  0.54689325  1
  Al  Al25  1  0.78203199  0.75611716  0.29551458  1
  Al  Al26  1  0.89329991  0.87499808  0.05650056  1
  Al  Al27  1  0.44094740  0.75728658  0.80199640  1
  Sc  Sc28  1  0.43632420  0.09509878  0.30151675  1
  Sc  Sc29  1  0.56392712  0.20827150  0.05916318  1
  Sc  Sc30  1  0.43528065  0.10109605  0.81193299  1
  Sc  Sc31  1  0.56392152  0.20804644  0.55246563  1
  Sc  Sc32  1  0.21689868  0.53745882  0.55535411  1
  Sc  Sc33  1  0.78724747  0.75482599  0.81192388  1
  Sc  Sc34  1  0.11540809  0.76431718  0.81156947  1
  Sc  Sc35  1  0.55925145  0.86246651  0.55527030  1
  N  N36  1  0.19615857  0.21773624  0.36003402  1
  N  N37  1  0.10925031  0.09602563  0.11158584  1
  N  N38  1  0.88956820  0.20775777  0.85817054  1
  N  N39  1  0.80192494  0.08375344  0.60938641  1
  N  N40  1  0.56451427  0.21525279  0.33518727  1
  N  N41  1  0.43401929  0.08789574  0.08667748  1
  N  N42  1  0.19798146  0.21252828  0.86357783  1
  N  N43  1  0.11021950  0.09211258  0.60846253  1
  N  N44  1  0.88803483  0.20803004  0.36145294  1
  N  N45  1  0.80408768  0.08658816  0.11415474  1
  N  N46  1  0.56991213  0.21382250  0.84571774  1
  N  N47  1  0.42399310  0.10608181  0.59446383  1
  N  N48  1  0.22023068  0.53815122  0.34370514  1
  N  N49  1  0.11007250  0.42679795  0.10825533  1
  N  N50  1  0.89452855  0.51761425  0.86730494  1
  N  N51  1  0.77506075  0.43016746  0.60751441  1
  N  N52  1  0.55500877  0.53987704  0.35904032  1
  N  N53  1  0.43473420  0.45150764  0.10750837  1
  N  N54  1  0.23020250  0.51472845  0.85798785  1
  N  N55  1  0.09649988  0.41683195  0.61435809  1
  N  N56  1  0.88715985  0.53837508  0.35431490  1
  N  N57  1  0.77568111  0.42672356  0.11050911  1
  N  N58  1  0.55615880  0.53997846  0.86041565  1
  N  N59  1  0.45114953  0.43993242  0.61569389  1
  N  N60  1  0.22239786  0.87316166  0.35334291  1
  N  N61  1  0.11480174  0.75986841  0.10041502  1
  N  N62  1  0.88119483  0.89467657  0.87123817  1
  N  N63  1  0.80362012  0.74998385  0.60082888  1
  N  N64  1  0.56565028  0.85198502  0.34632358  1
  N  N65  1  0.44441813  0.76013499  0.10837256  1
  N  N66  1  0.23090144  0.88554024  0.86633938  1
  N  N67  1  0.10599572  0.77705721  0.60143557  1
  N  N68  1  0.89045200  0.87122051  0.35100701  1
  N  N69  1  0.78019195  0.75972234  0.10088518  1
  N  N70  1  0.55007887  0.85855609  0.85719039  1
  N  N71  1  0.43101987  0.75353676  0.61250590  1
