# generated using pymatgen
data_Sc2Al7N9
_symmetry_space_group_name_H-M   'P 1'
_cell_length_a   9.95018347
_cell_length_b   9.92919651
_cell_length_c   9.59663484
_cell_angle_alpha   89.99453070
_cell_angle_beta   90.02820268
_cell_angle_gamma   59.69618888
_symmetry_Int_Tables_number   1
_chemical_formula_structural   Sc2Al7N9
_chemical_formula_sum   'Sc8 Al28 N36'
_cell_volume   818.57221938
_cell_formula_units_Z   4
loop_
 _symmetry_equiv_pos_site_id
 _symmetry_equiv_pos_as_xyz
  1  'x, y, z'
loop_
 _atom_site_type_symbol
 _atom_site_label
 _atom_site_symmetry_multiplicity
 _atom_site_fract_x
 _atom_site_fract_y
 _atom_site_fract_z
 _atom_site_occupancy
  Al  Al0  1  0.10444992  0.09677489  0.37843952  1
  Al  Al1  1  0.21021258  0.20633432  0.12516779  1
  Al  Al2  1  0.78824484  0.09922478  0.88182873  1
  Al  Al3  1  0.89298408  0.20649747  0.62658035  1
  Al  Al4  1  0.10484431  0.09759465  0.87869952  1
  Al  Al5  1  0.20525129  0.20823238  0.63045350  1
  Al  Al6  1  0.78823293  0.09493727  0.37372440  1
  Al  Al7  1  0.89440006  0.20642931  0.13012249  1
  Al  Al8  1  0.09857783  0.42496968  0.37234940  1
  Al  Al9  1  0.21787136  0.54251237  0.13460346  1
  Al  Al10  1  0.77808267  0.42420601  0.87756529  1
  Al  Al11  1  0.89171472  0.52802591  0.62782544  1
  Al  Al12  1  0.45149162  0.43352326  0.37325752  1
  Al  Al13  1  0.55527002  0.54375432  0.12556228  1
  Al  Al14  1  0.10860966  0.42343300  0.88233740  1
  Al  Al15  1  0.77524574  0.42944196  0.37794252  1
  Al  Al16  1  0.88624513  0.53812473  0.12809751  1
  Al  Al17  1  0.44233840  0.43513527  0.88136033  1
  Al  Al18  1  0.55591146  0.54152980  0.63114938  1
  Al  Al19  1  0.11058830  0.76727404  0.37720200  1
  Al  Al20  1  0.22069312  0.87453718  0.12909828  1
  Al  Al21  1  0.89520785  0.87751415  0.62122126  1
  Al  Al22  1  0.44118088  0.75275619  0.37384465  1
  Al  Al23  1  0.55796064  0.86334641  0.13474959  1
  Al  Al24  1  0.22202068  0.87765928  0.62589367  1
  Al  Al25  1  0.78960578  0.75225234  0.37581620  1
  Al  Al26  1  0.89489474  0.86981415  0.13316268  1
  Al  Al27  1  0.44315563  0.76055123  0.88204974  1
  Sc  Sc28  1  0.43411928  0.10117047  0.35962790  1
  Sc  Sc29  1  0.56163817  0.20882857  0.11140882  1
  Sc  Sc30  1  0.43629650  0.09579048  0.86388029  1
  Sc  Sc31  1  0.56638811  0.20735975  0.61699826  1
  Sc  Sc32  1  0.21965656  0.53174430  0.60431330  1
  Sc  Sc33  1  0.78231858  0.75844684  0.86607683  1
  Sc  Sc34  1  0.11702101  0.75950922  0.86589813  1
  Sc  Sc35  1  0.55657466  0.86260501  0.60401230  1
  N  N36  1  0.19519622  0.21450527  0.32079449  1
  N  N37  1  0.10870066  0.09322524  0.07686756  1
  N  N38  1  0.88886383  0.20834943  0.82594676  1
  N  N39  1  0.80254159  0.08793645  0.56967886  1
  N  N40  1  0.56755520  0.21329387  0.34005734  1
  N  N41  1  0.43485521  0.08544363  0.10018891  1
  N  N42  1  0.19719402  0.21455275  0.83023990  1
  N  N43  1  0.10912382  0.09397109  0.57637391  1
  N  N44  1  0.88886828  0.20991847  0.32755670  1
  N  N45  1  0.80498067  0.08316747  0.08089317  1
  N  N46  1  0.56804216  0.21548825  0.85238346  1
  N  N47  1  0.42205260  0.10893189  0.59316770  1
  N  N48  1  0.21995212  0.53712450  0.34006949  1
  N  N49  1  0.10868920  0.43018337  0.08305478  1
  N  N50  1  0.89684011  0.51821092  0.82704891  1
  N  N51  1  0.77372818  0.43024755  0.57816620  1
  N  N52  1  0.55890636  0.53881575  0.32226689  1
  N  N53  1  0.43061695  0.45359258  0.08143173  1
  N  N54  1  0.23032530  0.51426179  0.82863773  1
  N  N55  1  0.09641181  0.41339206  0.56815789  1
  N  N56  1  0.88417529  0.53787955  0.32560364  1
  N  N57  1  0.77696581  0.42729377  0.07712376  1
  N  N58  1  0.55374704  0.54134371  0.83166894  1
  N  N59  1  0.45593383  0.43892281  0.57007060  1
  N  N60  1  0.22044716  0.87542399  0.32747831  1
  N  N61  1  0.11243166  0.76000027  0.09067762  1
  N  N62  1  0.88154508  0.89471322  0.81920998  1
  N  N63  1  0.80619315  0.74688199  0.58087415  1
  N  N64  1  0.56604445  0.85101586  0.34230112  1
  N  N65  1  0.44313312  0.76290546  0.08290465  1
  N  N66  1  0.23161465  0.88387453  0.82615108  1
  N  N67  1  0.10883360  0.77685202  0.58109281  1
  N  N68  1  0.89074813  0.87179581  0.33186832  1
  N  N69  1  0.77872864  0.76253580  0.09147611  1
  N  N70  1  0.54964809  0.85883980  0.82596012  1
  N  N71  1  0.43157273  0.74997780  0.57035513  1
