# generated using pymatgen
data_Sc2Al7N9
_symmetry_space_group_name_H-M   'P 1'
_cell_length_a   9.90315916
_cell_length_b   9.88410225
_cell_length_c   9.73117152
_cell_angle_alpha   90.01608658
_cell_angle_beta   89.95086320
_cell_angle_gamma   59.69073839
_symmetry_Int_Tables_number   1
_chemical_formula_structural   Sc2Al7N9
_chemical_formula_sum   'Sc8 Al28 N36'
_cell_volume   822.32706442
_cell_formula_units_Z   4
loop_
 _symmetry_equiv_pos_site_id
 _symmetry_equiv_pos_as_xyz
  1  'x, y, z'
loop_
 _atom_site_type_symbol
 _atom_site_label
 _atom_site_symmetry_multiplicity
 _atom_site_fract_x
 _atom_site_fract_y
 _atom_site_fract_z
 _atom_site_occupancy
  Al  Al0  1  0.10246575  0.09799561  0.32574832  1
  Al  Al1  1  0.20999204  0.20743018  0.07784966  1
  Al  Al2  1  0.78676638  0.09903980  0.82362045  1
  Al  Al3  1  0.89384655  0.20639637  0.57740119  1
  Al  Al4  1  0.10698527  0.09712173  0.82511920  1
  Al  Al5  1  0.20564816  0.20750955  0.57317912  1
  Al  Al6  1  0.78866442  0.09547824  0.32829740  1
  Al  Al7  1  0.89352856  0.20633082  0.07381607  1
  Al  Al8  1  0.10490400  0.43053973  0.32398820  1
  Al  Al9  1  0.22140813  0.53479623  0.07619961  1
  Al  Al10  1  0.77659813  0.42627006  0.82582523  1
  Al  Al11  1  0.88898129  0.53456881  0.57169151  1
  Al  Al12  1  0.44158211  0.43879037  0.32292776  1
  Al  Al13  1  0.55500882  0.54388222  0.07636450  1
  Al  Al14  1  0.10309596  0.41873106  0.82784551  1
  Al  Al15  1  0.77599670  0.42725362  0.32709850  1
  Al  Al16  1  0.89024416  0.53010733  0.08135508  1
  Al  Al17  1  0.45026475  0.43102534  0.82878769  1
  Al  Al18  1  0.55564567  0.54136159  0.57444698  1
  Al  Al19  1  0.11411738  0.75896341  0.32025625  1
  Al  Al20  1  0.22550878  0.87772104  0.08208443  1
  Al  Al21  1  0.89818205  0.87019723  0.56945656  1
  Al  Al22  1  0.44646002  0.75600095  0.32467829  1
  Al  Al23  1  0.55254738  0.86511053  0.07411123  1
  Al  Al24  1  0.21816194  0.87502602  0.57125369  1
  Al  Al25  1  0.78141146  0.75604905  0.32135934  1
  Al  Al26  1  0.89234952  0.87738213  0.08527330  1
  Al  Al27  1  0.43940539  0.75690361  0.82642951  1
  Sc  Sc28  1  0.43782167  0.09366324  0.33683084  1
  Sc  Sc29  1  0.56380917  0.20821997  0.09017841  1
  Sc  Sc30  1  0.43349049  0.10213998  0.84232289  1
  Sc  Sc31  1  0.56359440  0.20820255  0.58567603  1
  Sc  Sc32  1  0.21595640  0.53844085  0.58915802  1
  Sc  Sc33  1  0.78943883  0.75436844  0.84503531  1
  Sc  Sc34  1  0.11446676  0.76675303  0.84417755  1
  Sc  Sc35  1  0.56121252  0.86074046  0.59071424  1
  N  N36  1  0.19576915  0.21716221  0.37746153  1
  N  N37  1  0.10749084  0.09660624  0.13170383  1
  N  N38  1  0.88911527  0.20860729  0.87689682  1
  N  N39  1  0.80325669  0.08326544  0.62695703  1
  N  N40  1  0.56468738  0.21563486  0.35731348  1
  N  N41  1  0.43429025  0.08719464  0.10814414  1
  N  N42  1  0.19708008  0.21270315  0.88478008  1
  N  N43  1  0.11037251  0.09169698  0.62797368  1
  N  N44  1  0.88836246  0.20921271  0.38243081  1
  N  N45  1  0.80341660  0.08862979  0.13603961  1
  N  N46  1  0.56960659  0.21387377  0.86363877  1
  N  N47  1  0.42286327  0.10585659  0.61134007  1
  N  N48  1  0.21998974  0.53817984  0.36793870  1
  N  N49  1  0.11034937  0.42730450  0.12911073  1
  N  N50  1  0.89463115  0.51632237  0.88825240  1
  N  N51  1  0.77458408  0.43152973  0.62707259  1
  N  N52  1  0.55548837  0.53968317  0.37796355  1
  N  N53  1  0.43391097  0.45159300  0.12743630  1
  N  N54  1  0.22910779  0.51471080  0.87391043  1
  N  N55  1  0.09575102  0.41553386  0.63259962  1
  N  N56  1  0.88691417  0.53848349  0.37293984  1
  N  N57  1  0.77535995  0.42617051  0.13095296  1
  N  N58  1  0.55607855  0.54046880  0.88120407  1
  N  N59  1  0.45176609  0.44120834  0.63450976  1
  N  N60  1  0.22188636  0.87293628  0.37172519  1
  N  N61  1  0.11553758  0.75882019  0.11848191  1
  N  N62  1  0.88025145  0.89722469  0.89299913  1
  N  N63  1  0.80687840  0.74852460  0.62453671  1
  N  N64  1  0.56717849  0.85025015  0.37118034  1
  N  N65  1  0.44510009  0.76010486  0.12939690  1
  N  N66  1  0.23143929  0.88678154  0.88778569  1
  N  N67  1  0.10592274  0.77847492  0.62473591  1
  N  N68  1  0.89132207  0.87007098  0.36942013  1
  N  N69  1  0.77938333  0.75983886  0.11888204  1
  N  N70  1  0.54988955  0.85843506  0.87109513  1
  N  N71  1  0.42991344  0.75310405  0.63065519  1
