# generated using pymatgen
data_Sc2Al7N9
_symmetry_space_group_name_H-M   'P 1'
_cell_length_a   9.79591859
_cell_length_b   9.77043148
_cell_length_c   10.02391046
_cell_angle_alpha   90.01210204
_cell_angle_beta   90.05976464
_cell_angle_gamma   59.76928871
_symmetry_Int_Tables_number   1
_chemical_formula_structural   Sc2Al7N9
_chemical_formula_sum   'Sc8 Al28 N36'
_cell_volume   828.91902278
_cell_formula_units_Z   4
loop_
 _symmetry_equiv_pos_site_id
 _symmetry_equiv_pos_as_xyz
  1  'x, y, z'
loop_
 _atom_site_type_symbol
 _atom_site_label
 _atom_site_symmetry_multiplicity
 _atom_site_fract_x
 _atom_site_fract_y
 _atom_site_fract_z
 _atom_site_occupancy
  Al  Al0  1  0.10456199  0.09676007  0.38171176  1
  Al  Al1  1  0.20958236  0.20768277  0.13170404  1
  Al  Al2  1  0.78896229  0.09709527  0.88456337  1
  Al  Al3  1  0.89289639  0.20642560  0.62931304  1
  Al  Al4  1  0.10503686  0.09787939  0.88033348  1
  Al  Al5  1  0.20718712  0.20777288  0.63177311  1
  Al  Al6  1  0.78611402  0.09598818  0.37924752  1
  Al  Al7  1  0.89511291  0.20503635  0.13222997  1
  Al  Al8  1  0.09943949  0.42618176  0.37818123  1
  Al  Al9  1  0.21831128  0.54207513  0.13863376  1
  Al  Al10  1  0.77766285  0.42439976  0.88012652  1
  Al  Al11  1  0.89100294  0.52950613  0.62943663  1
  Al  Al12  1  0.45195467  0.43171656  0.37778953  1
  Al  Al13  1  0.55453927  0.54460644  0.13020483  1
  Al  Al14  1  0.10833107  0.42307855  0.88281463  1
  Al  Al15  1  0.77581354  0.42878643  0.38023609  1
  Al  Al16  1  0.88729873  0.53770537  0.13309590  1
  Al  Al17  1  0.44228839  0.43552969  0.88607808  1
  Al  Al18  1  0.55644792  0.54048500  0.63200031  1
  Al  Al19  1  0.11045980  0.76716091  0.38030160  1
  Al  Al20  1  0.22179619  0.87425922  0.13306745  1
  Al  Al21  1  0.89541538  0.87661200  0.62368101  1
  Al  Al22  1  0.44130308  0.75346750  0.37942110  1
  Al  Al23  1  0.55741078  0.86282813  0.14165293  1
  Al  Al24  1  0.22109917  0.87728940  0.62869918  1
  Al  Al25  1  0.78893411  0.75288352  0.38004480  1
  Al  Al26  1  0.89441522  0.87007317  0.13853392  1
  Al  Al27  1  0.44356225  0.75930722  0.88324524  1
  Sc  Sc28  1  0.43596573  0.10236390  0.36560920  1
  Sc  Sc29  1  0.56267308  0.20908901  0.11623660  1
  Sc  Sc30  1  0.43458059  0.09427583  0.87917836  1
  Sc  Sc31  1  0.56560054  0.20698249  0.63252357  1
  Sc  Sc32  1  0.22002149  0.53338464  0.61143584  1
  Sc  Sc33  1  0.78098267  0.75849104  0.87592437  1
  Sc  Sc34  1  0.11582247  0.75979000  0.87623312  1
  Sc  Sc35  1  0.55674011  0.86478361  0.61126610  1
  N  N36  1  0.19454228  0.21600466  0.31827967  1
  N  N37  1  0.11006994  0.09352104  0.07196493  1
  N  N38  1  0.88828448  0.20790938  0.82170245  1
  N  N39  1  0.79942840  0.08904410  0.56685313  1
  N  N40  1  0.56890197  0.21444188  0.33044261  1
  N  N41  1  0.43423659  0.08519736  0.09970785  1
  N  N42  1  0.19833636  0.21397398  0.82244712  1
  N  N43  1  0.10919553  0.09403087  0.57233713  1
  N  N44  1  0.88901633  0.20851218  0.32286760  1
  N  N45  1  0.80717815  0.08083450  0.07368017  1
  N  N46  1  0.56649393  0.21384856  0.85390190  1
  N  N47  1  0.42283676  0.11084402  0.58357289  1
  N  N48  1  0.22080977  0.53647600  0.33570020  1
  N  N49  1  0.10888964  0.42980378  0.07673706  1
  N  N50  1  0.89582792  0.51954447  0.82058929  1
  N  N51  1  0.77434942  0.42972783  0.57324875  1
  N  N52  1  0.55788362  0.53947502  0.31960853  1
  N  N53  1  0.42985975  0.45529373  0.07587731  1
  N  N54  1  0.23062270  0.51535834  0.82492697  1
  N  N55  1  0.09673225  0.41427104  0.56527761  1
  N  N56  1  0.88538700  0.53776259  0.32257840  1
  N  N57  1  0.77687431  0.42754818  0.07334236  1
  N  N58  1  0.55418378  0.54002097  0.82551204  1
  N  N59  1  0.45778344  0.43551210  0.56527434  1
  N  N60  1  0.22148401  0.87534283  0.32373828  1
  N  N61  1  0.11193111  0.76015111  0.08970041  1
  N  N62  1  0.88141111  0.89279893  0.81266487  1
  N  N63  1  0.80591381  0.74730149  0.57336704  1
  N  N64  1  0.56581918  0.85085077  0.33784098  1
  N  N65  1  0.44353097  0.76291590  0.07692967  1
  N  N66  1  0.23081949  0.88285104  0.82089834  1
  N  N67  1  0.10791876  0.77803126  0.57283391  1
  N  N68  1  0.88975957  0.87313999  0.32824801  1
  N  N69  1  0.77798617  0.76265414  0.09008961  1
  N  N70  1  0.54910529  0.85971362  0.82136043  1
  N  N71  1  0.43175281  0.75027449  0.56744984  1
