# generated using pymatgen
data_Sc2Al7N9
_symmetry_space_group_name_H-M   'P 1'
_cell_length_a   10.18096945
_cell_length_b   10.16044397
_cell_length_c   8.92302303
_cell_angle_alpha   89.98279277
_cell_angle_beta   89.95138208
_cell_angle_gamma   59.65771900
_symmetry_Int_Tables_number   1
_chemical_formula_structural   Sc2Al7N9
_chemical_formula_sum   'Sc8 Al28 N36'
_cell_volume   796.59218979
_cell_formula_units_Z   4
loop_
 _symmetry_equiv_pos_site_id
 _symmetry_equiv_pos_as_xyz
  1  'x, y, z'
loop_
 _atom_site_type_symbol
 _atom_site_label
 _atom_site_symmetry_multiplicity
 _atom_site_fract_x
 _atom_site_fract_y
 _atom_site_fract_z
 _atom_site_occupancy
  Al  Al0  1  0.10143883  0.09874433  0.33496177  1
  Al  Al1  1  0.20931804  0.20759108  0.09214715  1
  Al  Al2  1  0.78710708  0.09809829  0.83380824  1
  Al  Al3  1  0.89368459  0.20735268  0.58909879  1
  Al  Al4  1  0.10791795  0.09598770  0.83630191  1
  Al  Al5  1  0.20669594  0.20672221  0.58288922  1
  Al  Al6  1  0.78812135  0.09762229  0.34170956  1
  Al  Al7  1  0.89225356  0.20732413  0.08259704  1
  Al  Al8  1  0.10421766  0.42853232  0.33411628  1
  Al  Al9  1  0.22067120  0.53642043  0.09834967  1
  Al  Al10  1  0.77656923  0.42769609  0.83690826  1
  Al  Al11  1  0.88888711  0.53304455  0.58002181  1
  Al  Al12  1  0.44454386  0.43651442  0.33634576  1
  Al  Al13  1  0.55580327  0.54299343  0.08761589  1
  Al  Al14  1  0.10448167  0.42061739  0.84210250  1
  Al  Al15  1  0.77581531  0.42644294  0.33624490  1
  Al  Al16  1  0.88910900  0.53191829  0.09551069  1
  Al  Al17  1  0.44789129  0.43268087  0.84334570  1
  Al  Al18  1  0.55648796  0.54118592  0.58518984  1
  Al  Al19  1  0.11404127  0.76047113  0.33847203  1
  Al  Al20  1  0.22414063  0.87719316  0.09749735  1
  Al  Al21  1  0.89680639  0.87142553  0.57618255  1
  Al  Al22  1  0.44538235  0.75522762  0.33527768  1
  Al  Al23  1  0.55533335  0.86416932  0.09980372  1
  Al  Al24  1  0.21911422  0.87591208  0.57803356  1
  Al  Al25  1  0.78358664  0.75542224  0.33921939  1
  Al  Al26  1  0.89267099  0.87673221  0.10229193  1
  Al  Al27  1  0.43998127  0.75822994  0.84118934  1
  Sc  Sc28  1  0.43679345  0.09620882  0.34802541  1
  Sc  Sc29  1  0.56441658  0.20816298  0.09994026  1
  Sc  Sc30  1  0.43329115  0.09899497  0.85344174  1
  Sc  Sc31  1  0.56304694  0.20799391  0.59926530  1
  Sc  Sc32  1  0.21759448  0.53569435  0.59821704  1
  Sc  Sc33  1  0.78795320  0.75570030  0.85548552  1
  Sc  Sc34  1  0.11490131  0.76584311  0.85493025  1
  Sc  Sc35  1  0.55882638  0.86087051  0.59920742  1
  N  N36  1  0.19760815  0.21504909  0.36195711  1
  N  N37  1  0.10536766  0.09699302  0.11990596  1
  N  N38  1  0.88904043  0.20899055  0.86270290  1
  N  N39  1  0.80202441  0.08389746  0.61097203  1
  N  N40  1  0.56481212  0.21514755  0.35347941  1
  N  N41  1  0.43461916  0.08817219  0.10461765  1
  N  N42  1  0.19873383  0.21225188  0.87340666  1
  N  N43  1  0.11082246  0.09112569  0.61595102  1
  N  N44  1  0.88860732  0.21076221  0.37303848  1
  N  N45  1  0.80103974  0.09068346  0.12477967  1
  N  N46  1  0.56890495  0.21314867  0.85484705  1
  N  N47  1  0.42347743  0.10431042  0.60292495  1
  N  N48  1  0.22089137  0.53581826  0.35131791  1
  N  N49  1  0.10932864  0.42748001  0.11755750  1
  N  N50  1  0.89393813  0.51962112  0.87665081  1
  N  N51  1  0.77462234  0.43205433  0.61600498  1
  N  N52  1  0.55683315  0.53930934  0.36523973  1
  N  N53  1  0.43622680  0.44883960  0.11395413  1
  N  N54  1  0.22767686  0.51790307  0.86435310  1
  N  N55  1  0.09703714  0.41653544  0.61721376  1
  N  N56  1  0.88659225  0.53630116  0.35849347  1
  N  N57  1  0.77542172  0.42558337  0.11873923  1
  N  N58  1  0.55658143  0.54050923  0.86931842  1
  N  N59  1  0.45078423  0.44085821  0.61787754  1
  N  N60  1  0.22233763  0.87464101  0.35671915  1
  N  N61  1  0.11532917  0.75951373  0.11501022  1
  N  N62  1  0.88256116  0.89354284  0.87946901  1
  N  N63  1  0.80341888  0.74958385  0.60299836  1
  N  N64  1  0.56505989  0.85252027  0.35225739  1
  N  N65  1  0.44450867  0.75920808  0.11734091  1
  N  N66  1  0.22992070  0.88514644  0.87708728  1
  N  N67  1  0.10746050  0.77583071  0.60251365  1
  N  N68  1  0.89080330  0.87199979  0.35475814  1
  N  N69  1  0.78112244  0.75945025  0.11507845  1
  N  N70  1  0.55156663  0.85846374  0.86034788  1
  N  N71  1  0.43052976  0.75372203  0.61545178  1
