# generated using pymatgen
data_Sc2Al7N9
_symmetry_space_group_name_H-M   'P 1'
_cell_length_a   9.77152342
_cell_length_b   9.74991881
_cell_length_c   10.09319583
_cell_angle_alpha   90.04477158
_cell_angle_beta   89.96006544
_cell_angle_gamma   59.77017744
_symmetry_Int_Tables_number   1
_chemical_formula_structural   Sc2Al7N9
_chemical_formula_sum   'Sc8 Al28 N36'
_cell_volume   830.82911148
_cell_formula_units_Z   4
loop_
 _symmetry_equiv_pos_site_id
 _symmetry_equiv_pos_as_xyz
  1  'x, y, z'
loop_
 _atom_site_type_symbol
 _atom_site_label
 _atom_site_symmetry_multiplicity
 _atom_site_fract_x
 _atom_site_fract_y
 _atom_site_fract_z
 _atom_site_occupancy
  Al  Al0  1  0.10341924  0.09771986  0.31645744  1
  Al  Al1  1  0.21062791  0.20745744  0.06518299  1
  Al  Al2  1  0.78611684  0.09881877  0.81498946  1
  Al  Al3  1  0.89366345  0.20562181  0.56736675  1
  Al  Al4  1  0.10667669  0.09727645  0.81600076  1
  Al  Al5  1  0.20662947  0.20794788  0.56503075  1
  Al  Al6  1  0.78843890  0.09427641  0.31523510  1
  Al  Al7  1  0.89447675  0.20560061  0.06527592  1
  Al  Al8  1  0.10416472  0.43026155  0.31287757  1
  Al  Al9  1  0.22123296  0.53638677  0.06758325  1
  Al  Al10  1  0.77702552  0.42528839  0.81711927  1
  Al  Al11  1  0.88937446  0.53365350  0.56280310  1
  Al  Al12  1  0.44240057  0.43837188  0.31070769  1
  Al  Al13  1  0.55502198  0.54406512  0.06573008  1
  Al  Al14  1  0.10439840  0.41975590  0.81925031  1
  Al  Al15  1  0.77595140  0.42753868  0.31742212  1
  Al  Al16  1  0.88978928  0.53211670  0.06995194  1
  Al  Al17  1  0.44980991  0.43021227  0.81870203  1
  Al  Al18  1  0.55534169  0.54100201  0.56651139  1
  Al  Al19  1  0.11279332  0.76086228  0.31036793  1
  Al  Al20  1  0.22473140  0.87680083  0.07017457  1
  Al  Al21  1  0.89682498  0.87160786  0.55965405  1
  Al  Al22  1  0.44530102  0.75585223  0.31304971  1
  Al  Al23  1  0.55368519  0.86491017  0.06457224  1
  Al  Al24  1  0.21882786  0.87520441  0.56275895  1
  Al  Al25  1  0.78198810  0.75617642  0.31137820  1
  Al  Al26  1  0.89325958  0.87504796  0.07236198  1
  Al  Al27  1  0.44090509  0.75733788  0.81786533  1
  Sc  Sc28  1  0.43627648  0.09516746  0.31736098  1
  Sc  Sc29  1  0.56388717  0.20832012  0.07499643  1
  Sc  Sc30  1  0.43523244  0.10113940  0.82778879  1
  Sc  Sc31  1  0.56387858  0.20809200  0.56833672  1
  Sc  Sc32  1  0.21685995  0.53750603  0.57119282  1
  Sc  Sc33  1  0.78719123  0.75488826  0.82776750  1
  Sc  Sc34  1  0.11536615  0.76436126  0.82741547  1
  Sc  Sc35  1  0.55919558  0.86252303  0.57110455  1
  N  N36  1  0.19611582  0.21779340  0.37591159  1
  N  N37  1  0.10920955  0.09607963  0.12745863  1
  N  N38  1  0.88952210  0.20781064  0.87404729  1
  N  N39  1  0.80188577  0.08380661  0.62526058  1
  N  N40  1  0.56447326  0.21530452  0.35107623  1
  N  N41  1  0.43397397  0.08795652  0.10254225  1
  N  N42  1  0.19793262  0.21258348  0.87944858  1
  N  N43  1  0.11017301  0.09216896  0.62433660  1
  N  N44  1  0.88799153  0.20808536  0.37732279  1
  N  N45  1  0.80403940  0.08664485  0.13002502  1
  N  N46  1  0.56986805  0.21386552  0.86157044  1
  N  N47  1  0.42394611  0.10613070  0.61034388  1
  N  N48  1  0.22019235  0.53820230  0.35956059  1
  N  N49  1  0.11002708  0.42685400  0.12412570  1
  N  N50  1  0.89448153  0.51767871  0.88317447  1
  N  N51  1  0.77501770  0.43022309  0.62338848  1
  N  N52  1  0.55496621  0.53993299  0.37491419  1
  N  N53  1  0.43470238  0.45155013  0.12338142  1
  N  N54  1  0.23016476  0.51477956  0.87387368  1
  N  N55  1  0.09645621  0.41689466  0.63023469  1
  N  N56  1  0.88711669  0.53843298  0.37018993  1
  N  N57  1  0.77564034  0.42678330  0.12638075  1
  N  N58  1  0.55611611  0.54002529  0.87628751  1
  N  N59  1  0.45110151  0.43998697  0.63156567  1
  N  N60  1  0.22235543  0.87321708  0.36921847  1
  N  N61  1  0.11475830  0.75992529  0.11629403  1
  N  N62  1  0.88115525  0.89472084  0.88710929  1
  N  N63  1  0.80355856  0.75005200  0.61668557  1
  N  N64  1  0.56559792  0.85205053  0.36217405  1
  N  N65  1  0.44437099  0.76018777  0.12424216  1
  N  N66  1  0.23085265  0.88558808  0.88220828  1
  N  N67  1  0.10595250  0.77710326  0.61729376  1
  N  N68  1  0.89040779  0.87127892  0.36687741  1
  N  N69  1  0.78014960  0.75978045  0.11676462  1
  N  N70  1  0.55003451  0.85860332  0.87308175  1
  N  N71  1  0.43097623  0.75359206  0.62838325  1
