# generated using pymatgen
data_Sc2Al7N9
_symmetry_space_group_name_H-M   'P 1'
_cell_length_a   9.76873157
_cell_length_b   9.74385754
_cell_length_c   10.09060071
_cell_angle_alpha   90.01084505
_cell_angle_beta   90.05766582
_cell_angle_gamma   59.81026281
_symmetry_Int_Tables_number   1
_chemical_formula_structural   Sc2Al7N9
_chemical_formula_sum   'Sc8 Al28 N36'
_cell_volume   830.20050140
_cell_formula_units_Z   4
loop_
 _symmetry_equiv_pos_site_id
 _symmetry_equiv_pos_as_xyz
  1  'x, y, z'
loop_
 _atom_site_type_symbol
 _atom_site_label
 _atom_site_symmetry_multiplicity
 _atom_site_fract_x
 _atom_site_fract_y
 _atom_site_fract_z
 _atom_site_occupancy
  Al  Al0  1  0.10461714  0.09689093  0.40565902  1
  Al  Al1  1  0.20936814  0.20808975  0.15635441  1
  Al  Al2  1  0.78885136  0.09664114  0.90837222  1
  Al  Al3  1  0.89268248  0.20643917  0.65297317  1
  Al  Al4  1  0.10496641  0.09801387  0.90368667  1
  Al  Al5  1  0.20770036  0.20784849  0.65522892  1
  Al  Al6  1  0.78555107  0.09634705  0.40352791  1
  Al  Al7  1  0.89532268  0.20478769  0.15588617  1
  Al  Al8  1  0.09983971  0.42664277  0.40246616  1
  Al  Al9  1  0.21845539  0.54197473  0.16249489  1
  Al  Al10  1  0.77753992  0.42440258  0.90374015  1
  Al  Al11  1  0.89085320  0.52994611  0.65287394  1
  Al  Al12  1  0.45176873  0.43156885  0.40186925  1
  Al  Al13  1  0.55446627  0.54478136  0.15440678  1
  Al  Al14  1  0.10812273  0.42315429  0.90633128  1
  Al  Al15  1  0.77596277  0.42866464  0.40393715  1
  Al  Al16  1  0.88753381  0.53750514  0.15740985  1
  Al  Al17  1  0.44219530  0.43563645  0.91047002  1
  Al  Al18  1  0.55653980  0.54022614  0.65532958  1
  Al  Al19  1  0.11046563  0.76708980  0.40361322  1
  Al  Al20  1  0.22206879  0.87442945  0.15728014  1
  Al  Al21  1  0.89518325  0.87647880  0.64709709  1
  Al  Al22  1  0.44150719  0.75372449  0.40362567  1
  Al  Al23  1  0.55731124  0.86273722  0.16594290  1
  Al  Al24  1  0.22077471  0.87726088  0.65221861  1
  Al  Al25  1  0.78843229  0.75311705  0.40375937  1
  Al  Al26  1  0.89422643  0.87025578  0.16311054  1
  Al  Al27  1  0.44344034  0.75896372  0.90686986  1
  Sc  Sc28  1  0.43649871  0.10229688  0.38972358  1
  Sc  Sc29  1  0.56298275  0.20927708  0.14054273  1
  Sc  Sc30  1  0.43388486  0.09407552  0.90600255  1
  Sc  Sc31  1  0.56503272  0.20698759  0.65862347  1
  Sc  Sc32  1  0.21991594  0.53429499  0.63672585  1
  Sc  Sc33  1  0.78086401  0.75839134  0.90134881  1
  Sc  Sc34  1  0.11514568  0.76042865  0.90194008  1
  Sc  Sc35  1  0.55664163  0.86529307  0.63680365  1
  N  N36  1  0.19451456  0.21643267  0.34167080  1
  N  N37  1  0.11039910  0.09363190  0.09464902  1
  N  N38  1  0.88799962  0.20780062  0.84452409  1
  N  N39  1  0.79827274  0.08948235  0.59010231  1
  N  N40  1  0.56903780  0.21486137  0.35253372  1
  N  N41  1  0.43411900  0.08534067  0.12395413  1
  N  N42  1  0.19866739  0.21400200  0.84478493  1
  N  N43  1  0.10910426  0.09423036  0.59534661  1
  N  N44  1  0.88909807  0.20829031  0.34572599  1
  N  N45  1  0.80763920  0.08032471  0.09616100  1
  N  N46  1  0.56583164  0.21347600  0.87830128  1
  N  N47  1  0.42315688  0.11088542  0.60544036  1
  N  N48  1  0.22102094  0.53647390  0.35814192  1
  N  N49  1  0.10886654  0.42972227  0.09941885  1
  N  N50  1  0.89553039  0.51996576  0.84308663  1
  N  N51  1  0.77450170  0.42958187  0.59603351  1
  N  N52  1  0.55774033  0.53963920  0.34288788  1
  N  N53  1  0.42983080  0.45557596  0.09876203  1
  N  N54  1  0.23029902  0.51629733  0.84872598  1
  N  N55  1  0.09706832  0.41481292  0.58850167  1
  N  N56  1  0.88572770  0.53767245  0.34579174  1
  N  N57  1  0.77685411  0.42754616  0.09627471  1
  N  N58  1  0.55421714  0.53971461  0.84806175  1
  N  N59  1  0.45778792  0.43484761  0.58826050  1
  N  N60  1  0.22178293  0.87556802  0.34685626  1
  N  N61  1  0.11181965  0.76038550  0.11386481  1
  N  N62  1  0.88125450  0.89234229  0.83511010  1
  N  N63  1  0.80530304  0.74754095  0.59556116  1
  N  N64  1  0.56576376  0.85079738  0.36011558  1
  N  N65  1  0.44349247  0.76289980  0.09962153  1
  N  N66  1  0.23052982  0.88262392  0.84349684  1
  N  N67  1  0.10750246  0.77839580  0.59459993  1
  N  N68  1  0.88934911  0.87359875  0.35146519  1
  N  N69  1  0.77805730  0.76255414  0.11393705  1
  N  N70  1  0.54899371  0.86011310  0.84533748  1
  N  N71  1  0.43192205  0.75041070  0.59061681  1
