# generated using pymatgen
data_Sc2Al7N9
_symmetry_space_group_name_H-M   'P 1'
_cell_length_a   9.76852804
_cell_length_b   9.74354675
_cell_length_c   10.09135014
_cell_angle_alpha   90.01114151
_cell_angle_beta   90.05769309
_cell_angle_gamma   59.80981528
_symmetry_Int_Tables_number   1
_chemical_formula_structural   Sc2Al7N9
_chemical_formula_sum   'Sc8 Al28 N36'
_cell_volume   830.21460910
_cell_formula_units_Z   4
loop_
 _symmetry_equiv_pos_site_id
 _symmetry_equiv_pos_as_xyz
  1  'x, y, z'
loop_
 _atom_site_type_symbol
 _atom_site_label
 _atom_site_symmetry_multiplicity
 _atom_site_fract_x
 _atom_site_fract_y
 _atom_site_fract_z
 _atom_site_occupancy
  Al  Al0  1  0.10466006  0.09683575  0.38983103  1
  Al  Al1  1  0.20941152  0.20803620  0.14053405  1
  Al  Al2  1  0.78888989  0.09658910  0.89253839  1
  Al  Al3  1  0.89272808  0.20638553  0.63714749  1
  Al  Al4  1  0.10501309  0.09796142  0.88785530  1
  Al  Al5  1  0.20774323  0.20779817  0.63940056  1
  Al  Al6  1  0.78559724  0.09628950  0.38770831  1
  Al  Al7  1  0.89536858  0.20472933  0.14005228  1
  Al  Al8  1  0.09989086  0.42659359  0.38664298  1
  Al  Al9  1  0.21850632  0.54191330  0.14666290  1
  Al  Al10  1  0.77758547  0.42435348  0.88791024  1
  Al  Al11  1  0.89089472  0.52990209  0.63704082  1
  Al  Al12  1  0.45180677  0.43151390  0.38604841  1
  Al  Al13  1  0.55451469  0.54472208  0.13858422  1
  Al  Al14  1  0.10816004  0.42310769  0.89050569  1
  Al  Al15  1  0.77601088  0.42860552  0.38810903  1
  Al  Al16  1  0.88758106  0.53744854  0.14159169  1
  Al  Al17  1  0.44224816  0.43557918  0.89464823  1
  Al  Al18  1  0.55658666  0.54016876  0.63949880  1
  Al  Al19  1  0.11051312  0.76702524  0.38778047  1
  Al  Al20  1  0.22211656  0.87437305  0.14146142  1
  Al  Al21  1  0.89522729  0.87642026  0.63126556  1
  Al  Al22  1  0.44155693  0.75366906  0.38780158  1
  Al  Al23  1  0.55734911  0.86268480  0.15011229  1
  Al  Al24  1  0.22081576  0.87720431  0.63638491  1
  Al  Al25  1  0.78846331  0.75306831  0.38792872  1
  Al  Al26  1  0.89426959  0.87020234  0.14729207  1
  Al  Al27  1  0.44348078  0.75890941  0.89104588  1
  Sc  Sc28  1  0.43654216  0.10223307  0.37391368  1
  Sc  Sc29  1  0.56303134  0.20921576  0.12474030  1
  Sc  Sc30  1  0.43392052  0.09403790  0.89019476  1
  Sc  Sc31  1  0.56507662  0.20692933  0.64279825  1
  Sc  Sc32  1  0.21996061  0.53424802  0.62092919  1
  Sc  Sc33  1  0.78090735  0.75834326  0.88554519  1
  Sc  Sc34  1  0.11518187  0.76038933  0.88613608  1
  Sc  Sc35  1  0.55668279  0.86523935  0.62101348  1
  N  N36  1  0.19455812  0.21637859  0.32583825  1
  N  N37  1  0.11044796  0.09357474  0.07881048  1
  N  N38  1  0.88804467  0.20774691  0.82868854  1
  N  N39  1  0.79831737  0.08942983  0.57426940  1
  N  N40  1  0.56908152  0.21479929  0.33671153  1
  N  N41  1  0.43415962  0.08529162  0.10812049  1
  N  N42  1  0.19870890  0.21395480  0.82894360  1
  N  N43  1  0.10914753  0.09417920  0.57950885  1
  N  N44  1  0.88914236  0.20822977  0.32988432  1
  N  N45  1  0.80768259  0.08026704  0.08031629  1
  N  N46  1  0.56587429  0.21342153  0.86245374  1
  N  N47  1  0.42320125  0.11082528  0.58960568  1
  N  N48  1  0.22107118  0.53641289  0.34229400  1
  N  N49  1  0.10890919  0.42966696  0.08358219  1
  N  N50  1  0.89556944  0.51992446  0.82724433  1
  N  N51  1  0.77454957  0.42952713  0.58019630  1
  N  N52  1  0.55778584  0.53957810  0.32705564  1
  N  N53  1  0.42988596  0.45551071  0.08292674  1
  N  N54  1  0.23034040  0.51625681  0.83291345  1
  N  N55  1  0.09711726  0.41476909  0.57266829  1
  N  N56  1  0.88577583  0.53761492  0.32996122  1
  N  N57  1  0.77690165  0.42749324  0.08043748  1
  N  N58  1  0.55426405  0.53966025  0.83222288  1
  N  N59  1  0.45782662  0.43479439  0.57242744  1
  N  N60  1  0.22183073  0.87550974  0.33102471  1
  N  N61  1  0.11186443  0.76033209  0.09804368  1
  N  N62  1  0.88129840  0.89228356  0.81926761  1
  N  N63  1  0.80533176  0.74749777  0.57971518  1
  N  N64  1  0.56580344  0.85073974  0.34426220  1
  N  N65  1  0.44353409  0.76284120  0.08378539  1
  N  N66  1  0.23057294  0.88256786  0.82765310  1
  N  N67  1  0.10754523  0.77833908  0.57875133  1
  N  N68  1  0.88939113  0.87354386  0.33563181  1
  N  N69  1  0.77810257  0.76249979  0.09811471  1
  N  N70  1  0.54903442  0.86006914  0.82953034  1
  N  N71  1  0.43197034  0.75035801  0.57478187  1
