# generated using pymatgen
data_GdAl17N18
_symmetry_space_group_name_H-M   'P 1'
_cell_length_a   9.51755700
_cell_length_b   9.51755704
_cell_length_c   10.11215253
_cell_angle_alpha   90.00000007
_cell_angle_beta   89.99999988
_cell_angle_gamma   60.00000150
_symmetry_Int_Tables_number   1
_chemical_formula_structural   GdAl17N18
_chemical_formula_sum   'Gd2 Al34 N36'
_cell_volume   793.27766136
_cell_formula_units_Z   2
loop_
 _symmetry_equiv_pos_site_id
 _symmetry_equiv_pos_as_xyz
  1  'x, y, z'
loop_
 _atom_site_type_symbol
 _atom_site_label
 _atom_site_symmetry_multiplicity
 _atom_site_fract_x
 _atom_site_fract_y
 _atom_site_fract_z
 _atom_site_occupancy
  Al  Al0  1  0.11104494  0.09437828  0.38969309  1
  Al  Al1  1  0.22222223  0.20555556  0.13936311  1
  Al  Al2  1  0.77668848  0.09662303  0.89626982  1
  Al  Al3  1  0.89328101  0.20751958  0.63888646  1
  Al  Al4  1  0.44457677  0.09437827  0.38969308  1
  Al  Al5  1  0.55419007  0.20447126  0.13921730  1
  Al  Al6  1  0.11149936  0.09483269  0.88861445  1
  Al  Al7  1  0.22222222  0.20555555  0.63768948  1
  Al  Al8  1  0.77339260  0.10321479  0.38438048  1
  Al  Al9  1  0.89133868  0.20447127  0.13921731  1
  Al  Al10  1  0.44366794  0.09483268  0.88861445  1
  Al  Al11  1  0.54919937  0.20751958  0.63888646  1
  Al  Al12  1  0.11104494  0.42791010  0.38969308  1
  Al  Al13  1  0.22113792  0.53752340  0.13921730  1
  Al  Al14  1  0.77930488  0.42701422  0.89653993  1
  Al  Al15  1  0.89328102  0.53253271  0.63888647  1
  Al  Al16  1  0.43980120  0.42313454  0.38392252  1
  Al  Al17  1  0.55555556  0.53888890  0.14098649  1
  Al  Al18  1  0.11149935  0.42700127  0.88861445  1
  Al  Al19  1  0.22418625  0.53253270  0.63888646  1
  Al  Al20  1  0.78706424  0.42313455  0.38392253  1
  Al  Al21  1  0.89133868  0.53752342  0.13921730  1
  Al  Al22  1  0.44368088  0.42701421  0.89653993  1
  Al  Al23  1  0.11988146  0.75672594  0.38438048  1
  Al  Al24  1  0.22113794  0.87467201  0.13921731  1
  Al  Al25  1  0.77668849  0.76002182  0.89626982  1
  Al  Al26  1  0.43980121  0.77039757  0.38392253  1
  Al  Al27  1  0.55419008  0.87467201  0.13921730  1
  Al  Al28  1  0.11328969  0.76002182  0.89626982  1
  Al  Al29  1  0.22418624  0.87661435  0.63888646  1
  Al  Al30  1  0.77339260  0.75672593  0.38438047  1
  Al  Al31  1  0.88888890  0.87222224  0.14138351  1
  Al  Al32  1  0.44368089  0.76263822  0.89653993  1
  Al  Al33  1  0.54919938  0.87661436  0.63888647  1
  Gd  Gd34  1  0.55555555  0.53888888  0.62973459  1
  Gd  Gd35  1  0.88888889  0.87222222  0.63159665  1
  N  N36  1  0.22222222  0.20555556  0.33110746  1
  N  N37  1  0.11171236  0.09504569  0.07833249  1
  N  N38  1  0.88815828  0.20604230  0.83168686  1
  N  N39  1  0.76014762  0.12970472  0.57183977  1
  N  N40  1  0.55412988  0.20335559  0.32604502  1
  N  N41  1  0.44324196  0.09504569  0.07833248  1
  N  N42  1  0.22222222  0.20555555  0.82858631  1
  N  N43  1  0.11063413  0.09396746  0.58094157  1
  N  N44  1  0.89251453  0.20335560  0.32604503  1
  N  N45  1  0.77694641  0.09610718  0.08547515  1
  N  N46  1  0.55579942  0.20604229  0.83168686  1
  N  N47  1  0.44539839  0.09396746  0.58094157  1
  N  N48  1  0.22002226  0.53746321  0.32604502  1
  N  N49  1  0.11171236  0.42657529  0.07833248  1
  N  N50  1  0.88815828  0.53913276  0.83168686  1
  N  N51  1  0.81133283  0.41100024  0.56872665  1
  N  N52  1  0.55555556  0.53888889  0.33763048  1
  N  N53  1  0.44349614  0.42682947  0.08550861  1
  N  N54  1  0.22270895  0.53913275  0.83168686  1
  N  N55  1  0.11063412  0.42873172  0.58094157  1
  N  N56  1  0.89251453  0.53746321  0.32604503  1
  N  N57  1  0.77967440  0.42682948  0.08550862  1
  N  N58  1  0.55555555  0.53888888  0.85346504  1
  N  N59  1  0.42766691  0.41100024  0.56872664  1
  N  N60  1  0.22002226  0.87584786  0.32604503  1
  N  N61  1  0.11277385  0.76027974  0.08547515  1
  N  N62  1  0.88888889  0.87222223  0.85361400  1
  N  N63  1  0.76014763  0.74348096  0.57183977  1
  N  N64  1  0.55412987  0.87584786  0.32604503  1
  N  N65  1  0.44349615  0.76300773  0.08550861  1
  N  N66  1  0.22270897  0.87149162  0.83168686  1
  N  N67  1  0.14637140  0.74348095  0.57183978  1
  N  N68  1  0.88888890  0.87222223  0.33931454  1
  N  N69  1  0.77694643  0.76027976  0.08547515  1
  N  N70  1  0.55579943  0.87149162  0.83168686  1
  N  N71  1  0.42766690  0.79466617  0.56872665  1
