# generated using pymatgen
data_GdAl17N18
_symmetry_space_group_name_H-M   'P 1'
_cell_length_a   9.51739721
_cell_length_b   9.51739719
_cell_length_c   10.11254418
_cell_angle_alpha   89.99999979
_cell_angle_beta   89.99999964
_cell_angle_gamma   60.00000171
_symmetry_Int_Tables_number   1
_chemical_formula_structural   GdAl17N18
_chemical_formula_sum   'Gd2 Al34 N36'
_cell_volume   793.28174512
_cell_formula_units_Z   2
loop_
 _symmetry_equiv_pos_site_id
 _symmetry_equiv_pos_as_xyz
  1  'x, y, z'
loop_
 _atom_site_type_symbol
 _atom_site_label
 _atom_site_symmetry_multiplicity
 _atom_site_fract_x
 _atom_site_fract_y
 _atom_site_fract_z
 _atom_site_occupancy
  Al  Al0  1  0.11149747  0.09483080  0.31210877  1
  Al  Al1  1  0.22222223  0.20555556  0.06136427  1
  Al  Al2  1  0.77340044  0.10319913  0.81634475  1
  Al  Al3  1  0.89327902  0.20751917  0.56184435  1
  Al  Al4  1  0.44367173  0.09483079  0.31210877  1
  Al  Al5  1  0.55418805  0.20447154  0.06149351  1
  Al  Al6  1  0.11104654  0.09437988  0.81102906  1
  Al  Al7  1  0.22222222  0.20555556  0.56302882  1
  Al  Al8  1  0.77668330  0.09663340  0.30443998  1
  Al  Al9  1  0.89134043  0.20447155  0.06149351  1
  Al  Al10  1  0.44457357  0.09437987  0.81102906  1
  Al  Al11  1  0.54920178  0.20751918  0.56184435  1
  Al  Al12  1  0.11149746  0.42700506  0.31210877  1
  Al  Al13  1  0.22113821  0.53752138  0.06149351  1
  Al  Al14  1  0.78704945  0.42314194  0.81680031  1
  Al  Al15  1  0.89327903  0.53253511  0.56184435  1
  Al  Al16  1  0.44367591  0.42700924  0.30417247  1
  Al  Al17  1  0.55555556  0.53888890  0.05975313  1
  Al  Al18  1  0.11104654  0.42790691  0.81102906  1
  Al  Al19  1  0.22418585  0.53253511  0.56184435  1
  Al  Al20  1  0.77931482  0.42700925  0.30417247  1
  Al  Al21  1  0.89134042  0.53752139  0.06149351  1
  Al  Al22  1  0.43980860  0.42314194  0.81680031  1
  Al  Al23  1  0.11330006  0.76001663  0.30443998  1
  Al  Al24  1  0.22113822  0.87467376  0.06149351  1
  Al  Al25  1  0.77340043  0.75673376  0.81634475  1
  Al  Al26  1  0.44367592  0.76264816  0.30417247  1
  Al  Al27  1  0.55418806  0.87467376  0.06149351  1
  Al  Al28  1  0.11986580  0.75673377  0.81634476  1
  Al  Al29  1  0.22418584  0.87661235  0.56184435  1
  Al  Al30  1  0.77668330  0.76001664  0.30443998  1
  Al  Al31  1  0.88888890  0.87222224  0.05935771  1
  Al  Al32  1  0.43980861  0.77038278  0.81680031  1
  Al  Al33  1  0.54920177  0.87661236  0.56184435  1
  Gd  Gd34  1  0.55555555  0.53888889  0.57094320  1
  Gd  Gd35  1  0.88888889  0.87222222  0.56907773  1
  N  N36  1  0.22222223  0.20555556  0.37213775  1
  N  N37  1  0.11171045  0.09504379  0.12239479  1
  N  N38  1  0.89251374  0.20335630  0.87467426  1
  N  N39  1  0.76015739  0.12968519  0.62889130  1
  N  N40  1  0.55580107  0.20604273  0.36904603  1
  N  N41  1  0.44324577  0.09504378  0.12239478  1
  N  N42  1  0.22222222  0.20555556  0.86962631  1
  N  N43  1  0.11063644  0.09396977  0.61978728  1
  N  N44  1  0.88815620  0.20604274  0.36904603  1
  N  N45  1  0.77694097  0.09611807  0.11524518  1
  N  N46  1  0.55412996  0.20335630  0.87467426  1
  N  N47  1  0.44539377  0.09396977  0.61978728  1
  N  N48  1  0.22270940  0.53913440  0.36904603  1
  N  N49  1  0.11171045  0.42657910  0.12239478  1
  N  N50  1  0.89251374  0.53746329  0.87467426  1
  N  N51  1  0.81131544  0.41100893  0.63200133  1
  N  N52  1  0.55555555  0.53888888  0.34722339  1
  N  N53  1  0.44349134  0.42682467  0.11521364  1
  N  N54  1  0.22002297  0.53746330  0.87467426  1
  N  N55  1  0.11063643  0.42872711  0.61978728  1
  N  N56  1  0.88815620  0.53913440  0.36904603  1
  N  N57  1  0.77968400  0.42682467  0.11521364  1
  N  N58  1  0.55555556  0.53888889  0.86311735  1
  N  N59  1  0.42767561  0.41100895  0.63200133  1
  N  N60  1  0.22270941  0.87148953  0.36904603  1
  N  N61  1  0.11278473  0.76027430  0.11524518  1
  N  N62  1  0.88888889  0.87222223  0.86143726  1
  N  N63  1  0.76015740  0.74349073  0.62889130  1
  N  N64  1  0.55580107  0.87148953  0.36904603  1
  N  N65  1  0.44349134  0.76301734  0.11521364  1
  N  N66  1  0.22002297  0.87584708  0.87467426  1
  N  N67  1  0.14635186  0.74349072  0.62889130  1
  N  N68  1  0.88888889  0.87222222  0.34707002  1
  N  N69  1  0.77694098  0.76027431  0.11524518  1
  N  N70  1  0.55412996  0.87584707  0.87467426  1
  N  N71  1  0.42767560  0.79464877  0.63200133  1
