# generated using pymatgen
data_GdAl17N18
_symmetry_space_group_name_H-M   'P 1'
_cell_length_a   9.92772176
_cell_length_b   9.92772131
_cell_length_c   8.95586477
_cell_angle_alpha   89.99998823
_cell_angle_beta   89.99998089
_cell_angle_gamma   60.00000632
_symmetry_Int_Tables_number   1
_chemical_formula_structural   GdAl17N18
_chemical_formula_sum   'Gd2 Al34 N36'
_cell_volume   764.42936338
_cell_formula_units_Z   2
loop_
 _symmetry_equiv_pos_site_id
 _symmetry_equiv_pos_as_xyz
  1  'x, y, z'
loop_
 _atom_site_type_symbol
 _atom_site_label
 _atom_site_symmetry_multiplicity
 _atom_site_fract_x
 _atom_site_fract_y
 _atom_site_fract_z
 _atom_site_occupancy
  Al  Al0  1  0.11025144  0.09358475  0.37230611  1
  Al  Al1  1  0.22222231  0.20555566  0.12578261  1
  Al  Al2  1  0.77545733  0.09908550  0.87899485  1
  Al  Al3  1  0.89263077  0.20668083  0.62364524  1
  Al  Al4  1  0.44616376  0.09358481  0.37230703  1
  Al  Al5  1  0.55270942  0.20387788  0.11769448  1
  Al  Al6  1  0.11289555  0.09622907  0.86999582  1
  Al  Al7  1  0.22222221  0.20555544  0.61514745  1
  Al  Al8  1  0.77349799  0.10300379  0.35680247  1
  Al  Al9  1  0.89341252  0.20387797  0.11769474  1
  Al  Al10  1  0.44087563  0.09622883  0.86999530  1
  Al  Al11  1  0.55068868  0.20668075  0.62364543  1
  Al  Al12  1  0.11025143  0.42949721  0.37230710  1
  Al  Al13  1  0.22054450  0.53604282  0.11769391  1
  Al  Al14  1  0.78169405  0.42581971  0.88010546  1
  Al  Al15  1  0.89263046  0.53402203  0.62364573  1
  Al  Al16  1  0.43941812  0.42275167  0.35895208  1
  Al  Al17  1  0.55555551  0.53888904  0.11335043  1
  Al  Al18  1  0.11289553  0.42420872  0.86999533  1
  Al  Al19  1  0.22334754  0.53402180  0.62364543  1
  Al  Al20  1  0.78783059  0.42275138  0.35895258  1
  Al  Al21  1  0.89341283  0.53604262  0.11769503  1
  Al  Al22  1  0.44248645  0.42581947  0.88010484  1
  Al  Al23  1  0.11966981  0.75683165  0.35680157  1
  Al  Al24  1  0.22054477  0.87674574  0.11769390  1
  Al  Al25  1  0.77545735  0.75879065  0.87899601  1
  Al  Al26  1  0.43941820  0.77116339  0.35895249  1
  Al  Al27  1  0.55270921  0.87674606  0.11769477  1
  Al  Al28  1  0.11575219  0.75879063  0.87899368  1
  Al  Al29  1  0.22334736  0.87596422  0.62364493  1
  Al  Al30  1  0.77349791  0.75683127  0.35680271  1
  Al  Al31  1  0.88888890  0.87222229  0.11178861  1
  Al  Al32  1  0.44248646  0.76502753  0.88010415  1
  Al  Al33  1  0.55068893  0.87596381  0.62364541  1
  Gd  Gd34  1  0.55555597  0.53888850  0.60587659  1
  Gd  Gd35  1  0.88888835  0.87222233  0.60573444  1
  N  N36  1  0.22222229  0.20555570  0.34507099  1
  N  N37  1  0.11338982  0.09672328  0.08575042  1
  N  N38  1  0.88946717  0.20549291  0.84482809  1
  N  N39  1  0.76121839  0.12756341  0.58292354  1
  N  N40  1  0.55370148  0.20267437  0.33145056  1
  N  N41  1  0.43988694  0.09672318  0.08574971  1
  N  N42  1  0.22222224  0.20555543  0.83225555  1
  N  N43  1  0.10963910  0.09297250  0.59093661  1
  N  N44  1  0.89362401  0.20267423  0.33145053  1
  N  N45  1  0.77611305  0.09777389  0.09480766  1
  N  N46  1  0.55504029  0.20549270  0.84482818  1
  N  N47  1  0.44738860  0.09297234  0.59093728  1
  N  N48  1  0.21934081  0.53703516  0.33145057  1
  N  N49  1  0.11338980  0.42322023  0.08574966  1
  N  N50  1  0.88946686  0.53837375  0.84482799  1
  N  N51  1  0.80952883  0.41190231  0.58046708  1
  N  N52  1  0.55555562  0.53888897  0.33565767  1
  N  N53  1  0.44267185  0.42600514  0.09509345  1
  N  N54  1  0.22215960  0.53837317  0.84482855  1
  N  N55  1  0.10963902  0.43072185  0.59093741  1
  N  N56  1  0.89362439  0.53703470  0.33145043  1
  N  N57  1  0.78132309  0.42600517  0.09509352  1
  N  N58  1  0.55555570  0.53888878  0.86626970  1
  N  N59  1  0.42856897  0.41190259  0.58046778  1
  N  N60  1  0.21934105  0.87695704  0.33145073  1
  N  N61  1  0.11444040  0.75944646  0.09480738  1
  N  N62  1  0.88888872  0.87222223  0.86561780  1
  N  N63  1  0.76121831  0.74455138  0.58292214  1
  N  N64  1  0.55370118  0.87695753  0.33145063  1
  N  N65  1  0.44267189  0.76465638  0.09509294  1
  N  N66  1  0.22215938  0.87280086  0.84482847  1
  N  N67  1  0.14422942  0.74455193  0.58292515  1
  N  N68  1  0.88888874  0.87222234  0.33591853  1
  N  N69  1  0.77611303  0.75944637  0.09480823  1
  N  N70  1  0.55504071  0.87280034  0.84482799  1
  N  N71  1  0.42856915  0.79286152  0.58046852  1
