# generated using pymatgen
data_GdAl17N18
_symmetry_space_group_name_H-M   'P 1'
_cell_length_a   9.98565135
_cell_length_b   9.98565168
_cell_length_c   8.78285217
_cell_angle_alpha   89.99998393
_cell_angle_beta   89.99997568
_cell_angle_gamma   60.00001208
_symmetry_Int_Tables_number   1
_chemical_formula_structural   GdAl17N18
_chemical_formula_sum   'Gd2 Al34 N36'
_cell_volume   758.43622675
_cell_formula_units_Z   2
loop_
 _symmetry_equiv_pos_site_id
 _symmetry_equiv_pos_as_xyz
  1  'x, y, z'
loop_
 _atom_site_type_symbol
 _atom_site_label
 _atom_site_symmetry_multiplicity
 _atom_site_fract_x
 _atom_site_fract_y
 _atom_site_fract_z
 _atom_site_occupancy
  Al  Al0  1  0.11271914  0.09605236  0.34178973  1
  Al  Al1  1  0.22222208  0.20555536  0.08755732  1
  Al  Al2  1  0.77375970  0.10248072  0.85650909  1
  Al  Al3  1  0.89302972  0.20622112  0.58929825  1
  Al  Al4  1  0.44122818  0.09605256  0.34178964  1
  Al  Al5  1  0.55280340  0.20406044  0.09480977  1
  Al  Al6  1  0.11049885  0.09383200  0.84143875  1
  Al  Al7  1  0.22222226  0.20555566  0.59652158  1
  Al  Al8  1  0.77517465  0.09965033  0.33348889  1
  Al  Al9  1  0.89313638  0.20406029  0.09481034  1
  Al  Al10  1  0.44566907  0.09383220  0.84144037  1
  Al  Al11  1  0.55074881  0.20622138  0.58929847  1
  Al  Al12  1  0.11271912  0.42456182  0.34178964  1
  Al  Al13  1  0.22072716  0.53613669  0.09480878  1
  Al  Al14  1  0.78705901  0.42313706  0.85407607  1
  Al  Al15  1  0.89303015  0.53408205  0.58929990  1
  Al  Al16  1  0.44209358  0.42542720  0.33265639  1
  Al  Al17  1  0.55555565  0.53888873  0.09862249  1
  Al  Al18  1  0.11049906  0.42900221  0.84144056  1
  Al  Al19  1  0.22288804  0.53408239  0.58929786  1
  Al  Al20  1  0.78247944  0.42542686  0.33265818  1
  Al  Al21  1  0.89313607  0.53613685  0.09481103  1
  Al  Al22  1  0.43980364  0.42313677  0.85407455  1
  Al  Al23  1  0.11631676  0.75850812  0.33348637  1
  Al  Al24  1  0.22072680  0.87646983  0.09480850  1
  Al  Al25  1  0.77375993  0.75709335  0.85651025  1
  Al  Al26  1  0.44209361  0.76581231  0.33265513  1
  Al  Al27  1  0.55280359  0.87646954  0.09481019  1
  Al  Al28  1  0.11914843  0.75709256  0.85650683  1
  Al  Al29  1  0.22288819  0.87636275  0.58929647  1
  Al  Al30  1  0.77517454  0.75850792  0.33349107  1
  Al  Al31  1  0.88888887  0.87222212  0.09984247  1
  Al  Al32  1  0.43980329  0.77039343  0.85407465  1
  Al  Al33  1  0.55074837  0.87636343  0.58929873  1
  Gd  Gd34  1  0.55555509  0.53888947  0.60366246  1
  Gd  Gd35  1  0.88888947  0.87222213  0.60390079  1
  N  N36  1  0.22222214  0.20555571  0.37157137  1
  N  N37  1  0.11329847  0.09663160  0.11800110  1
  N  N38  1  0.89308417  0.20299265  0.87291099  1
  N  N39  1  0.76178193  0.12643587  0.61949521  1
  N  N40  1  0.55485391  0.20510464  0.35911064  1
  N  N41  1  0.44006973  0.09663183  0.11799990  1
  N  N42  1  0.22222211  0.20555532  0.86014284  1
  N  N43  1  0.10985294  0.09318598  0.61405406  1
  N  N44  1  0.89004137  0.20510412  0.35911033  1
  N  N45  1  0.77601137  0.09797712  0.11046528  1
  N  N46  1  0.55392355  0.20299256  0.87291117  1
  N  N47  1  0.44696068  0.09318642  0.61405470  1
  N  N48  1  0.22177093  0.53818797  0.35911137  1
  N  N49  1  0.11329858  0.42340310  0.11799978  1
  N  N50  1  0.89308368  0.53725707  0.87291040  1
  N  N51  1  0.80841366  0.41245967  0.62176245  1
  N  N52  1  0.55555537  0.53888908  0.33913457  1
  N  N53  1  0.44257804  0.42591144  0.11036682  1
  N  N54  1  0.21965953  0.53725640  0.87291160  1
  N  N55  1  0.10985317  0.43029413  0.61405491  1
  N  N56  1  0.89004185  0.53818704  0.35910992  1
  N  N57  1  0.78151044  0.42591136  0.11036670  1
  N  N58  1  0.55555555  0.53888887  0.87301889  1
  N  N59  1  0.42912627  0.41245965  0.62176471  1
  N  N60  1  0.22177125  0.87337402  0.35911148  1
  N  N61  1  0.11464399  0.75934462  0.11046523  1
  N  N62  1  0.88888910  0.87222210  0.87280500  1
  N  N63  1  0.76178200  0.74511572  0.61949244  1
  N  N64  1  0.55485322  0.87337485  0.35911034  1
  N  N65  1  0.44257795  0.76484385  0.11036618  1
  N  N66  1  0.21965903  0.87641797  0.87291211  1
  N  N67  1  0.14310346  0.74511500  0.61949876  1
  N  N68  1  0.88888911  0.87222219  0.33971069  1
  N  N69  1  0.77601141  0.75934476  0.11046590  1
  N  N70  1  0.55392404  0.87641730  0.87291109  1
  N  N71  1  0.42912584  0.79174795  0.62176620  1
