# generated using pymatgen
data_GdAl17N18
_symmetry_space_group_name_H-M   'P 1'
_cell_length_a   9.86115715
_cell_length_b   9.86116262
_cell_length_c   9.15402369
_cell_angle_alpha   89.99999141
_cell_angle_beta   89.99997388
_cell_angle_gamma   60.00000479
_symmetry_Int_Tables_number   1
_chemical_formula_structural   GdAl17N18
_chemical_formula_sum   'Gd2 Al34 N36'
_cell_volume   770.90113551
_cell_formula_units_Z   2
loop_
 _symmetry_equiv_pos_site_id
 _symmetry_equiv_pos_as_xyz
  1  'x, y, z'
loop_
 _atom_site_type_symbol
 _atom_site_label
 _atom_site_symmetry_multiplicity
 _atom_site_fract_x
 _atom_site_fract_y
 _atom_site_fract_z
 _atom_site_occupancy
  Al  Al0  1  0.11024250  0.09357575  0.37637412  1
  Al  Al1  1  0.22222230  0.20555563  0.12893546  1
  Al  Al2  1  0.77576731  0.09846546  0.88231129  1
  Al  Al3  1  0.89239469  0.20706527  0.62690678  1
  Al  Al4  1  0.44618177  0.09357579  0.37637473  1
  Al  Al5  1  0.55277718  0.20379181  0.12151501  1
  Al  Al6  1  0.11281127  0.09614472  0.87295308  1
  Al  Al7  1  0.22222229  0.20555545  0.61876011  1
  Al  Al8  1  0.77322513  0.10354954  0.36199415  1
  Al  Al9  1  0.89343083  0.20379190  0.12151511  1
  Al  Al10  1  0.44104430  0.09614449  0.87295259  1
  Al  Al11  1  0.55054020  0.20706512  0.62690696  1
  Al  Al12  1  0.11024252  0.42951508  0.37637472  1
  Al  Al13  1  0.22045840  0.53611062  0.12151468  1
  Al  Al14  1  0.78095980  0.42618681  0.88334741  1
  Al  Al15  1  0.89239446  0.53387358  0.62690693  1
  Al  Al16  1  0.43911049  0.42244386  0.36353446  1
  Al  Al17  1  0.55555552  0.53888901  0.11773291  1
  Al  Al18  1  0.11281124  0.42437736  0.87295264  1
  Al  Al19  1  0.22373217  0.53387329  0.62690699  1
  Al  Al20  1  0.78844582  0.42244373  0.36353462  1
  Al  Al21  1  0.89343107  0.53611044  0.12151522  1
  Al  Al22  1  0.44285363  0.42618662  0.88334727  1
  Al  Al23  1  0.12021587  0.75655865  0.36199392  1
  Al  Al24  1  0.22045862  0.87676412  0.12151472  1
  Al  Al25  1  0.77576730  0.75910063  0.88231189  1
  Al  Al26  1  0.43911052  0.77177888  0.36353489  1
  Al  Al27  1  0.55277699  0.87676440  0.12151518  1
  Al  Al28  1  0.11513208  0.75910066  0.88231086  1
  Al  Al29  1  0.22373204  0.87572807  0.62690678  1
  Al  Al30  1  0.77322511  0.75655849  0.36199396  1
  Al  Al31  1  0.88888886  0.87222232  0.11624498  1
  Al  Al32  1  0.44285365  0.76429313  0.88334683  1
  Al  Al33  1  0.55054036  0.87572798  0.62690690  1
  Gd  Gd34  1  0.55555580  0.53888864  0.60754952  1
  Gd  Gd35  1  0.88888825  0.87222242  0.60769589  1
  N  N36  1  0.22222223  0.20555568  0.34128170  1
  N  N37  1  0.11327410  0.09660740  0.08194025  1
  N  N38  1  0.88898136  0.20576391  0.84045193  1
  N  N39  1  0.76065583  0.12868858  0.57780065  1
  N  N40  1  0.55355746  0.20251707  0.32824413  1
  N  N41  1  0.44011855  0.09660737  0.08193981  1
  N  N42  1  0.22222218  0.20555551  0.82908311  1
  N  N43  1  0.10959644  0.09292966  0.58765658  1
  N  N44  1  0.89392539  0.20251698  0.32824416  1
  N  N45  1  0.77624338  0.09751328  0.09145515  1
  N  N46  1  0.55525496  0.20576388  0.84045195  1
  N  N47  1  0.44747404  0.09292961  0.58765708  1
  N  N48  1  0.21918351  0.53689111  0.32824410  1
  N  N49  1  0.11327410  0.42345179  0.08193976  1
  N  N50  1  0.88898115  0.53858841  0.84045192  1
  N  N51  1  0.81059621  0.41136856  0.57546000  1
  N  N52  1  0.55555557  0.53888898  0.33580365  1
  N  N53  1  0.44278947  0.42612274  0.09184618  1
  N  N54  1  0.22243058  0.53858815  0.84045211  1
  N  N55  1  0.10959639  0.43080727  0.58765716  1
  N  N56  1  0.89392563  0.53689074  0.32824417  1
  N  N57  1  0.78108788  0.42612274  0.09184622  1
  N  N58  1  0.55555563  0.53888884  0.86209999  1
  N  N59  1  0.42803496  0.41136908  0.57546010  1
  N  N60  1  0.21918368  0.87725854  0.32824417  1
  N  N61  1  0.11417991  0.75957669  0.09145490  1
  N  N62  1  0.88888880  0.87222224  0.86142538  1
  N  N63  1  0.76065575  0.74398879  0.57779999  1
  N  N64  1  0.55355724  0.87725886  0.32824422  1
  N  N65  1  0.44278948  0.76442112  0.09184578  1
  N  N66  1  0.22243042  0.87231486  0.84045202  1
  N  N67  1  0.14535488  0.74398920  0.57780121  1
  N  N68  1  0.88888880  0.87222232  0.33624959  1
  N  N69  1  0.77624337  0.75957663  0.09145562  1
  N  N70  1  0.55525520  0.87231454  0.84045185  1
  N  N71  1  0.42803505  0.79392904  0.57546057  1
