# generated using pymatgen
data_GdAl17N18
_symmetry_space_group_name_H-M   'P 1'
_cell_length_a   9.51934089
_cell_length_b   9.51934044
_cell_length_c   10.10760764
_cell_angle_alpha   89.99999943
_cell_angle_beta   90.00000120
_cell_angle_gamma   60.00000575
_symmetry_Int_Tables_number   1
_chemical_formula_structural   GdAl17N18
_chemical_formula_sum   'Gd2 Al34 N36'
_cell_volume   793.21838246
_cell_formula_units_Z   2
loop_
 _symmetry_equiv_pos_site_id
 _symmetry_equiv_pos_as_xyz
  1  'x, y, z'
loop_
 _atom_site_type_symbol
 _atom_site_label
 _atom_site_symmetry_multiplicity
 _atom_site_fract_x
 _atom_site_fract_y
 _atom_site_fract_z
 _atom_site_occupancy
  Al  Al0  1  0.11103717  0.09437049  0.38599564  1
  Al  Al1  1  0.22222222  0.20555557  0.13569288  1
  Al  Al2  1  0.77671520  0.09656959  0.89248865  1
  Al  Al3  1  0.89328637  0.20752220  0.63522700  1
  Al  Al4  1  0.44459232  0.09437049  0.38599563  1
  Al  Al5  1  0.55419521  0.20446682  0.13544536  1
  Al  Al6  1  0.11151083  0.09484416  0.88491327  1
  Al  Al7  1  0.22222222  0.20555555  0.63396325  1
  Al  Al8  1  0.77334858  0.10330282  0.38064834  1
  Al  Al9  1  0.89133797  0.20446683  0.13544537  1
  Al  Al10  1  0.44364498  0.09484416  0.88491327  1
  Al  Al11  1  0.54919140  0.20752221  0.63522700  1
  Al  Al12  1  0.11103716  0.42792566  0.38599563  1
  Al  Al13  1  0.22113348  0.53752856  0.13544536  1
  Al  Al14  1  0.77925212  0.42704060  0.89277785  1
  Al  Al15  1  0.89328637  0.53252474  0.63522700  1
  Al  Al16  1  0.43975665  0.42308998  0.38019489  1
  Al  Al17  1  0.55555557  0.53888889  0.13733895  1
  Al  Al18  1  0.11151082  0.42697833  0.88491327  1
  Al  Al19  1  0.22418888  0.53252475  0.63522700  1
  Al  Al20  1  0.78715337  0.42308998  0.38019489  1
  Al  Al21  1  0.89133797  0.53752857  0.13544536  1
  Al  Al22  1  0.44370726  0.42704060  0.89277785  1
  Al  Al23  1  0.11996948  0.75668192  0.38064834  1
  Al  Al24  1  0.22113350  0.87467130  0.13544537  1
  Al  Al25  1  0.77671520  0.76004855  0.89248865  1
  Al  Al26  1  0.43975666  0.77048667  0.38019490  1
  Al  Al27  1  0.55419523  0.87467131  0.13544537  1
  Al  Al28  1  0.11323624  0.76004854  0.89248866  1
  Al  Al29  1  0.22418889  0.87661966  0.63522701  1
  Al  Al30  1  0.77334858  0.75668192  0.38064834  1
  Al  Al31  1  0.88888890  0.87222225  0.13772950  1
  Al  Al32  1  0.44370727  0.76258545  0.89277785  1
  Al  Al33  1  0.54919141  0.87661969  0.63522701  1
  Gd  Gd34  1  0.55555560  0.53888884  0.62572979  1
  Gd  Gd35  1  0.88888888  0.87222223  0.62756386  1
  N  N36  1  0.22222222  0.20555556  0.32749853  1
  N  N37  1  0.11172587  0.09505921  0.07468045  1
  N  N38  1  0.88817039  0.20603986  0.82806886  1
  N  N39  1  0.76009078  0.12981837  0.56818747  1
  N  N40  1  0.55412337  0.20334756  0.32234373  1
  N  N41  1  0.44321490  0.09505921  0.07468045  1
  N  N42  1  0.22222222  0.20555556  0.82491894  1
  N  N43  1  0.11061985  0.09395316  0.57730432  1
  N  N44  1  0.89252908  0.20334756  0.32234373  1
  N  N45  1  0.77697226  0.09605547  0.08178445  1
  N  N46  1  0.55578976  0.20603985  0.82806886  1
  N  N47  1  0.44542695  0.09395317  0.57730432  1
  N  N48  1  0.22001423  0.53745671  0.32234373  1
  N  N49  1  0.11172587  0.42654826  0.07468045  1
  N  N50  1  0.88817038  0.53912311  0.82806886  1
  N  N51  1  0.81143713  0.41094809  0.56507063  1
  N  N52  1  0.55555558  0.53888888  0.33407543  1
  N  N53  1  0.44351930  0.42685265  0.08183226  1
  N  N54  1  0.22270651  0.53912310  0.82806887  1
  N  N55  1  0.11061984  0.42876030  0.57730432  1
  N  N56  1  0.89252907  0.53745670  0.32234373  1
  N  N57  1  0.77962805  0.42685265  0.08183226  1
  N  N58  1  0.55555556  0.53888888  0.84958733  1
  N  N59  1  0.42761477  0.41094812  0.56507063  1
  N  N60  1  0.22001425  0.87586239  0.32234373  1
  N  N61  1  0.11272211  0.76030562  0.08178445  1
  N  N62  1  0.88888889  0.87222223  0.84970579  1
  N  N63  1  0.76009081  0.74342415  0.56818746  1
  N  N64  1  0.55412337  0.87586240  0.32234373  1
  N  N65  1  0.44351931  0.76296139  0.08183226  1
  N  N66  1  0.22270653  0.87150371  0.82806887  1
  N  N67  1  0.14648501  0.74342414  0.56818747  1
  N  N68  1  0.88888890  0.87222223  0.33576394  1
  N  N69  1  0.77697227  0.76030563  0.08178445  1
  N  N70  1  0.55578977  0.87150372  0.82806886  1
  N  N71  1  0.42761479  0.79477039  0.56507064  1
