# generated using pymatgen
data_GdAl17N18
_symmetry_space_group_name_H-M   'P 1'
_cell_length_a   9.79000852
_cell_length_b   9.79000893
_cell_length_c   9.36336945
_cell_angle_alpha   89.99999397
_cell_angle_beta   89.99998766
_cell_angle_gamma   60.00000499
_symmetry_Int_Tables_number   1
_chemical_formula_structural   GdAl17N18
_chemical_formula_sum   'Gd2 Al34 N36'
_cell_volume   777.19316189
_cell_formula_units_Z   2
loop_
 _symmetry_equiv_pos_site_id
 _symmetry_equiv_pos_as_xyz
  1  'x, y, z'
loop_
 _atom_site_type_symbol
 _atom_site_label
 _atom_site_symmetry_multiplicity
 _atom_site_fract_x
 _atom_site_fract_y
 _atom_site_fract_z
 _atom_site_occupancy
  Al  Al0  1  0.11037404  0.09370726  0.37931803  1
  Al  Al1  1  0.22222225  0.20555560  0.13103517  1
  Al  Al2  1  0.77613958  0.09772097  0.88468473  1
  Al  Al3  1  0.89241313  0.20732243  0.62935065  1
  Al  Al4  1  0.44591863  0.09370737  0.37931831  1
  Al  Al5  1  0.55301880  0.20382255  0.12484603  1
  Al  Al6  1  0.11258416  0.09591751  0.87576017  1
  Al  Al7  1  0.22222217  0.20555553  0.62243482  1
  Al  Al8  1  0.77296270  0.10407455  0.36688508  1
  Al  Al9  1  0.89315857  0.20382259  0.12484608  1
  Al  Al10  1  0.44149841  0.09591744  0.87575991  1
  Al  Al11  1  0.55026449  0.20732268  0.62935068  1
  Al  Al12  1  0.11037405  0.42925203  0.37931836  1
  Al  Al13  1  0.22048916  0.53635221  0.12484590  1
  Al  Al14  1  0.78020373  0.42656483  0.88563981  1
  Al  Al15  1  0.89241298  0.53359789  0.62935070  1
  Al  Al16  1  0.43889296  0.42222651  0.36784015  1
  Al  Al17  1  0.55555555  0.53888896  0.12282768  1
  Al  Al18  1  0.11258413  0.42483170  0.87575989  1
  Al  Al19  1  0.22398896  0.53359805  0.62935081  1
  Al  Al20  1  0.78888061  0.42222635  0.36784025  1
  Al  Al21  1  0.89315873  0.53635204  0.12484613  1
  Al  Al22  1  0.44323152  0.42656481  0.88563981  1
  Al  Al23  1  0.12074106  0.75629611  0.36688512  1
  Al  Al24  1  0.22048931  0.87649182  0.12484593  1
  Al  Al25  1  0.77613956  0.75947283  0.88468504  1
  Al  Al26  1  0.43889298  0.77221381  0.36784044  1
  Al  Al27  1  0.55301867  0.87649199  0.12484611  1
  Al  Al28  1  0.11438762  0.75947289  0.88468453  1
  Al  Al29  1  0.22398887  0.87574645  0.62935074  1
  Al  Al30  1  0.77296268  0.75629601  0.36688487  1
  Al  Al31  1  0.88888893  0.87222226  0.12162589  1
  Al  Al32  1  0.44323153  0.76353704  0.88563956  1
  Al  Al33  1  0.55026456  0.87574613  0.62935065  1
  Gd  Gd34  1  0.55555569  0.53888872  0.60970874  1
  Gd  Gd35  1  0.88888869  0.87222223  0.61015951  1
  N  N36  1  0.22222229  0.20555560  0.33737602  1
  N  N37  1  0.11302082  0.09635416  0.07908464  1
  N  N38  1  0.88867831  0.20591909  0.83656096  1
  N  N39  1  0.76013847  0.12972304  0.57400485  1
  N  N40  1  0.55355007  0.20252814  0.32574491  1
  N  N41  1  0.44062506  0.09635413  0.07908437  1
  N  N42  1  0.22222227  0.20555549  0.82699463  1
  N  N43  1  0.10969365  0.09302690  0.58452700  1
  N  N44  1  0.89392171  0.20252812  0.32574489  1
  N  N45  1  0.77645681  0.09708633  0.08814441  1
  N  N46  1  0.55540274  0.20591907  0.83656093  1
  N  N47  1  0.44727957  0.09302687  0.58452731  1
  N  N48  1  0.21919472  0.53688352  0.32574481  1
  N  N49  1  0.11302082  0.42395833  0.07908436  1
  N  N50  1  0.88867819  0.53873613  0.83656097  1
  N  N51  1  0.81153895  0.41089717  0.57164276  1
  N  N52  1  0.55555560  0.53888893  0.33584800  1
  N  N53  1  0.44298962  0.42632289  0.08861271  1
  N  N54  1  0.22258583  0.53873594  0.83656105  1
  N  N55  1  0.10969361  0.43061282  0.58452735  1
  N  N56  1  0.89392186  0.53688334  0.32574491  1
  N  N57  1  0.78068752  0.42632292  0.08861271  1
  N  N58  1  0.55555563  0.53888884  0.85717838  1
  N  N59  1  0.42756409  0.41089706  0.57164273  1
  N  N60  1  0.21919484  0.87725496  0.32574484  1
  N  N61  1  0.11375292  0.75979020  0.08814427  1
  N  N62  1  0.88888880  0.87222225  0.85645780  1
  N  N63  1  0.76013843  0.74347176  0.57400452  1
  N  N64  1  0.55354992  0.87725515  0.32574497  1
  N  N65  1  0.44298962  0.76402084  0.08861246  1
  N  N66  1  0.22258573  0.87201172  0.83656100  1
  N  N67  1  0.14638937  0.74347197  0.57400506  1
  N  N68  1  0.88888880  0.87222231  0.33649733  1
  N  N69  1  0.77645681  0.75979018  0.08814471  1
  N  N70  1  0.55540287  0.87201156  0.83656089  1
  N  N71  1  0.42756417  0.79487202  0.57164303  1
