# generated using pymatgen
data_GdAl17N18
_symmetry_space_group_name_H-M   'P 1'
_cell_length_a   9.51729032
_cell_length_b   9.51729031
_cell_length_c   10.11281230
_cell_angle_alpha   89.99999973
_cell_angle_beta   89.99999966
_cell_angle_gamma   60.00000143
_symmetry_Int_Tables_number   1
_chemical_formula_structural   GdAl17N18
_chemical_formula_sum   'Gd2 Al34 N36'
_cell_volume   793.28495744
_cell_formula_units_Z   2
loop_
 _symmetry_equiv_pos_site_id
 _symmetry_equiv_pos_as_xyz
  1  'x, y, z'
loop_
 _atom_site_type_symbol
 _atom_site_label
 _atom_site_symmetry_multiplicity
 _atom_site_fract_x
 _atom_site_fract_y
 _atom_site_fract_z
 _atom_site_occupancy
  Al  Al0  1  0.11149615  0.09482949  0.29735315  1
  Al  Al1  1  0.22222223  0.20555556  0.04661185  1
  Al  Al2  1  0.77340603  0.10318796  0.80158456  1
  Al  Al3  1  0.89327807  0.20751870  0.54709247  1
  Al  Al4  1  0.44367436  0.09482948  0.29735314  1
  Al  Al5  1  0.55418687  0.20447185  0.04672806  1
  Al  Al6  1  0.11104759  0.09438093  0.79627243  1
  Al  Al7  1  0.22222222  0.20555556  0.54826999  1
  Al  Al8  1  0.77667952  0.09664096  0.28967282  1
  Al  Al9  1  0.89134129  0.20447187  0.04672806  1
  Al  Al10  1  0.44457147  0.09438092  0.79627243  1
  Al  Al11  1  0.54920320  0.20751870  0.54709247  1
  Al  Al12  1  0.11149615  0.42700769  0.29735314  1
  Al  Al13  1  0.22113852  0.53752020  0.04672806  1
  Al  Al14  1  0.78703873  0.42314730  0.80204013  1
  Al  Al15  1  0.89327808  0.53253653  0.54709246  1
  Al  Al16  1  0.44367220  0.42700554  0.28940754  1
  Al  Al17  1  0.55555556  0.53888890  0.04500402  1
  Al  Al18  1  0.11104759  0.42790481  0.79627243  1
  Al  Al19  1  0.22418537  0.53253653  0.54709247  1
  Al  Al20  1  0.77932224  0.42700555  0.28940754  1
  Al  Al21  1  0.89134129  0.53752021  0.04672806  1
  Al  Al22  1  0.43981396  0.42314730  0.80204013  1
  Al  Al23  1  0.11330762  0.76001286  0.28967282  1
  Al  Al24  1  0.22113853  0.87467463  0.04672806  1
  Al  Al25  1  0.77340602  0.75673935  0.80158456  1
  Al  Al26  1  0.44367221  0.76265557  0.28940754  1
  Al  Al27  1  0.55418688  0.87467462  0.04672806  1
  Al  Al28  1  0.11985463  0.75673936  0.80158456  1
  Al  Al29  1  0.22418536  0.87661141  0.54709247  1
  Al  Al30  1  0.77667952  0.76001286  0.28967282  1
  Al  Al31  1  0.88888890  0.87222224  0.04460889  1
  Al  Al32  1  0.43981397  0.77037206  0.80204013  1
  Al  Al33  1  0.54920320  0.87661141  0.54709246  1
  Gd  Gd34  1  0.55555555  0.53888889  0.55614949  1
  Gd  Gd35  1  0.88888889  0.87222222  0.55428105  1
  N  N36  1  0.22222222  0.20555556  0.35738235  1
  N  N37  1  0.11170896  0.09504230  0.10764100  1
  N  N38  1  0.89251241  0.20335704  0.85991324  1
  N  N39  1  0.76016471  0.12967056  0.61413599  1
  N  N40  1  0.55580228  0.20604299  0.35429530  1
  N  N41  1  0.44324874  0.09504230  0.10764100  1
  N  N42  1  0.22222222  0.20555556  0.85487720  1
  N  N43  1  0.11063808  0.09397141  0.60503433  1
  N  N44  1  0.88815472  0.20604301  0.35429530  1
  N  N45  1  0.77693725  0.09612551  0.10048506  1
  N  N46  1  0.55413057  0.20335703  0.85991324  1
  N  N47  1  0.44539050  0.09397141  0.60503433  1
  N  N48  1  0.22270966  0.53913561  0.35429530  1
  N  N49  1  0.11170896  0.42658208  0.10764100  1
  N  N50  1  0.89251240  0.53746389  0.85991324  1
  N  N51  1  0.81130213  0.41101559  0.61724490  1
  N  N52  1  0.55555555  0.53888888  0.33243837  1
  N  N53  1  0.44348801  0.42682134  0.10045510  1
  N  N54  1  0.22002370  0.53746390  0.85991324  1
  N  N55  1  0.11063807  0.42872383  0.60503433  1
  N  N56  1  0.88815472  0.53913562  0.35429530  1
  N  N57  1  0.77969065  0.42682135  0.10045510  1
  N  N58  1  0.55555556  0.53888889  0.84837457  1
  N  N59  1  0.42768227  0.41101560  0.61724490  1
  N  N60  1  0.22270967  0.87148806  0.35429530  1
  N  N61  1  0.11279217  0.76027059  0.10048506  1
  N  N62  1  0.88888890  0.87222223  0.84669624  1
  N  N63  1  0.76016472  0.74349805  0.61413599  1
  N  N64  1  0.55580228  0.87148805  0.35429530  1
  N  N65  1  0.44348802  0.76302399  0.10045510  1
  N  N66  1  0.22002371  0.87584574  0.85991324  1
  N  N67  1  0.14633723  0.74349804  0.61413600  1
  N  N68  1  0.88888889  0.87222222  0.33228152  1
  N  N69  1  0.77693726  0.76027059  0.10048506  1
  N  N70  1  0.55413056  0.87584573  0.85991324  1
  N  N71  1  0.42768226  0.79463546  0.61724490  1
