# generated using pymatgen
data_GdAl17N18
_symmetry_space_group_name_H-M   'P 1'
_cell_length_a   10.03316006
_cell_length_b   10.03316035
_cell_length_c   8.64118620
_cell_angle_alpha   89.99997897
_cell_angle_beta   89.99996904
_cell_angle_gamma   60.00001220
_symmetry_Int_Tables_number   1
_chemical_formula_structural   GdAl17N18
_chemical_formula_sum   'Gd2 Al34 N36'
_cell_volume   753.32007705
_cell_formula_units_Z   2
loop_
 _symmetry_equiv_pos_site_id
 _symmetry_equiv_pos_as_xyz
  1  'x, y, z'
loop_
 _atom_site_type_symbol
 _atom_site_label
 _atom_site_symmetry_multiplicity
 _atom_site_fract_x
 _atom_site_fract_y
 _atom_site_fract_z
 _atom_site_occupancy
  Al  Al0  1  0.11230597  0.09563958  0.34591627  1
  Al  Al1  1  0.22222208  0.20555534  0.09438902  1
  Al  Al2  1  0.77403032  0.10193950  0.86085522  1
  Al  Al3  1  0.89349622  0.20578596  0.59548187  1
  Al  Al4  1  0.44205420  0.09563949  0.34591772  1
  Al  Al5  1  0.55303521  0.20428400  0.09916818  1
  Al  Al6  1  0.11094875  0.09428138  0.84809340  1
  Al  Al7  1  0.22222225  0.20555561  0.59985225  1
  Al  Al8  1  0.77483426  0.10033105  0.33823468  1
  Al  Al9  1  0.89268100  0.20428385  0.09916936  1
  Al  Al10  1  0.44476968  0.09428194  0.84809647  1
  Al  Al11  1  0.55071737  0.20578643  0.59548179  1
  Al  Al12  1  0.11230580  0.42538797  0.34591781  1
  Al  Al13  1  0.22095071  0.53636855  0.09916618  1
  Al  Al14  1  0.78610489  0.42361401  0.85870407  1
  Al  Al15  1  0.89349660  0.53405074  0.59548640  1
  Al  Al16  1  0.44159708  0.42493063  0.33801039  1
  Al  Al17  1  0.55555567  0.53888875  0.10150868  1
  Al  Al18  1  0.11094913  0.42810266  0.84809680  1
  Al  Al19  1  0.22245307  0.53405103  0.59547929  1
  Al  Al20  1  0.78347317  0.42493010  0.33801511  1
  Al  Al21  1  0.89268070  0.53636866  0.09917121  1
  Al  Al22  1  0.44028029  0.42361353  0.85869995  1
  Al  Al23  1  0.11699689  0.75816796  0.33822964  1
  Al  Al24  1  0.22095039  0.87601442  0.09916506  1
  Al  Al25  1  0.77403067  0.75736431  0.86085811  1
  Al  Al26  1  0.44159730  0.76680522  0.33800840  1
  Al  Al27  1  0.55303536  0.87601416  0.09916890  1
  Al  Al28  1  0.11860779  0.75736300  0.86085040  1
  Al  Al29  1  0.22245319  0.87682911  0.59547570  1
  Al  Al30  1  0.77483406  0.75816729  0.33823840  1
  Al  Al31  1  0.88888889  0.87222214  0.10226808  1
  Al  Al32  1  0.44027971  0.76944025  0.85869903  1
  Al  Al33  1  0.55071696  0.87682980  0.59548272  1
  Gd  Gd34  1  0.55555503  0.53888946  0.60417560  1
  Gd  Gd35  1  0.88888944  0.87222214  0.60438086  1
  N  N36  1  0.22222210  0.20555574  0.36519704  1
  N  N37  1  0.11306239  0.09639548  0.11195216  1
  N  N38  1  0.89233947  0.20344494  0.86753244  1
  N  N39  1  0.76227893  0.12544180  0.61237606  1
  N  N40  1  0.55464144  0.20462282  0.35411778  1
  N  N41  1  0.44054191  0.09639573  0.11194993  1
  N  N42  1  0.22222212  0.20555521  0.85665112  1
  N  N43  1  0.11017069  0.09350348  0.60992180  1
  N  N44  1  0.89073579  0.20462185  0.35411702  1
  N  N45  1  0.77590609  0.09818768  0.10746722  1
  N  N46  1  0.55421625  0.20344454  0.86753315  1
  N  N47  1  0.44632535  0.09350409  0.60992164  1
  N  N48  1  0.22128894  0.53797585  0.35411947  1
  N  N49  1  0.11306251  0.42387526  0.11194967  1
  N  N50  1  0.89233877  0.53754979  0.86753055  1
  N  N51  1  0.80738464  0.41297412  0.61399409  1
  N  N52  1  0.55555532  0.53888914  0.33698046  1
  N  N53  1  0.44247823  0.42581161  0.10742973  1
  N  N54  1  0.22011166  0.53754881  0.86753475  1
  N  N55  1  0.11017097  0.42965879  0.60992191  1
  N  N56  1  0.89073640  0.53797465  0.35411547  1
  N  N57  1  0.78171010  0.42581154  0.10742906  1
  N  N58  1  0.55555561  0.53888884  0.87311573  1
  N  N59  1  0.42964064  0.41297414  0.61400053  1
  N  N60  1  0.22128937  0.87406802  0.35412046  1
  N  N61  1  0.11485453  0.75923936  0.10746779  1
  N  N62  1  0.88888908  0.87222210  0.87288555  1
  N  N63  1  0.76227899  0.74561284  0.61237096  1
  N  N64  1  0.55464049  0.87406917  0.35411723  1
  N  N65  1  0.44247814  0.76504352  0.10742922  1
  N  N66  1  0.22011102  0.87567358  0.86753616  1
  N  N67  1  0.14210945  0.74561203  0.61238336  1
  N  N68  1  0.88888911  0.87222223  0.33750129  1
  N  N69  1  0.77590613  0.75923951  0.10746764  1
  N  N70  1  0.55421703  0.87567256  0.86753268  1
  N  N71  1  0.42964016  0.79071907  0.61400323  1
