# generated using pymatgen
data_GdAl17N18
_symmetry_space_group_name_H-M   'P 1'
_cell_length_a   9.51730109
_cell_length_b   9.51730108
_cell_length_c   10.11278335
_cell_angle_alpha   90.00000013
_cell_angle_beta   90.00000015
_cell_angle_gamma   60.00000142
_symmetry_Int_Tables_number   1
_chemical_formula_structural   GdAl17N18
_chemical_formula_sum   'Gd2 Al34 N36'
_cell_volume   793.28448110
_cell_formula_units_Z   2
loop_
 _symmetry_equiv_pos_site_id
 _symmetry_equiv_pos_as_xyz
  1  'x, y, z'
loop_
 _atom_site_type_symbol
 _atom_site_label
 _atom_site_symmetry_multiplicity
 _atom_site_fract_x
 _atom_site_fract_y
 _atom_site_fract_z
 _atom_site_occupancy
  Al  Al0  1  0.11104783  0.09438116  0.40885963  1
  Al  Al1  1  0.22222223  0.20555556  0.15852033  1
  Al  Al2  1  0.77667968  0.09664064  0.91545951  1
  Al  Al3  1  0.89327793  0.20751891  0.65803920  1
  Al  Al4  1  0.44457100  0.09438115  0.40885962  1
  Al  Al5  1  0.55418687  0.20447169  0.15840457  1
  Al  Al6  1  0.11149598  0.09482931  0.90778039  1
  Al  Al7  1  0.22222222  0.20555555  0.65686449  1
  Al  Al8  1  0.77340582  0.10318836  0.40354527  1
  Al  Al9  1  0.89134144  0.20447170  0.15840458  1
  Al  Al10  1  0.44367469  0.09482931  0.90778039  1
  Al  Al11  1  0.54920312  0.20751891  0.65803920  1
  Al  Al12  1  0.11104782  0.42790434  0.40885962  1
  Al  Al13  1  0.22113836  0.53752020  0.15840457  1
  Al  Al14  1  0.77932193  0.42700570  0.91572467  1
  Al  Al15  1  0.89327794  0.53253646  0.65803920  1
  Al  Al16  1  0.43981375  0.42314708  0.40308932  1
  Al  Al17  1  0.55555556  0.53888889  0.16012597  1
  Al  Al18  1  0.11149598  0.42700802  0.90778039  1
  Al  Al19  1  0.22418557  0.53253646  0.65803920  1
  Al  Al20  1  0.78703915  0.42314709  0.40308932  1
  Al  Al21  1  0.89134144  0.53752021  0.15840458  1
  Al  Al22  1  0.44367235  0.42700569  0.91572467  1
  Al  Al23  1  0.11985503  0.75673915  0.40354527  1
  Al  Al24  1  0.22113837  0.87467478  0.15840458  1
  Al  Al25  1  0.77667968  0.76001301  0.91545951  1
  Al  Al26  1  0.43981376  0.77037248  0.40308932  1
  Al  Al27  1  0.55418688  0.87467478  0.15840458  1
  Al  Al28  1  0.11330731  0.76001301  0.91545951  1
  Al  Al29  1  0.22418557  0.87661127  0.65803920  1
  Al  Al30  1  0.77340582  0.75673915  0.40354527  1
  Al  Al31  1  0.88888890  0.87222224  0.16052207  1
  Al  Al32  1  0.44367236  0.76265527  0.91572467  1
  Al  Al33  1  0.54920313  0.87661127  0.65803920  1
  Gd  Gd34  1  0.55555555  0.53888888  0.64897895  1
  Gd  Gd35  1  0.88888889  0.87222222  0.65084769  1
  N  N36  1  0.22222222  0.20555555  0.35025471  1
  N  N37  1  0.11170891  0.09504224  0.09749217  1
  N  N38  1  0.88815477  0.20604302  0.85083718  1
  N  N39  1  0.76016429  0.12967138  0.59099482  1
  N  N40  1  0.55413036  0.20335672  0.34521873  1
  N  N41  1  0.44324884  0.09504224  0.09749217  1
  N  N42  1  0.22222222  0.20555555  0.84775198  1
  N  N43  1  0.11063822  0.09397155  0.60009804  1
  N  N44  1  0.89251292  0.20335673  0.34521874  1
  N  N45  1  0.77693732  0.09612537  0.10464750  1
  N  N46  1  0.55580221  0.20604301  0.85083718  1
  N  N47  1  0.44539021  0.09397155  0.60009804  1
  N  N48  1  0.22002338  0.53746369  0.34521873  1
  N  N49  1  0.11170891  0.42658217  0.09749217  1
  N  N50  1  0.88815477  0.53913555  0.85083718  1
  N  N51  1  0.81130291  0.41101520  0.58788550  1
  N  N52  1  0.55555556  0.53888889  0.35675625  1
  N  N53  1  0.44348799  0.42682132  0.10467735  1
  N  N54  1  0.22270967  0.53913554  0.85083718  1
  N  N55  1  0.11063821  0.42872354  0.60009804  1
  N  N56  1  0.89251291  0.53746369  0.34521873  1
  N  N57  1  0.77969069  0.42682133  0.10467735  1
  N  N58  1  0.55555555  0.53888888  0.87269199  1
  N  N59  1  0.42768187  0.41101520  0.58788550  1
  N  N60  1  0.22002339  0.87584625  0.34521874  1
  N  N61  1  0.11279203  0.76027065  0.10464750  1
  N  N62  1  0.88888889  0.87222222  0.87284884  1
  N  N63  1  0.76016431  0.74349764  0.59099481  1
  N  N64  1  0.55413036  0.87584625  0.34521873  1
  N  N65  1  0.44348800  0.76302403  0.10467735  1
  N  N66  1  0.22270969  0.87148810  0.85083718  1
  N  N67  1  0.14633804  0.74349763  0.59099482  1
  N  N68  1  0.88888890  0.87222223  0.35843510  1
  N  N69  1  0.77693733  0.76027067  0.10464750  1
  N  N70  1  0.55580222  0.87148810  0.85083718  1
  N  N71  1  0.42768187  0.79463624  0.58788550  1
