# generated using pymatgen
data_GdAl17N18
_symmetry_space_group_name_H-M   'P 1'
_cell_length_a   9.78845953
_cell_length_b   9.78845997
_cell_length_c   9.36786736
_cell_angle_alpha   89.99999376
_cell_angle_beta   89.99999068
_cell_angle_gamma   60.00000898
_symmetry_Int_Tables_number   1
_chemical_formula_structural   GdAl17N18
_chemical_formula_sum   'Gd2 Al34 N36'
_cell_volume   777.32050176
_cell_formula_units_Z   2
loop_
 _symmetry_equiv_pos_site_id
 _symmetry_equiv_pos_as_xyz
  1  'x, y, z'
loop_
 _atom_site_type_symbol
 _atom_site_label
 _atom_site_symmetry_multiplicity
 _atom_site_fract_x
 _atom_site_fract_y
 _atom_site_fract_z
 _atom_site_occupancy
  Al  Al0  1  0.11256445  0.09589775  0.33269657  1
  Al  Al1  1  0.22222214  0.20555550  0.07749310  1
  Al  Al2  1  0.77295907  0.10408195  0.84151999  1
  Al  Al3  1  0.89240842  0.20731995  0.57911437  1
  Al  Al4  1  0.44153765  0.09589784  0.33269628  1
  Al  Al5  1  0.55301114  0.20383036  0.08356216  1
  Al  Al6  1  0.11039205  0.09372546  0.82911772  1
  Al  Al7  1  0.22222221  0.20555564  0.58593315  1
  Al  Al8  1  0.77614879  0.09770231  0.32371347  1
  Al  Al9  1  0.89315855  0.20383030  0.08356222  1
  Al  Al10  1  0.44588244  0.09372546  0.82911805  1
  Al  Al11  1  0.55027159  0.20731997  0.57911445  1
  Al  Al12  1  0.11256446  0.42487109  0.33269629  1
  Al  Al13  1  0.22049706  0.53634442  0.08356204  1
  Al  Al14  1  0.78888426  0.42222453  0.84054892  1
  Al  Al15  1  0.89240862  0.53360481  0.57911446  1
  Al  Al16  1  0.44323589  0.42656934  0.32282057  1
  Al  Al17  1  0.55555557  0.53888882  0.08557220  1
  Al  Al18  1  0.11039210  0.42921577  0.82911807  1
  Al  Al19  1  0.22398644  0.53360501  0.57911452  1
  Al  Al20  1  0.78019469  0.42656927  0.32282053  1
  Al  Al21  1  0.89315844  0.53634455  0.08356223  1
  Al  Al22  1  0.43889125  0.42222449  0.84054878  1
  Al  Al23  1  0.11436902  0.75948209  0.32371332  1
  Al  Al24  1  0.22049691  0.87649194  0.08356208  1
  Al  Al25  1  0.77295907  0.75629235  0.84151975  1
  Al  Al26  1  0.44323587  0.76352803  0.32282027  1
  Al  Al27  1  0.55301128  0.87649182  0.08356222  1
  Al  Al28  1  0.12074880  0.75629228  0.84152000  1
  Al  Al29  1  0.22398650  0.87574184  0.57911442  1
  Al  Al30  1  0.77614877  0.75948209  0.32371380  1
  Al  Al31  1  0.88888887  0.87222215  0.08669348  1
  Al  Al32  1  0.43889118  0.77221772  0.84054913  1
  Al  Al33  1  0.55027140  0.87574194  0.57911444  1
  Gd  Gd34  1  0.55555547  0.53888915  0.59871697  1
  Gd  Gd35  1  0.88888917  0.87222217  0.59824541  1
  N  N36  1  0.22222224  0.20555560  0.38149787  1
  N  N37  1  0.11300610  0.09633944  0.12948213  1
  N  N38  1  0.89393048  0.20253401  0.88277883  1
  N  N39  1  0.76013403  0.12973185  0.63458894  1
  N  N40  1  0.55542651  0.20591393  0.37202166  1
  N  N41  1  0.44065438  0.09633947  0.12948187  1
  N  N42  1  0.22222221  0.20555550  0.87125480  1
  N  N43  1  0.10970435  0.09303773  0.62401698  1
  N  N44  1  0.88865939  0.20591395  0.37202164  1
  N  N45  1  0.77645896  0.09708197  0.12036386  1
  N  N46  1  0.55353557  0.20253402  0.88277879  1
  N  N47  1  0.44725782  0.09303781  0.62401729  1
  N  N48  1  0.22258057  0.53875991  0.37202171  1
  N  N49  1  0.11300613  0.42398772  0.12948184  1
  N  N50  1  0.89393037  0.53686898  0.88277883  1
  N  N51  1  0.81155037  0.41089148  0.63690643  1
  N  N52  1  0.55555550  0.53888894  0.35140859  1
  N  N53  1  0.44299122  0.42632451  0.11995303  1
  N  N54  1  0.21920080  0.53686876  0.88277875  1
  N  N55  1  0.10970443  0.43059120  0.62401734  1
  N  N56  1  0.88865954  0.53875977  0.37202168  1
  N  N57  1  0.78068421  0.42632452  0.11995299  1
  N  N58  1  0.55555557  0.53888889  0.87264762  1
  N  N59  1  0.42755839  0.41089125  0.63690634  1
  N  N60  1  0.22258067  0.87199270  0.37202164  1
  N  N61  1  0.11374869  0.75979226  0.12036375  1
  N  N62  1  0.88888894  0.87222217  0.87197619  1
  N  N63  1  0.76013405  0.74346747  0.63458861  1
  N  N64  1  0.55542634  0.87199288  0.37202164  1
  N  N65  1  0.44299120  0.76401757  0.11995274  1
  N  N66  1  0.21920062  0.87726395  0.88277880  1
  N  N67  1  0.14639882  0.74346725  0.63458911  1
  N  N68  1  0.88888892  0.87222220  0.35209607  1
  N  N69  1  0.77645897  0.75979230  0.12036417  1
  N  N70  1  0.55353571  0.87726381  0.88277885  1
  N  N71  1  0.42755825  0.79488399  0.63690672  1
