# generated using pymatgen
data_GdAl17N18
_symmetry_space_group_name_H-M   'P 1'
_cell_length_a   9.53171971
_cell_length_b   9.53172082
_cell_length_c   10.07617932
_cell_angle_alpha   90.00000801
_cell_angle_beta   90.00001543
_cell_angle_gamma   59.99995823
_symmetry_Int_Tables_number   1
_chemical_formula_structural   GdAl17N18
_chemical_formula_sum   'Gd2 Al34 N36'
_cell_volume   792.80962384
_cell_formula_units_Z   2
loop_
 _symmetry_equiv_pos_site_id
 _symmetry_equiv_pos_as_xyz
  1  'x, y, z'
loop_
 _atom_site_type_symbol
 _atom_site_label
 _atom_site_symmetry_multiplicity
 _atom_site_fract_x
 _atom_site_fract_y
 _atom_site_fract_z
 _atom_site_occupancy
  Al  Al0  1  0.11157313  0.09490647  0.32534713  1
  Al  Al1  1  0.22222227  0.20555555  0.07437476  1
  Al  Al2  1  0.77314248  0.10371512  0.82976356  1
  Al  Al3  1  0.89329380  0.20753176  0.57478707  1
  Al  Al4  1  0.44352051  0.09490641  0.32534713  1
  Al  Al5  1  0.55419880  0.20443528  0.07512675  1
  Al  Al6  1  0.11099832  0.09433172  0.82419010  1
  Al  Al7  1  0.22222223  0.20555557  0.57642198  1
  Al  Al8  1  0.77682849  0.09634313  0.31809379  1
  Al  Al9  1  0.89136594  0.20443537  0.07512674  1
  Al  Al10  1  0.44467004  0.09433162  0.82419011  1
  Al  Al11  1  0.54917443  0.20753160  0.57478710  1
  Al  Al12  1  0.11157310  0.42685379  0.32534713  1
  Al  Al13  1  0.22110198  0.53753208  0.07512675  1
  Al  Al14  1  0.78759087  0.42287123  0.83017566  1
  Al  Al15  1  0.89329372  0.53250777  0.57478706  1
  Al  Al16  1  0.44381984  0.42715313  0.31770964  1
  Al  Al17  1  0.55555554  0.53888889  0.07268993  1
  Al  Al18  1  0.11099827  0.42800334  0.82419012  1
  Al  Al19  1  0.22419826  0.53250770  0.57478711  1
  Al  Al20  1  0.77902696  0.42715320  0.31770967  1
  Al  Al21  1  0.89136592  0.53753208  0.07512675  1
  Al  Al22  1  0.43953778  0.42287111  0.83017574  1
  Al  Al23  1  0.11300986  0.76016177  0.31809381  1
  Al  Al24  1  0.22110203  0.87469928  0.07512675  1
  Al  Al25  1  0.77314245  0.75647576  0.82976356  1
  Al  Al26  1  0.44381987  0.76236033  0.31770965  1
  Al  Al27  1  0.55419880  0.87469924  0.07512676  1
  Al  Al28  1  0.12038184  0.75647578  0.82976357  1
  Al  Al29  1  0.22419833  0.87662729  0.57478709  1
  Al  Al30  1  0.77682848  0.76016176  0.31809378  1
  Al  Al31  1  0.88888896  0.87222222  0.07235803  1
  Al  Al32  1  0.43953784  0.77092434  0.83017571  1
  Al  Al33  1  0.54917444  0.87662714  0.57478708  1
  Gd  Gd34  1  0.55555519  0.53888888  0.58597401  1
  Gd  Gd35  1  0.88888890  0.87222217  0.58429139  1
  N  N36  1  0.22222224  0.20555554  0.38504918  1
  N  N37  1  0.11180191  0.09513521  0.13519493  1
  N  N38  1  0.89261908  0.20329764  0.88774112  1
  N  N39  1  0.75983541  0.13032931  0.64165471  1
  N  N40  1  0.55574585  0.20602862  0.38159685  1
  N  N41  1  0.44306310  0.09513517  0.13519494  1
  N  N42  1  0.22222222  0.20555554  0.88212133  1
  N  N43  1  0.11054299  0.09387645  0.63245829  1
  N  N44  1  0.88822550  0.20602868  0.38159683  1
  N  N45  1  0.77707800  0.09584425  0.12822419  1
  N  N46  1  0.55408330  0.20329750  0.88774115  1
  N  N47  1  0.44558075  0.09387627  0.63245829  1
  N  N48  1  0.22269531  0.53907913  0.38159686  1
  N  N49  1  0.11180189  0.42639635  0.13519493  1
  N  N50  1  0.89261905  0.53741656  0.88774114  1
  N  N51  1  0.81191103  0.41071118  0.64476550  1
  N  N52  1  0.55555549  0.53888887  0.36125138  1
  N  N53  1  0.44361293  0.42694620  0.12810338  1
  N  N54  1  0.21996416  0.53741661  0.88774115  1
  N  N55  1  0.11054289  0.42891405  0.63245829  1
  N  N56  1  0.88822547  0.53907914  0.38159682  1
  N  N57  1  0.77944095  0.42694626  0.12810341  1
  N  N58  1  0.55555543  0.53888888  0.87534202  1
  N  N59  1  0.42737760  0.41071089  0.64476566  1
  N  N60  1  0.22269534  0.87155885  0.38159685  1
  N  N61  1  0.11251101  0.76041124  0.12822420  1
  N  N62  1  0.88888890  0.87222220  0.87366713  1
  N  N63  1  0.75983541  0.74316872  0.64165474  1
  N  N64  1  0.55574585  0.87155879  0.38159683  1
  N  N65  1  0.44361295  0.76277429  0.12810340  1
  N  N66  1  0.21996423  0.87595249  0.88774114  1
  N  N67  1  0.14699612  0.74316866  0.64165471  1
  N  N68  1  0.88888891  0.87222219  0.36128934  1
  N  N69  1  0.77707800  0.76041124  0.12822418  1
  N  N70  1  0.55408326  0.87595242  0.88774116  1
  N  N71  1  0.42737773  0.79524465  0.64476558  1
