# generated using pymatgen
data_GdAl17N18
_symmetry_space_group_name_H-M   'P 1'
_cell_length_a   9.76430278
_cell_length_b   9.76430356
_cell_length_c   9.43813913
_cell_angle_alpha   89.99999432
_cell_angle_beta   89.99999254
_cell_angle_gamma   60.00000807
_symmetry_Int_Tables_number   1
_chemical_formula_structural   GdAl17N18
_chemical_formula_sum   'Gd2 Al34 N36'
_cell_volume   779.29080582
_cell_formula_units_Z   2
loop_
 _symmetry_equiv_pos_site_id
 _symmetry_equiv_pos_as_xyz
  1  'x, y, z'
loop_
 _atom_site_type_symbol
 _atom_site_label
 _atom_site_symmetry_multiplicity
 _atom_site_fract_x
 _atom_site_fract_y
 _atom_site_fract_z
 _atom_site_occupancy
  Al  Al0  1  0.11247452  0.09580781  0.33179603  1
  Al  Al1  1  0.22222216  0.20555551  0.07695653  1
  Al  Al2  1  0.77287841  0.10424326  0.84002707  1
  Al  Al3  1  0.89246927  0.20737611  0.57843504  1
  Al  Al4  1  0.44171755  0.09580788  0.33179580  1
  Al  Al5  1  0.55312509  0.20386661  0.08258738  1
  Al  Al6  1  0.11045040  0.09378378  0.82836010  1
  Al  Al7  1  0.22222221  0.20555563  0.58477180  1
  Al  Al8  1  0.77628272  0.09743445  0.32310467  1
  Al  Al9  1  0.89300834  0.20386655  0.08258742  1
  Al  Al10  1  0.44576579  0.09378379  0.82836037  1
  Al  Al11  1  0.55015459  0.20737610  0.57843511  1
  Al  Al12  1  0.11247453  0.42505097  0.33179581  1
  Al  Al13  1  0.22053330  0.53645837  0.08258727  1
  Al  Al14  1  0.78898298  0.42217517  0.83922492  1
  Al  Al15  1  0.89246945  0.53348782  0.57843510  1
  Al  Al16  1  0.44336244  0.42669586  0.32223011  1
  Al  Al17  1  0.55555556  0.53888884  0.08382841  1
  Al  Al18  1  0.11045044  0.42909910  0.82836038  1
  Al  Al19  1  0.22404269  0.53348796  0.57843515  1
  Al  Al20  1  0.77994163  0.42669580  0.32223007  1
  Al  Al21  1  0.89300826  0.53645850  0.08258744  1
  Al  Al22  1  0.43884190  0.42217514  0.83922478  1
  Al  Al23  1  0.11410117  0.75961603  0.32310457  1
  Al  Al24  1  0.22053317  0.87634172  0.08258731  1
  Al  Al25  1  0.77287840  0.75621168  0.84002687  1
  Al  Al26  1  0.44336241  0.76327497  0.32222987  1
  Al  Al27  1  0.55312520  0.87634163  0.08258743  1
  Al  Al28  1  0.12091009  0.75621163  0.84002707  1
  Al  Al29  1  0.22404274  0.87580266  0.57843508  1
  Al  Al30  1  0.77628271  0.75961604  0.32310492  1
  Al  Al31  1  0.88888887  0.87222216  0.08482651  1
  Al  Al32  1  0.43884184  0.77231641  0.83922507  1
  Al  Al33  1  0.55015444  0.87580279  0.57843510  1
  Gd  Gd34  1  0.55555547  0.53888913  0.59792088  1
  Gd  Gd35  1  0.88888915  0.87222217  0.59736167  1
  N  N36  1  0.22222221  0.20555561  0.38201773  1
  N  N37  1  0.11290380  0.09623712  0.13024316  1
  N  N38  1  0.89386688  0.20257250  0.88349064  1
  N  N39  1  0.75997786  0.13004423  0.63558465  1
  N  N40  1  0.55545832  0.20594135  0.37317743  1
  N  N41  1  0.44085899  0.09623716  0.13024296  1
  N  N42  1  0.22222219  0.20555552  0.87250797  1
  N  N43  1  0.10975903  0.09309243  0.62501332  1
  N  N44  1  0.88860020  0.20594137  0.37317741  1
  N  N45  1  0.77655197  0.09689598  0.12141319  1
  N  N46  1  0.55356068  0.20257251  0.88349060  1
  N  N47  1  0.44714848  0.09309247  0.62501357  1
  N  N48  1  0.22260798  0.53879171  0.37317748  1
  N  N49  1  0.11290382  0.42419234  0.13024294  1
  N  N50  1  0.89386680  0.53689407  0.88349064  1
  N  N51  1  0.81182925  0.41075204  0.63794805  1
  N  N52  1  0.55555551  0.53888893  0.35308561  1
  N  N53  1  0.44308005  0.42641336  0.12098466  1
  N  N54  1  0.21923926  0.53689390  0.88349057  1
  N  N55  1  0.10975909  0.43048184  0.62501361  1
  N  N56  1  0.88860031  0.53879158  0.37317745  1
  N  N57  1  0.78050655  0.42641335  0.12098462  1
  N  N58  1  0.55555557  0.53888890  0.87266188  1
  N  N59  1  0.42741887  0.41075194  0.63794793  1
  N  N60  1  0.22260806  0.87193352  0.37317742  1
  N  N61  1  0.11356272  0.75988525  0.12141309  1
  N  N62  1  0.88888894  0.87222218  0.87192289  1
  N  N63  1  0.75997786  0.74331125  0.63558439  1
  N  N64  1  0.55545817  0.87193366  0.37317741  1
  N  N65  1  0.44308003  0.76383989  0.12098444  1
  N  N66  1  0.21923911  0.87720032  0.88349062  1
  N  N67  1  0.14671112  0.74331110  0.63558476  1
  N  N68  1  0.88888890  0.87222220  0.35378795  1
  N  N69  1  0.77655198  0.75988528  0.12141344  1
  N  N70  1  0.55356079  0.87720021  0.88349065  1
  N  N71  1  0.42741873  0.79516279  0.63794825  1
