# generated using pymatgen
data_GdAl17N18
_symmetry_space_group_name_H-M   'P 1'
_cell_length_a   9.73995538
_cell_length_b   9.73995561
_cell_length_c   9.50837035
_cell_angle_alpha   89.99999520
_cell_angle_beta   89.99999195
_cell_angle_gamma   60.00000772
_symmetry_Int_Tables_number   1
_chemical_formula_structural   GdAl17N18
_chemical_formula_sum   'Gd2 Al34 N36'
_cell_volume   781.17925125
_cell_formula_units_Z   2
loop_
 _symmetry_equiv_pos_site_id
 _symmetry_equiv_pos_as_xyz
  1  'x, y, z'
loop_
 _atom_site_type_symbol
 _atom_site_label
 _atom_site_symmetry_multiplicity
 _atom_site_fract_x
 _atom_site_fract_y
 _atom_site_fract_z
 _atom_site_occupancy
  Al  Al0  1  0.11237866  0.09571198  0.33094388  1
  Al  Al1  1  0.22222218  0.20555551  0.07650023  1
  Al  Al2  1  0.77280625  0.10438755  0.83861320  1
  Al  Al3  1  0.89254075  0.20742457  0.57781758  1
  Al  Al4  1  0.44190929  0.09571201  0.33094371  1
  Al  Al5  1  0.55324640  0.20390669  0.08166690  1
  Al  Al6  1  0.11051347  0.09384686  0.82767561  1
  Al  Al7  1  0.22222225  0.20555560  0.58364889  1
  Al  Al8  1  0.77641493  0.09717003  0.32254723  1
  Al  Al9  1  0.89284692  0.20390665  0.08166694  1
  Al  Al10  1  0.44563966  0.09384685  0.82767580  1
  Al  Al11  1  0.55003469  0.20742446  0.57781762  1
  Al  Al12  1  0.11237866  0.42524267  0.33094370  1
  Al  Al13  1  0.22057340  0.53657968  0.08166683  1
  Al  Al14  1  0.78905714  0.42213810  0.83797498  1
  Al  Al15  1  0.89254090  0.53336790  0.57781763  1
  Al  Al16  1  0.44348585  0.42681922  0.32168997  1
  Al  Al17  1  0.55555556  0.53888884  0.08211180  1
  Al  Al18  1  0.11051350  0.42897297  0.82767583  1
  Al  Al19  1  0.22409124  0.53336794  0.57781768  1
  Al  Al20  1  0.77969486  0.42681919  0.32168992  1
  Al  Al21  1  0.89284686  0.53657979  0.08166695  1
  Al  Al22  1  0.43880483  0.42213806  0.83797486  1
  Al  Al23  1  0.11383672  0.75974826  0.32254713  1
  Al  Al24  1  0.22057329  0.87618030  0.08166686  1
  Al  Al25  1  0.77280624  0.75613955  0.83861304  1
  Al  Al26  1  0.44348583  0.76302821  0.32168978  1
  Al  Al27  1  0.55324650  0.87618022  0.08166694  1
  Al  Al28  1  0.12105434  0.75613951  0.83861323  1
  Al  Al29  1  0.22409129  0.87587413  0.57781763  1
  Al  Al30  1  0.77641491  0.75974827  0.32254743  1
  Al  Al31  1  0.88888887  0.87222217  0.08297269  1
  Al  Al32  1  0.43880478  0.77239055  0.83797511  1
  Al  Al33  1  0.55003455  0.87587432  0.57781761  1
  Gd  Gd34  1  0.55555552  0.53888908  0.59708722  1
  Gd  Gd35  1  0.88888903  0.87222221  0.59643953  1
  N  N36  1  0.22222219  0.20555561  0.38247930  1
  N  N37  1  0.11279583  0.09612915  0.13095242  1
  N  N38  1  0.89378831  0.20261870  0.88415096  1
  N  N39  1  0.75983390  0.13033219  0.63648965  1
  N  N40  1  0.55548898  0.20596513  0.37427528  1
  N  N41  1  0.44107492  0.09612919  0.13095225  1
  N  N42  1  0.22222218  0.20555553  0.87372744  1
  N  N43  1  0.10982054  0.09315393  0.62596562  1
  N  N44  1  0.88854579  0.20596514  0.37427528  1
  N  N45  1  0.77665136  0.09669721  0.12241116  1
  N  N46  1  0.55359306  0.20261873  0.88415094  1
  N  N47  1  0.44702544  0.09315399  0.62596582  1
  N  N48  1  0.22263175  0.53882238  0.37427534  1
  N  N49  1  0.11279585  0.42440829  0.13095225  1
  N  N50  1  0.89378824  0.53692642  0.88415096  1
  N  N51  1  0.81208227  0.41062553  0.63891442  1
  N  N52  1  0.55555551  0.53888893  0.35470748  1
  N  N53  1  0.44317407  0.42650742  0.12196985  1
  N  N54  1  0.21928545  0.53692631  0.88415088  1
  N  N55  1  0.10982060  0.43035883  0.62596585  1
  N  N56  1  0.88854588  0.53882225  0.37427531  1
  N  N57  1  0.78031847  0.42650740  0.12196981  1
  N  N58  1  0.55555556  0.53888891  0.87269664  1
  N  N59  1  0.42729219  0.41062561  0.63891431  1
  N  N60  1  0.22263182  0.87187910  0.37427530  1
  N  N61  1  0.11336395  0.75998464  0.12241109  1
  N  N62  1  0.88888897  0.87222217  0.87188247  1
  N  N63  1  0.75983391  0.74316724  0.63648944  1
  N  N64  1  0.55548886  0.87187920  0.37427526  1
  N  N65  1  0.44317405  0.76365181  0.12196967  1
  N  N66  1  0.21928533  0.87712170  0.88415092  1
  N  N67  1  0.14699910  0.74316711  0.63648974  1
  N  N68  1  0.88888892  0.87222219  0.35541996  1
  N  N69  1  0.77665137  0.75998467  0.12241136  1
  N  N70  1  0.55359315  0.87712160  0.88415098  1
  N  N71  1  0.42729207  0.79541578  0.63891458  1
