# generated using pymatgen
data_GdAl17N18
_symmetry_space_group_name_H-M   'P 1'
_cell_length_a   9.58796038
_cell_length_b   9.58796106
_cell_length_c   9.92967299
_cell_angle_alpha   89.99999816
_cell_angle_beta   89.99999502
_cell_angle_gamma   59.99999646
_symmetry_Int_Tables_number   1
_chemical_formula_structural   GdAl17N18
_chemical_formula_sum   'Gd2 Al34 N36'
_cell_volume   790.52945225
_cell_formula_units_Z   2
loop_
 _symmetry_equiv_pos_site_id
 _symmetry_equiv_pos_as_xyz
  1  'x, y, z'
loop_
 _atom_site_type_symbol
 _atom_site_label
 _atom_site_symmetry_multiplicity
 _atom_site_fract_x
 _atom_site_fract_y
 _atom_site_fract_z
 _atom_site_occupancy
  Al  Al0  1  0.11087575  0.09420909  0.38359028  1
  Al  Al1  1  0.22222224  0.20555555  0.13373068  1
  Al  Al2  1  0.77697024  0.09605953  0.88880551  1
  Al  Al3  1  0.89315652  0.20754248  0.63329520  1
  Al  Al4  1  0.44491514  0.09420909  0.38359030  1
  Al  Al5  1  0.55403916  0.20428085  0.13150511  1
  Al  Al6  1  0.11179202  0.09512535  0.88190138  1
  Al  Al7  1  0.22222224  0.20555555  0.63044438  1
  Al  Al8  1  0.77271935  0.10456129  0.37680679  1
  Al  Al9  1  0.89167997  0.20428088  0.13150511  1
  Al  Al10  1  0.44308266  0.09512533  0.88190136  1
  Al  Al11  1  0.54930099  0.20754248  0.63329519  1
  Al  Al12  1  0.11087576  0.42824847  0.38359030  1
  Al  Al13  1  0.22094752  0.53737249  0.13150510  1
  Al  Al14  1  0.77872025  0.42730654  0.88944015  1
  Al  Al15  1  0.89315652  0.53263431  0.63329520  1
  Al  Al16  1  0.43901368  0.42234703  0.37663435  1
  Al  Al17  1  0.55555556  0.53888890  0.13455215  1
  Al  Al18  1  0.11179201  0.42641597  0.88190136  1
  Al  Al19  1  0.22420914  0.53263432  0.63329519  1
  Al  Al20  1  0.78863928  0.42234702  0.37663437  1
  Al  Al21  1  0.89167998  0.53737250  0.13150511  1
  Al  Al22  1  0.44397321  0.42730652  0.88944016  1
  Al  Al23  1  0.12122793  0.75605270  0.37680679  1
  Al  Al24  1  0.22094754  0.87501330  0.13150510  1
  Al  Al25  1  0.77697024  0.76030356  0.88880552  1
  Al  Al26  1  0.43901368  0.77197262  0.37663437  1
  Al  Al27  1  0.55403917  0.87501331  0.13150511  1
  Al  Al28  1  0.11272620  0.76030357  0.88880550  1
  Al  Al29  1  0.22420914  0.87648986  0.63329519  1
  Al  Al30  1  0.77271934  0.75605268  0.37680677  1
  Al  Al31  1  0.88888890  0.87222224  0.13457313  1
  Al  Al32  1  0.44397322  0.76205358  0.88944014  1
  Al  Al33  1  0.54930098  0.87648985  0.63329519  1
  Gd  Gd34  1  0.55555553  0.53888889  0.61786301  1
  Gd  Gd35  1  0.88888883  0.87222224  0.61910252  1
  N  N36  1  0.22222222  0.20555556  0.32824751  1
  N  N37  1  0.11208449  0.09541781  0.07414120  1
  N  N38  1  0.88834456  0.20601033  0.82855555  1
  N  N39  1  0.75940101  0.13119798  0.56785492  1
  N  N40  1  0.55392014  0.20308358  0.32118338  1
  N  N41  1  0.44249772  0.09541781  0.07414118  1
  N  N42  1  0.22222223  0.20555555  0.82390497  1
  N  N43  1  0.11029772  0.09363104  0.57742808  1
  N  N44  1  0.89299626  0.20308360  0.32118338  1
  N  N45  1  0.77717952  0.09564099  0.08113521  1
  N  N46  1  0.55564512  0.20601032  0.82855554  1
  N  N47  1  0.44607127  0.09363102  0.57742809  1
  N  N48  1  0.21975022  0.53725350  0.32118338  1
  N  N49  1  0.11208450  0.42583102  0.07414118  1
  N  N50  1  0.88834455  0.53897846  0.82855555  1
  N  N51  1  0.81275776  0.41028778  0.56490682  1
  N  N52  1  0.55555555  0.53888890  0.33465392  1
  N  N53  1  0.44369108  0.42702440  0.08145542  1
  N  N54  1  0.22267699  0.53897845  0.82855555  1
  N  N55  1  0.11029771  0.42940457  0.57742809  1
  N  N56  1  0.89299627  0.53725346  0.32118338  1
  N  N57  1  0.77928454  0.42702441  0.08145541  1
  N  N58  1  0.55555555  0.53888889  0.84670893  1
  N  N59  1  0.42695443  0.41028780  0.56490679  1
  N  N60  1  0.21975024  0.87632960  0.32118338  1
  N  N61  1  0.11230767  0.76051283  0.08113520  1
  N  N62  1  0.88888889  0.87222223  0.84625787  1
  N  N63  1  0.75940101  0.74273432  0.56785489  1
  N  N64  1  0.55392012  0.87632961  0.32118338  1
  N  N65  1  0.44369109  0.76261786  0.08145541  1
  N  N66  1  0.22267700  0.87167789  0.82855555  1
  N  N67  1  0.14786461  0.74273435  0.56785493  1
  N  N68  1  0.88888888  0.87222224  0.33608996  1
  N  N69  1  0.77717953  0.76051284  0.08113522  1
  N  N70  1  0.55564513  0.87167788  0.82855554  1
  N  N71  1  0.42695443  0.79609109  0.56490682  1
