# generated using pymatgen
data_GdAl17N18
_symmetry_space_group_name_H-M   'P 1'
_cell_length_a   10.05874300
_cell_length_b   10.05874303
_cell_length_c   8.56607956
_cell_angle_alpha   89.99997577
_cell_angle_beta   89.99996432
_cell_angle_gamma   60.00000940
_symmetry_Int_Tables_number   1
_chemical_formula_structural   GdAl17N18
_chemical_formula_sum   'Gd2 Al34 N36'
_cell_volume   750.58555488
_cell_formula_units_Z   2
loop_
 _symmetry_equiv_pos_site_id
 _symmetry_equiv_pos_as_xyz
  1  'x, y, z'
loop_
 _atom_site_type_symbol
 _atom_site_label
 _atom_site_symmetry_multiplicity
 _atom_site_fract_x
 _atom_site_fract_y
 _atom_site_fract_z
 _atom_site_occupancy
  Al  Al0  1  0.11160462  0.09493909  0.35248604  1
  Al  Al1  1  0.22222219  0.20555553  0.10464328  1
  Al  Al2  1  0.77438130  0.10123757  0.86503719  1
  Al  Al3  1  0.89376407  0.20556130  0.60426336  1
  Al  Al4  1  0.44345632  0.09493837  0.35249044  1
  Al  Al5  1  0.55320824  0.20442674  0.10419467  1
  Al  Al6  1  0.11165399  0.09498620  0.85626316  1
  Al  Al7  1  0.22222220  0.20555554  0.60435342  1
  Al  Al8  1  0.77439032  0.10121894  0.34313810  1
  Al  Al9  1  0.89236498  0.20442673  0.10419651  1
  Al  Al10  1  0.44335957  0.09498701  0.85626763  1
  Al  Al11  1  0.55067455  0.20556134  0.60426280  1
  Al  Al12  1  0.11160420  0.42679019  0.35249081  1
  Al  Al13  1  0.22109342  0.53654156  0.10419148  1
  Al  Al14  1  0.78485691  0.42423792  0.86410659  1
  Al  Al15  1  0.89376416  0.53400793  0.60427178  1
  Al  Al16  1  0.44091825  0.42425156  0.34428989  1
  Al  Al17  1  0.55555557  0.53888890  0.10421670  1
  Al  Al18  1  0.11165450  0.42669238  0.85626800  1
  Al  Al19  1  0.22222801  0.53400789  0.60425765  1
  Al  Al20  1  0.78483217  0.42425086  0.34429769  1
  Al  Al21  1  0.89236501  0.53654164  0.10419989  1
  Al  Al22  1  0.44090393  0.42423729  0.86409880  1
  Al  Al23  1  0.11788375  0.75772435  0.34313064  1
  Al  Al24  1  0.22109340  0.87569833  0.10418915  1
  Al  Al25  1  0.77438171  0.75771551  0.86504190  1
  Al  Al26  1  0.44091887  0.76816285  0.34428755  1
  Al  Al27  1  0.55320831  0.87569835  0.10419571  1
  Al  Al28  1  0.11790611  0.75771393  0.86502981  1
  Al  Al29  1  0.22222797  0.87709739  0.60425103  1
  Al  Al30  1  0.77439008  0.75772295  0.34314294  1
  Al  Al31  1  0.88888887  0.87222222  0.10411886  1
  Al  Al32  1  0.44090324  0.76819292  0.86409647  1
  Al  Al33  1  0.55067461  0.87709749  0.60426458  1
  Gd  Gd34  1  0.55555559  0.53888894  0.60423379  1
  Gd  Gd35  1  0.88888896  0.87222225  0.60418392  1
  N  N36  1  0.22222214  0.20555585  0.35717879  1
  N  N37  1  0.11285899  0.09619233  0.10425452  1
  N  N38  1  0.89155515  0.20402674  0.86063998  1
  N  N39  1  0.76254566  0.12490855  0.60446548  1
  N  N40  1  0.55449000  0.20403040  0.34789117  1
  N  N41  1  0.44094857  0.09619236  0.10425095  1
  N  N42  1  0.22222224  0.20555520  0.85107447  1
  N  N43  1  0.11040370  0.09373703  0.60412689  1
  N  N44  1  0.89147958  0.20402924  0.34788984  1
  N  N45  1  0.77582015  0.09835960  0.10420264  1
  N  N46  1  0.55441913  0.20402566  0.86064132  1
  N  N47  1  0.44585915  0.09373711  0.60412526  1
  N  N48  1  0.22069642  0.53782453  0.34789417  1
  N  N49  1  0.11285903  0.42428190  0.10425049  1
  N  N50  1  0.89155442  0.53775258  0.86063654  1
  N  N51  1  0.80681941  0.41325697  0.60429808  1
  N  N52  1  0.55555538  0.53888913  0.33565800  1
  N  N53  1  0.44239681  0.42573014  0.10425020  1
  N  N54  1  0.22069297  0.53775126  0.86064432  1
  N  N55  1  0.11040377  0.42919249  0.60412553  1
  N  N56  1  0.89148039  0.53782339  0.34788641  1
  N  N57  1  0.78187306  0.42573015  0.10424876  1
  N  N58  1  0.55555579  0.53888872  0.87282145  1
  N  N59  1  0.42992368  0.41325701  0.60430961  1
  N  N60  1  0.22069700  0.87481166  0.34789671  1
  N  N61  1  0.11502627  0.75915348  0.10420404  1
  N  N62  1  0.88888892  0.87222214  0.87241042  1
  N  N63  1  0.76254578  0.74587911  0.60445835  1
  N  N64  1  0.55448902  0.87481303  0.34789029  1
  N  N65  1  0.44239681  0.76520640  0.10424992  1
  N  N66  1  0.22069231  0.87488974  0.86064683  1
  N  N67  1  0.14157526  0.74587897  0.60447640  1
  N  N68  1  0.88888891  0.87222234  0.33598135  1
  N  N69  1  0.77582019  0.75915353  0.10420275  1
  N  N70  1  0.55442028  0.87488846  0.86064039  1
  N  N71  1  0.42992364  0.79015275  0.60431350  1
