# generated using pymatgen
data_GdAl17N18
_symmetry_space_group_name_H-M   'P 1'
_cell_length_a   9.63979963
_cell_length_b   9.63980085
_cell_length_c   9.78980356
_cell_angle_alpha   89.99999724
_cell_angle_beta   89.99999921
_cell_angle_gamma   60.00000392
_symmetry_Int_Tables_number   1
_chemical_formula_structural   GdAl17N18
_chemical_formula_sum   'Gd2 Al34 N36'
_cell_volume   787.84484037
_cell_formula_units_Z   2
loop_
 _symmetry_equiv_pos_site_id
 _symmetry_equiv_pos_as_xyz
  1  'x, y, z'
loop_
 _atom_site_type_symbol
 _atom_site_label
 _atom_site_symmetry_multiplicity
 _atom_site_fract_x
 _atom_site_fract_y
 _atom_site_fract_z
 _atom_site_occupancy
  Al  Al0  1  0.11198187  0.09531521  0.32787413  1
  Al  Al1  1  0.22222221  0.20555554  0.07518443  1
  Al  Al2  1  0.77264114  0.10471776  0.83368218  1
  Al  Al3  1  0.89293967  0.20753024  0.57584201  1
  Al  Al4  1  0.44270288  0.09531521  0.32787407  1
  Al  Al5  1  0.55378523  0.20413619  0.07842762  1
  Al  Al6  1  0.11076711  0.09410048  0.82559411  1
  Al  Al7  1  0.22222223  0.20555558  0.57966152  1
  Al  Al8  1  0.77686768  0.09626459  0.32062887  1
  Al  Al9  1  0.89207858  0.20413618  0.07842763  1
  Al  Al10  1  0.44513239  0.09410048  0.82559419  1
  Al  Al11  1  0.54953009  0.20753021  0.57584203  1
  Al  Al12  1  0.11198186  0.42603623  0.32787407  1
  Al  Al13  1  0.22080287  0.53711853  0.07842759  1
  Al  Al14  1  0.78901404  0.42215965  0.83361098  1
  Al  Al15  1  0.89293974  0.53286335  0.57584203  1
  Al  Al16  1  0.44389118  0.42722452  0.31988556  1
  Al  Al17  1  0.55555555  0.53888889  0.07606114  1
  Al  Al18  1  0.11076714  0.42846571  0.82559419  1
  Al  Al19  1  0.22419690  0.53286338  0.57584205  1
  Al  Al20  1  0.77888422  0.42722452  0.31988553  1
  Al  Al21  1  0.89207856  0.53711859  0.07842763  1
  Al  Al22  1  0.43882634  0.42215963  0.83361092  1
  Al  Al23  1  0.11293129  0.76020100  0.32062886  1
  Al  Al24  1  0.22080284  0.87541193  0.07842761  1
  Al  Al25  1  0.77264112  0.75597443  0.83368212  1
  Al  Al26  1  0.44389116  0.76221758  0.31988550  1
  Al  Al27  1  0.55378527  0.87541191  0.07842763  1
  Al  Al28  1  0.12138450  0.75597443  0.83368218  1
  Al  Al29  1  0.22419690  0.87627306  0.57584203  1
  Al  Al30  1  0.77686767  0.76020100  0.32062893  1
  Al  Al31  1  0.88888890  0.87222220  0.07632082  1
  Al  Al32  1  0.43882630  0.77234743  0.83361102  1
  Al  Al33  1  0.54953002  0.87627312  0.57584203  1
  Gd  Gd34  1  0.55555549  0.53888903  0.59323044  1
  Gd  Gd35  1  0.88888902  0.87222219  0.59222775  1
  N  N36  1  0.22222221  0.20555558  0.38395267  1
  N  N37  1  0.11232809  0.09566141  0.13333732  1
  N  N38  1  0.89331297  0.20289906  0.88640311  1
  N  N39  1  0.75941655  0.13116691  0.63942744  1
  N  N40  1  0.55559467  0.20600603  0.37818569  1
  N  N41  1  0.44201046  0.09566142  0.13333726  1
  N  N42  1  0.22222220  0.20555555  0.87822881  1
  N  N43  1  0.11012002  0.09345341  0.62947165  1
  N  N44  1  0.88839923  0.20600606  0.37818569  1
  N  N45  1  0.77705616  0.09588766  0.12592647  1
  N  N46  1  0.55378800  0.20289905  0.88640310  1
  N  N47  1  0.44642657  0.09345340  0.62947172  1
  N  N48  1  0.22267268  0.53892802  0.37818571  1
  N  N49  1  0.11232810  0.42534378  0.13333726  1
  N  N50  1  0.89331296  0.53712134  0.88640311  1
  N  N51  1  0.81277836  0.41027749  0.64218245  1
  N  N52  1  0.55555552  0.53888891  0.36018704  1
  N  N53  1  0.44356302  0.42689633  0.12552410  1
  N  N54  1  0.21956573  0.53712130  0.88640308  1
  N  N55  1  0.11012005  0.42975989  0.62947173  1
  N  N56  1  0.88839925  0.53892798  0.37818570  1
  N  N57  1  0.77954063  0.42689633  0.12552408  1
  N  N58  1  0.55555555  0.53888893  0.87315998  1
  N  N59  1  0.42694420  0.41027747  0.64218239  1
  N  N60  1  0.22267271  0.87173259  0.37818570  1
  N  N61  1  0.11255439  0.76038944  0.12592645  1
  N  N62  1  0.88888892  0.87222221  0.87196182  1
  N  N63  1  0.75941654  0.74274986  0.63942737  1
  N  N64  1  0.55559463  0.87173261  0.37818569  1
  N  N65  1  0.44356301  0.76287396  0.12552404  1
  N  N66  1  0.21956568  0.87664636  0.88640311  1
  N  N67  1  0.14783372  0.74274980  0.63942746  1
  N  N68  1  0.88888889  0.87222220  0.36081122  1
  N  N69  1  0.77705617  0.76038946  0.12592653  1
  N  N70  1  0.55378802  0.87664633  0.88640312  1
  N  N71  1  0.42694412  0.79611182  0.64218251  1
