# generated using pymatgen
data_GdAl17N18
_symmetry_space_group_name_H-M   'P 1'
_cell_length_a   10.05467071
_cell_length_b   10.05467061
_cell_length_c   8.57778469
_cell_angle_alpha   89.99997567
_cell_angle_beta   89.99996428
_cell_angle_gamma   60.00000991
_symmetry_Int_Tables_number   1
_chemical_formula_structural   GdAl17N18
_chemical_formula_sum   'Gd2 Al34 N36'
_cell_volume   751.00272978
_cell_formula_units_Z   2
loop_
 _symmetry_equiv_pos_site_id
 _symmetry_equiv_pos_as_xyz
  1  'x, y, z'
loop_
 _atom_site_type_symbol
 _atom_site_label
 _atom_site_symmetry_multiplicity
 _atom_site_fract_x
 _atom_site_fract_y
 _atom_site_fract_z
 _atom_site_occupancy
  Al  Al0  1  0.11186646  0.09520064  0.34990379  1
  Al  Al1  1  0.22222212  0.20555544  0.10080813  1
  Al  Al2  1  0.77424632  0.10150750  0.86359282  1
  Al  Al3  1  0.89372081  0.20559271  0.60103887  1
  Al  Al4  1  0.44293284  0.09520011  0.34990736  1
  Al  Al5  1  0.55317939  0.20440412  0.10242517  1
  Al  Al6  1  0.11139087  0.09472310  0.85342660  1
  Al  Al7  1  0.22222223  0.20555556  0.60265797  1
  Al  Al8  1  0.77454600  0.10090758  0.34154033  1
  Al  Al9  1  0.89241657  0.20440405  0.10242682  1
  Al  Al10  1  0.44388575  0.09472391  0.85343098  1
  Al  Al11  1  0.55068619  0.20559301  0.60103854  1
  Al  Al12  1  0.11186611  0.42626668  0.34990761  1
  Al  Al13  1  0.22107078  0.53651275  0.10242225  1
  Al  Al14  1  0.78531641  0.42400814  0.86214182  1
  Al  Al15  1  0.89372102  0.53401961  0.60104647  1
  Al  Al16  1  0.44116355  0.42449691  0.34215719  1
  Al  Al17  1  0.55555562  0.53888884  0.10330975  1
  Al  Al18  1  0.11139137  0.42721860  0.85343138  1
  Al  Al19  1  0.22225968  0.53401969  0.60103399  1
  Al  Al20  1  0.78434121  0.42449627  0.34216442  1
  Al  Al21  1  0.89241643  0.53651282  0.10242987  1
  Al  Al22  1  0.44067419  0.42400755  0.86213504  1
  Al  Al23  1  0.11757275  0.75787991  0.34153340  1
  Al  Al24  1  0.22107063  0.87574998  0.10242016  1
  Al  Al25  1  0.77424671  0.75758050  0.86359706  1
  Al  Al26  1  0.44116405  0.76767229  0.34215478  1
  Al  Al27  1  0.55317948  0.87574986  0.10242612  1
  Al  Al28  1  0.11817606  0.75757893  0.86358606  1
  Al  Al29  1  0.22225971  0.87705388  0.60102798  1
  Al  Al30  1  0.77454577  0.75787875  0.34154500  1
  Al  Al31  1  0.88888887  0.87222220  0.10354583  1
  Al  Al32  1  0.44067347  0.76865239  0.86213310  1
  Al  Al33  1  0.55068603  0.87705427  0.60104014  1
  Gd  Gd34  1  0.55555528  0.53888920  0.60425703  1
  Gd  Gd35  1  0.88888921  0.87222219  0.60431669  1
  N  N36  1  0.22222212  0.20555579  0.35988454  1
  N  N37  1  0.11289115  0.09622440  0.10700751  1
  N  N38  1  0.89181063  0.20382032  0.86306055  1
  N  N39  1  0.76250609  0.12498756  0.60718647  1
  N  N40  1  0.55453579  0.20423980  0.35018157  1
  N  N41  1  0.44088429  0.09622453  0.10700422  1
  N  N42  1  0.22222219  0.20555517  0.85338458  1
  N  N43  1  0.11036552  0.09369853  0.60628545  1
  N  N44  1  0.89122449  0.20423861  0.35018040  1
  N  N45  1  0.77583676  0.09832637  0.10534938  1
  N  N46  1  0.55436995  0.20381949  0.86306173  1
  N  N47  1  0.44593562  0.09369891  0.60628417  1
  N  N48  1  0.22090587  0.53787030  0.35018424  1
  N  N49  1  0.11289122  0.42421766  0.10700381  1
  N  N50  1  0.89180986  0.53770341  0.86305737  1
  N  N51  1  0.80690335  0.41321487  0.60774225  1
  N  N52  1  0.55555536  0.53888915  0.33599461  1
  N  N53  1  0.44241232  0.42574569  0.10535999  1
  N  N54  1  0.22048675  0.53770222  0.86306445  1
  N  N55  1  0.11036571  0.42926902  0.60628443  1
  N  N56  1  0.89122522  0.53786912  0.35017746  1
  N  N57  1  0.78184197  0.42574566  0.10535872  1
  N  N58  1  0.55555570  0.53888875  0.87300748  1
  N  N59  1  0.42988146  0.41321490  0.60775268  1
  N  N60  1  0.22090641  0.87455652  0.35018637  1
  N  N61  1  0.11499309  0.75917009  0.10535060  1
  N  N62  1  0.88888898  0.87222211  0.87267826  1
  N  N63  1  0.76250619  0.74583982  0.60717981  1
  N  N64  1  0.55453478  0.87455783  0.35018078  1
  N  N65  1  0.44241227  0.76517538  0.10535966  1
  N  N66  1  0.22048607  0.87514504  0.86306681  1
  N  N67  1  0.14165475  0.74583931  0.60719658  1
  N  N68  1  0.88888903  0.87222230  0.33640357  1
  N  N69  1  0.77583680  0.75917019  0.10534956  1
  N  N70  1  0.55437098  0.87514381  0.86306092  1
  N  N71  1  0.42988119  0.79023728  0.60775632  1
