# generated using pymatgen
data_GdAl17N18
_symmetry_space_group_name_H-M   'P 1'
_cell_length_a   9.92685523
_cell_length_b   9.92685521
_cell_length_c   8.95848751
_cell_angle_alpha   89.99998814
_cell_angle_beta   89.99998116
_cell_angle_gamma   60.00001130
_symmetry_Int_Tables_number   1
_chemical_formula_structural   GdAl17N18
_chemical_formula_sum   'Gd2 Al34 N36'
_cell_volume   764.51982131
_cell_formula_units_Z   2
loop_
 _symmetry_equiv_pos_site_id
 _symmetry_equiv_pos_as_xyz
  1  'x, y, z'
loop_
 _atom_site_type_symbol
 _atom_site_label
 _atom_site_symmetry_multiplicity
 _atom_site_fract_x
 _atom_site_fract_y
 _atom_site_fract_z
 _atom_site_occupancy
  Al  Al0  1  0.11286580  0.09619899  0.33851583  1
  Al  Al1  1  0.22222210  0.20555541  0.08284212  1
  Al  Al2  1  0.77349142  0.10301725  0.85157655  1
  Al  Al3  1  0.89260893  0.20667918  0.58483629  1
  Al  Al4  1  0.44093496  0.09619919  0.33851539  1
  Al  Al5  1  0.55269199  0.20388204  0.09070153  1
  Al  Al6  1  0.11027771  0.09361109  0.83612166  1
  Al  Al7  1  0.22222227  0.20555566  0.59320656  1
  Al  Al8  1  0.77546370  0.09907230  0.32932482  1
  Al  Al9  1  0.89342614  0.20388192  0.09070179  1
  Al  Al10  1  0.44611116  0.09361112  0.83612255  1
  Al  Al11  1  0.55071172  0.20667915  0.58483650  1
  Al  Al12  1  0.11286582  0.42426849  0.33851536  1
  Al  Al13  1  0.22054877  0.53602525  0.09070105  1
  Al  Al14  1  0.78784089  0.42274618  0.84945514  1
  Al  Al15  1  0.89260931  0.53404489  0.58483685  1
  Al  Al16  1  0.44248868  0.42582223  0.32835724  1
  Al  Al17  1  0.55555562  0.53888875  0.09510379  1
  Al  Al18  1  0.11027783  0.42944438  0.83612267  1
  Al  Al19  1  0.22334595  0.53404508  0.58483652  1
  Al  Al20  1  0.78168906  0.42582204  0.32835774  1
  Al  Al21  1  0.89342589  0.53602544  0.09070201  1
  Al  Al22  1  0.43941291  0.42274600  0.84945463  1
  Al  Al23  1  0.11573894  0.75879708  0.32932375  1
  Al  Al24  1  0.22054845  0.87675959  0.09070105  1
  Al  Al25  1  0.77349153  0.75682488  0.85157668  1
  Al  Al26  1  0.44248867  0.76502225  0.32835645  1
  Al  Al27  1  0.55269219  0.87675934  0.09070176  1
  Al  Al28  1  0.11968449  0.75682447  0.85157583  1
  Al  Al29  1  0.22334610  0.87594216  0.58483599  1
  Al  Al30  1  0.77546365  0.75879705  0.32932598  1
  Al  Al31  1  0.88888884  0.87222212  0.09651329  1
  Al  Al32  1  0.43941270  0.77117475  0.84945510  1
  Al  Al33  1  0.55071137  0.87594272  0.58483652  1
  Gd  Gd34  1  0.55555526  0.53888936  0.60258397  1
  Gd  Gd35  1  0.88888934  0.87222216  0.60267386  1
  N  N36  1  0.22222217  0.20555568  0.37620347  1
  N  N37  1  0.11337068  0.09670391  0.12285246  1
  N  N38  1  0.89365443  0.20267700  0.87706499  1
  N  N39  1  0.76121711  0.12756566  0.62577112  1
  N  N40  1  0.55508914  0.20548606  0.36376541  1
  N  N41  1  0.43992523  0.09670407  0.12285174  1
  N  N42  1  0.22222213  0.20555541  0.86357761  1
  N  N43  1  0.10965034  0.09298362  0.61756513  1
  N  N44  1  0.88942466  0.20548584  0.36376531  1
  N  N45  1  0.77610943  0.09778104  0.11364807  1
  N  N46  1  0.55366879  0.20267701  0.87706501  1
  N  N47  1  0.44736576  0.09298386  0.61756581  1
  N  N48  1  0.22215250  0.53842287  0.36376574  1
  N  N49  1  0.11337076  0.42325863  0.12285168  1
  N  N50  1  0.89365411  0.53700225  0.87706486  1
  N  N51  1  0.80953447  0.41189934  0.62808487  1
  N  N52  1  0.55555543  0.53888902  0.34226589  1
  N  N53  1  0.44266751  0.42600091  0.11345499  1
  N  N54  1  0.21934387  0.53700183  0.87706500  1
  N  N55  1  0.10965050  0.43069921  0.61756595  1
  N  N56  1  0.88942501  0.53842227  0.36376527  1
  N  N57  1  0.78133152  0.42600083  0.11345499  1
  N  N58  1  0.55555555  0.53888888  0.87283593  1
  N  N59  1  0.42856596  0.41189939  0.62808541  1
  N  N60  1  0.22215272  0.87275764  0.36376563  1
  N  N61  1  0.11444786  0.75944267  0.11364784  1
  N  N62  1  0.88888907  0.87222211  0.87252477  1
  N  N63  1  0.76121716  0.74455068  0.62576979  1
  N  N64  1  0.55508868  0.87275816  0.36376526  1
  N  N65  1  0.44266745  0.76466489  0.11345440  1
  N  N66  1  0.21934350  0.87698803  0.87706518  1
  N  N67  1  0.14423303  0.74455018  0.62577251  1
  N  N68  1  0.88888905  0.87222218  0.34285908  1
  N  N69  1  0.77610945  0.75944276  0.11364868  1
  N  N70  1  0.55366911  0.87698762  0.87706507  1
  N  N71  1  0.42856563  0.79286845  0.62808629  1
