# generated using pymatgen
data_GdAl17N18
_symmetry_space_group_name_H-M   'P 1'
_cell_length_a   9.51731690
_cell_length_b   9.51731691
_cell_length_c   10.11274952
_cell_angle_alpha   90.00000021
_cell_angle_beta   90.00000017
_cell_angle_gamma   60.00000152
_symmetry_Int_Tables_number   1
_chemical_formula_structural   GdAl17N18
_chemical_formula_sum   'Gd2 Al34 N36'
_cell_volume   793.28446573
_cell_formula_units_Z   2
loop_
 _symmetry_equiv_pos_site_id
 _symmetry_equiv_pos_as_xyz
  1  'x, y, z'
loop_
 _atom_site_type_symbol
 _atom_site_label
 _atom_site_symmetry_multiplicity
 _atom_site_fract_x
 _atom_site_fract_y
 _atom_site_fract_z
 _atom_site_occupancy
  Al  Al0  1  0.11104727  0.09438060  0.40652341  1
  Al  Al1  1  0.22222223  0.20555556  0.15618507  1
  Al  Al2  1  0.77668054  0.09663892  0.91312053  1
  Al  Al3  1  0.89327847  0.20751878  0.65570504  1
  Al  Al4  1  0.44457212  0.09438060  0.40652341  1
  Al  Al5  1  0.55418727  0.20447181  0.15606554  1
  Al  Al6  1  0.11149652  0.09482986  0.90544293  1
  Al  Al7  1  0.22222222  0.20555555  0.65452506  1
  Al  Al8  1  0.77340450  0.10319100  0.40121180  1
  Al  Al9  1  0.89134092  0.20447183  0.15606555  1
  Al  Al10  1  0.44367360  0.09482985  0.90544293  1
  Al  Al11  1  0.54920272  0.20751878  0.65570504  1
  Al  Al12  1  0.11104726  0.42790545  0.40652341  1
  Al  Al13  1  0.22113848  0.53752060  0.15606554  1
  Al  Al14  1  0.77932028  0.42700653  0.91338634  1
  Al  Al15  1  0.89327847  0.53253606  0.65570504  1
  Al  Al16  1  0.43981254  0.42314587  0.40075584  1
  Al  Al17  1  0.55555556  0.53888889  0.15779515  1
  Al  Al18  1  0.11149652  0.42700694  0.90544293  1
  Al  Al19  1  0.22418545  0.53253606  0.65570504  1
  Al  Al20  1  0.78704157  0.42314588  0.40075584  1
  Al  Al21  1  0.89134092  0.53752062  0.15606555  1
  Al  Al22  1  0.44367318  0.42700652  0.91338634  1
  Al  Al23  1  0.11985766  0.75673783  0.40121180  1
  Al  Al24  1  0.22113849  0.87467425  0.15606555  1
  Al  Al25  1  0.77668054  0.76001388  0.91312052  1
  Al  Al26  1  0.43981255  0.77037490  0.40075584  1
  Al  Al27  1  0.55418728  0.87467425  0.15606555  1
  Al  Al28  1  0.11330558  0.76001387  0.91312053  1
  Al  Al29  1  0.22418544  0.87661180  0.65570504  1
  Al  Al30  1  0.77340450  0.75673783  0.40121180  1
  Al  Al31  1  0.88888890  0.87222224  0.15819056  1
  Al  Al32  1  0.44367319  0.76265361  0.91338634  1
  Al  Al33  1  0.54920273  0.87661181  0.65570504  1
  Gd  Gd34  1  0.55555555  0.53888888  0.64663776  1
  Gd  Gd35  1  0.88888888  0.87222222  0.64850550  1
  N  N36  1  0.22222222  0.20555555  0.34792075  1
  N  N37  1  0.11170933  0.09504267  0.09515569  1
  N  N38  1  0.88815513  0.20604293  0.84850241  1
  N  N39  1  0.76016279  0.12967437  0.58866133  1
  N  N40  1  0.55413055  0.20335692  0.34288182  1
  N  N41  1  0.44324799  0.09504267  0.09515568  1
  N  N42  1  0.22222222  0.20555555  0.84541367  1
  N  N43  1  0.11063762  0.09397096  0.59776262  1
  N  N44  1  0.89251253  0.20335693  0.34288183  1
  N  N45  1  0.77693832  0.09612337  0.10231015  1
  N  N46  1  0.55580194  0.20604291  0.84850241  1
  N  N47  1  0.44539140  0.09397095  0.59776262  1
  N  N48  1  0.22002359  0.53746388  0.34288182  1
  N  N49  1  0.11170934  0.42658132  0.09515568  1
  N  N50  1  0.88815513  0.53913528  0.84850241  1
  N  N51  1  0.81130552  0.41101389  0.58555186  1
  N  N52  1  0.55555556  0.53888889  0.35442600  1
  N  N53  1  0.44348896  0.42682229  0.10234050  1
  N  N54  1  0.22270958  0.53913528  0.84850241  1
  N  N55  1  0.11063762  0.42872473  0.59776262  1
  N  N56  1  0.89251253  0.53746388  0.34288183  1
  N  N57  1  0.77968875  0.42682230  0.10234050  1
  N  N58  1  0.55555555  0.53888888  0.87035061  1
  N  N59  1  0.42768057  0.41101390  0.58555185  1
  N  N60  1  0.22002359  0.87584586  0.34288183  1
  N  N61  1  0.11279003  0.76027165  0.10231015  1
  N  N62  1  0.88888889  0.87222222  0.87050659  1
  N  N63  1  0.76016281  0.74349614  0.58866133  1
  N  N64  1  0.55413054  0.87584586  0.34288183  1
  N  N65  1  0.44348897  0.76302208  0.10234050  1
  N  N66  1  0.22270959  0.87148846  0.84850241  1
  N  N67  1  0.14634104  0.74349613  0.58866133  1
  N  N68  1  0.88888889  0.87222223  0.35610508  1
  N  N69  1  0.77693833  0.76027166  0.10231015  1
  N  N70  1  0.55580195  0.87148846  0.84850241  1
  N  N71  1  0.42768056  0.79463885  0.58555186  1
