# generated using pymatgen
data_GdAl17N18
_symmetry_space_group_name_H-M   'P 1'
_cell_length_a   9.51776283
_cell_length_b   9.51776295
_cell_length_c   10.11160540
_cell_angle_alpha   90.00000120
_cell_angle_beta   90.00000160
_cell_angle_gamma   59.99999650
_symmetry_Int_Tables_number   1
_chemical_formula_structural   GdAl17N18
_chemical_formula_sum   'Gd2 Al34 N36'
_cell_volume   793.26901630
_cell_formula_units_Z   2
loop_
 _symmetry_equiv_pos_site_id
 _symmetry_equiv_pos_as_xyz
  1  'x, y, z'
loop_
 _atom_site_type_symbol
 _atom_site_label
 _atom_site_symmetry_multiplicity
 _atom_site_fract_x
 _atom_site_fract_y
 _atom_site_fract_z
 _atom_site_occupancy
  Al  Al0  1  0.11150114  0.09483447  0.32161281  1
  Al  Al1  1  0.22222223  0.20555556  0.07085892  1
  Al  Al2  1  0.77338587  0.10322826  0.82585123  1
  Al  Al3  1  0.89328202  0.20751995  0.57133446  1
  Al  Al4  1  0.44366440  0.09483446  0.32161281  1
  Al  Al5  1  0.55419112  0.20447077  0.07102119  1
  Al  Al6  1  0.11104360  0.09437693  0.82053364  1
  Al  Al7  1  0.22222222  0.20555556  0.57254217  1
  Al  Al8  1  0.77669275  0.09661451  0.31397042  1
  Al  Al9  1  0.89133813  0.20447078  0.07102119  1
  Al  Al10  1  0.44457947  0.09437692  0.82053364  1
  Al  Al11  1  0.54919799  0.20751995  0.57133446  1
  Al  Al12  1  0.11150113  0.42699772  0.32161280  1
  Al  Al13  1  0.22113744  0.53752445  0.07102119  1
  Al  Al14  1  0.78707760  0.42312786  0.82630816  1
  Al  Al15  1  0.89328202  0.53253132  0.57133445  1
  Al  Al16  1  0.44368511  0.42701844  0.31369729  1
  Al  Al17  1  0.55555556  0.53888890  0.06923172  1
  Al  Al18  1  0.11104359  0.42791280  0.82053364  1
  Al  Al19  1  0.22418661  0.53253132  0.57133446  1
  Al  Al20  1  0.77929642  0.42701846  0.31369730  1
  Al  Al21  1  0.89133813  0.53752445  0.07102119  1
  Al  Al22  1  0.43979452  0.42312785  0.82630817  1
  Al  Al23  1  0.11328118  0.76002608  0.31397042  1
  Al  Al24  1  0.22113745  0.87467146  0.07102119  1
  Al  Al25  1  0.77338586  0.75671919  0.82585123  1
  Al  Al26  1  0.44368512  0.76262975  0.31369729  1
  Al  Al27  1  0.55419113  0.87467146  0.07102119  1
  Al  Al28  1  0.11989493  0.75671920  0.82585123  1
  Al  Al29  1  0.22418661  0.87661537  0.57133446  1
  Al  Al30  1  0.77669275  0.76002608  0.31397042  1
  Al  Al31  1  0.88888891  0.87222223  0.06883599  1
  Al  Al32  1  0.43979453  0.77041094  0.82630816  1
  Al  Al33  1  0.54919799  0.87661536  0.57133446  1
  Gd  Gd34  1  0.55555552  0.53888888  0.58053825  1
  Gd  Gd35  1  0.88888888  0.87222221  0.57868045  1
  N  N36  1  0.22222223  0.20555556  0.38163841  1
  N  N37  1  0.11171438  0.09504771  0.13188958  1
  N  N38  1  0.89251639  0.20335462  0.88418493  1
  N  N39  1  0.76013883  0.12972232  0.63838265  1
  N  N40  1  0.55579795  0.20604191  0.37853047  1
  N  N41  1  0.44323794  0.09504771  0.13188958  1
  N  N42  1  0.22222222  0.20555555  0.87910774  1
  N  N43  1  0.11063194  0.09396529  0.62927848  1
  N  N44  1  0.88816013  0.20604193  0.37853047  1
  N  N45  1  0.77695059  0.09609885  0.12475370  1
  N  N46  1  0.55412900  0.20335460  0.88418493  1
  N  N47  1  0.44540278  0.09396526  0.62927849  1
  N  N48  1  0.22270858  0.53913128  0.37853047  1
  N  N49  1  0.11171438  0.42657126  0.13188958  1
  N  N50  1  0.89251638  0.53746232  0.88418493  1
  N  N51  1  0.81134897  0.41099217  0.64149627  1
  N  N52  1  0.55555555  0.53888888  0.35679257  1
  N  N53  1  0.44349995  0.42683328  0.12471799  1
  N  N54  1  0.22002127  0.53746233  0.88418493  1
  N  N55  1  0.11063193  0.42873611  0.62927849  1
  N  N56  1  0.88816012  0.53913129  0.37853047  1
  N  N57  1  0.77966679  0.42683329  0.12471800  1
  N  N58  1  0.55555555  0.53888889  0.87257653  1
  N  N59  1  0.42765883  0.41099216  0.64149629  1
  N  N60  1  0.22270859  0.87149346  0.37853047  1
  N  N61  1  0.11276553  0.76028392  0.12475370  1
  N  N62  1  0.88888889  0.87222222  0.87089181  1
  N  N63  1  0.76013883  0.74347217  0.63838266  1
  N  N64  1  0.55579796  0.87149345  0.37853047  1
  N  N65  1  0.44349995  0.76300013  0.12471799  1
  N  N66  1  0.22002128  0.87584973  0.88418493  1
  N  N67  1  0.14638900  0.74347216  0.63838266  1
  N  N68  1  0.88888889  0.87222222  0.35664814  1
  N  N69  1  0.77695060  0.76028392  0.12475370  1
  N  N70  1  0.55412898  0.87584972  0.88418494  1
  N  N71  1  0.42765883  0.79468232  0.64149628  1
