# generated using pymatgen
data_GdAl17N18
_symmetry_space_group_name_H-M   'P 1'
_cell_length_a   9.58663622
_cell_length_b   9.58663704
_cell_length_c   9.93318381
_cell_angle_alpha   89.99999821
_cell_angle_beta   89.99999992
_cell_angle_gamma   60.00000224
_symmetry_Int_Tables_number   1
_chemical_formula_structural   GdAl17N18
_chemical_formula_sum   'Gd2 Al34 N36'
_cell_volume   790.59059915
_cell_formula_units_Z   2
loop_
 _symmetry_equiv_pos_site_id
 _symmetry_equiv_pos_as_xyz
  1  'x, y, z'
loop_
 _atom_site_type_symbol
 _atom_site_label
 _atom_site_symmetry_multiplicity
 _atom_site_fract_x
 _atom_site_fract_y
 _atom_site_fract_z
 _atom_site_occupancy
  Al  Al0  1  0.11178575  0.09511909  0.32656332  1
  Al  Al1  1  0.22222221  0.20555555  0.07475803  1
  Al  Al2  1  0.77272516  0.10454972  0.83163846  1
  Al  Al3  1  0.89315957  0.20754231  0.57518482  1
  Al  Al4  1  0.44309512  0.09511908  0.32656329  1
  Al  Al5  1  0.55404251  0.20428468  0.07694535  1
  Al  Al6  1  0.11088003  0.09421337  0.82488268  1
  Al  Al7  1  0.22222222  0.20555558  0.57800398  1
  Al  Al8  1  0.77697046  0.09605905  0.31965043  1
  Al  Al9  1  0.89167281  0.20428469  0.07694535  1
  Al  Al10  1  0.44490657  0.09421338  0.82488272  1
  Al  Al11  1  0.54929811  0.20754233  0.57518483  1
  Al  Al12  1  0.11178574  0.42642847  0.32656330  1
  Al  Al13  1  0.22095135  0.53737583  0.07694533  1
  Al  Al14  1  0.78862207  0.42235563  0.83181535  1
  Al  Al15  1  0.89315961  0.53263140  0.57518483  1
  Al  Al16  1  0.44397235  0.42730569  0.31902672  1
  Al  Al17  1  0.55555555  0.53888889  0.07389988  1
  Al  Al18  1  0.11088004  0.42823991  0.82488272  1
  Al  Al19  1  0.22420896  0.53263145  0.57518483  1
  Al  Al20  1  0.77872190  0.42730569  0.31902670  1
  Al  Al21  1  0.89167280  0.53737586  0.07694535  1
  Al  Al22  1  0.43902231  0.42235564  0.83181532  1
  Al  Al23  1  0.11272573  0.76030378  0.31965043  1
  Al  Al24  1  0.22095135  0.87500615  0.07694534  1
  Al  Al25  1  0.77272514  0.75605846  0.83163844  1
  Al  Al26  1  0.44397234  0.76205525  0.31902669  1
  Al  Al27  1  0.55404253  0.87500614  0.07694536  1
  Al  Al28  1  0.12121642  0.75605846  0.83163845  1
  Al  Al29  1  0.22420895  0.87649293  0.57518482  1
  Al  Al30  1  0.77697045  0.76030378  0.31965046  1
  Al  Al31  1  0.88888890  0.87222222  0.07386153  1
  Al  Al32  1  0.43902229  0.77195542  0.83181536  1
  Al  Al33  1  0.54929806  0.87649294  0.57518483  1
  Gd  Gd34  1  0.55555553  0.53888896  0.59054169  1
  Gd  Gd35  1  0.88888895  0.87222220  0.58929150  1
  N  N36  1  0.22222222  0.20555556  0.38459916  1
  N  N37  1  0.11207746  0.09541078  0.13437752  1
  N  N38  1  0.89298963  0.20308841  0.88732417  1
  N  N39  1  0.75940599  0.13118800  0.64066717  1
  N  N40  1  0.55564946  0.20600994  0.37997944  1
  N  N41  1  0.44251175  0.09541078  0.13437750  1
  N  N42  1  0.22222222  0.20555556  0.88029690  1
  N  N43  1  0.11030331  0.09363667  0.63109847  1
  N  N44  1  0.88834055  0.20600997  0.37997944  1
  N  N45  1  0.77718008  0.09563982  0.12737919  1
  N  N46  1  0.55392198  0.20308841  0.88732416  1
  N  N47  1  0.44606004  0.09363666  0.63109850  1
  N  N48  1  0.22267660  0.53898280  0.37997944  1
  N  N49  1  0.11207746  0.42584506  0.13437750  1
  N  N50  1  0.89298962  0.53725531  0.88732417  1
  N  N51  1  0.81274806  0.41029264  0.64361700  1
  N  N52  1  0.55555553  0.53888889  0.36179794  1
  N  N53  1  0.44369145  0.42702476  0.12706916  1
  N  N54  1  0.21975508  0.53725529  0.88732416  1
  N  N55  1  0.11030333  0.42939335  0.63109850  1
  N  N56  1  0.88834056  0.53898279  0.37997945  1
  N  N57  1  0.77928377  0.42702477  0.12706916  1
  N  N58  1  0.55555556  0.53888891  0.87386461  1
  N  N59  1  0.42695938  0.41029261  0.64361696  1
  N  N60  1  0.22267662  0.87167391  0.37997944  1
  N  N61  1  0.11230651  0.76051339  0.12737918  1
  N  N62  1  0.88888890  0.87222222  0.87241796  1
  N  N63  1  0.75940598  0.74273931  0.64066715  1
  N  N64  1  0.55564944  0.87167392  0.37997944  1
  N  N65  1  0.44369146  0.76261710  0.12706915  1
  N  N66  1  0.21975506  0.87632299  0.88732417  1
  N  N67  1  0.14785472  0.74273929  0.64066718  1
  N  N68  1  0.88888887  0.87222221  0.36223750  1
  N  N69  1  0.77718009  0.76051341  0.12737921  1
  N  N70  1  0.55392198  0.87632298  0.88732417  1
  N  N71  1  0.42695933  0.79608144  0.64361702  1
