# generated using pymatgen
data_GdAl17N18
_symmetry_space_group_name_H-M   'P 1'
_cell_length_a   9.88281951
_cell_length_b   9.88281892
_cell_length_c   9.08973209
_cell_angle_alpha   89.99999013
_cell_angle_beta   89.99998250
_cell_angle_gamma   60.00001215
_symmetry_Int_Tables_number   1
_chemical_formula_structural   GdAl17N18
_chemical_formula_sum   'Gd2 Al34 N36'
_cell_volume   768.85327664
_cell_formula_units_Z   2
loop_
 _symmetry_equiv_pos_site_id
 _symmetry_equiv_pos_as_xyz
  1  'x, y, z'
loop_
 _atom_site_type_symbol
 _atom_site_label
 _atom_site_symmetry_multiplicity
 _atom_site_fract_x
 _atom_site_fract_y
 _atom_site_fract_z
 _atom_site_occupancy
  Al  Al0  1  0.11283511  0.09616832  0.33648432  1
  Al  Al1  1  0.22222211  0.20555545  0.08054569  1
  Al  Al2  1  0.77330957  0.10338097  0.84811753  1
  Al  Al3  1  0.89243530  0.20694470  0.58253907  1
  Al  Al4  1  0.44099633  0.09616850  0.33648385  1
  Al  Al5  1  0.55272072  0.20381739  0.08811116  1
  Al  Al6  1  0.11024840  0.09358179  0.83327907  1
  Al  Al7  1  0.22222222  0.20555567  0.59081817  1
  Al  Al8  1  0.77566674  0.09866631  0.32703783  1
  Al  Al9  1  0.89346200  0.20381729  0.08811132  1
  Al  Al10  1  0.44616977  0.09358181  0.83327973  1
  Al  Al11  1  0.55061986  0.20694473  0.58253924  1
  Al  Al12  1  0.11283515  0.42432984  0.33648386  1
  Al  Al13  1  0.22048411  0.53605399  0.08811086  1
  Al  Al14  1  0.78826793  0.42253267  0.84636125  1
  Al  Al15  1  0.89243562  0.53395305  0.58253935  1
  Al  Al16  1  0.44273362  0.42606714  0.32608398  1
  Al  Al17  1  0.55555559  0.53888878  0.09226419  1
  Al  Al18  1  0.11024848  0.42950304  0.83327979  1
  Al  Al19  1  0.22361129  0.53395331  0.58253932  1
  Al  Al20  1  0.78119918  0.42606699  0.32608414  1
  Al  Al21  1  0.89346180  0.53605418  0.08811142  1
  Al  Al22  1  0.43919942  0.42253257  0.84636096  1
  Al  Al23  1  0.11533302  0.75900006  0.32703727  1
  Al  Al24  1  0.22048384  0.87679545  0.08811091  1
  Al  Al25  1  0.77330963  0.75664291  0.84811738  1
  Al  Al26  1  0.44273360  0.76453245  0.32608340  1
  Al  Al27  1  0.55272091  0.87679524  0.08811131  1
  Al  Al28  1  0.12004805  0.75664267  0.84811725  1
  Al  Al29  1  0.22361140  0.87576864  0.58253902  1
  Al  Al30  1  0.77566671  0.75900005  0.32703858  1
  Al  Al31  1  0.88888884  0.87222213  0.09367578  1
  Al  Al32  1  0.43919927  0.77160158  0.84636146  1
  Al  Al33  1  0.55061956  0.87576896  0.58253923  1
  Gd  Gd34  1  0.55555531  0.53888931  0.60151938  1
  Gd  Gd35  1  0.88888936  0.87222214  0.60144146  1
  N  N36  1  0.22222221  0.20555565  0.37847260  1
  N  N37  1  0.11331352  0.09664680  0.12548699  1
  N  N38  1  0.89387787  0.20255749  0.87930274  1
  N  N39  1  0.76083589  0.12832807  0.62929313  1
  N  N40  1  0.55522750  0.20567705  0.36672489  1
  N  N41  1  0.44003955  0.09664690  0.12548648  1
  N  N42  1  0.22222216  0.20555545  0.86607718  1
  N  N43  1  0.10960506  0.09293841  0.61979851  1
  N  N44  1  0.88909525  0.20567698  0.36672481  1
  N  N45  1  0.77619157  0.09761674  0.11590210  1
  N  N46  1  0.55356476  0.20255750  0.87930271  1
  N  N47  1  0.44745637  0.09293854  0.61979908  1
  N  N48  1  0.22234360  0.53856107  0.36672505  1
  N  N49  1  0.11331358  0.42337290  0.12548643  1
  N  N50  1  0.89387764  0.53689823  0.87930270  1
  N  N51  1  0.81026272  0.41153527  0.63156154  1
  N  N52  1  0.55555546  0.53888899  0.34496871  1
  N  N53  1  0.44274244  0.42607575  0.11563126  1
  N  N54  1  0.21922434  0.53689787  0.87930267  1
  N  N55  1  0.10960518  0.43078975  0.61979918  1
  N  N56  1  0.88909552  0.53856069  0.36672485  1
  N  N57  1  0.78118176  0.42607572  0.11563125  1
  N  N58  1  0.55555556  0.53888888  0.87272852  1
  N  N59  1  0.42820210  0.41153509  0.63156166  1
  N  N60  1  0.22234378  0.87242841  0.36672492  1
  N  N61  1  0.11428353  0.75952483  0.11590186  1
  N  N62  1  0.88888900  0.87222214  0.87231176  1
  N  N63  1  0.76083593  0.74416943  0.62929232  1
  N  N64  1  0.55522716  0.87242879  0.36672480  1
  N  N65  1  0.44274239  0.76451511  0.11563076  1
  N  N66  1  0.21922403  0.87721144  0.87930278  1
  N  N67  1  0.14499525  0.74416905  0.62929382  1
  N  N68  1  0.88888897  0.87222220  0.34558119  1
  N  N69  1  0.77619159  0.75952490  0.11590263  1
  N  N70  1  0.55356502  0.87721115  0.87930278  1
  N  N71  1  0.42820186  0.79359654  0.63156231  1
