# generated using pymatgen
data_GdAl17N18
_symmetry_space_group_name_H-M   'P 1'
_cell_length_a   9.51729754
_cell_length_b   9.51729752
_cell_length_c   10.11280021
_cell_angle_alpha   89.99999974
_cell_angle_beta   89.99999965
_cell_angle_gamma   60.00000152
_symmetry_Int_Tables_number   1
_chemical_formula_structural   GdAl17N18
_chemical_formula_sum   'Gd2 Al34 N36'
_cell_volume   793.28521239
_cell_formula_units_Z   2
loop_
 _symmetry_equiv_pos_site_id
 _symmetry_equiv_pos_as_xyz
  1  'x, y, z'
loop_
 _atom_site_type_symbol
 _atom_site_label
 _atom_site_symmetry_multiplicity
 _atom_site_fract_x
 _atom_site_fract_y
 _atom_site_fract_z
 _atom_site_occupancy
  Al  Al0  1  0.11149621  0.09482954  0.29845878  1
  Al  Al1  1  0.22222223  0.20555556  0.04771786  1
  Al  Al2  1  0.77340556  0.10318889  0.80268762  1
  Al  Al3  1  0.89327844  0.20751868  0.54819735  1
  Al  Al4  1  0.44367424  0.09482954  0.29845878  1
  Al  Al5  1  0.55418717  0.20447187  0.04783402  1
  Al  Al6  1  0.11104753  0.09438086  0.79737845  1
  Al  Al7  1  0.22222222  0.20555556  0.54937577  1
  Al  Al8  1  0.77667981  0.09664037  0.29077846  1
  Al  Al9  1  0.89134097  0.20447188  0.04783402  1
  Al  Al10  1  0.44457160  0.09438086  0.79737845  1
  Al  Al11  1  0.54920285  0.20751868  0.54819735  1
  Al  Al12  1  0.11149620  0.42700758  0.29845878  1
  Al  Al13  1  0.22113854  0.53752050  0.04783402  1
  Al  Al14  1  0.78703949  0.42314692  0.80314447  1
  Al  Al15  1  0.89327845  0.53253618  0.54819735  1
  Al  Al16  1  0.44367244  0.42700577  0.29051331  1
  Al  Al17  1  0.55555556  0.53888890  0.04610682  1
  Al  Al18  1  0.11104752  0.42790494  0.79737846  1
  Al  Al19  1  0.22418535  0.53253618  0.54819735  1
  Al  Al20  1  0.77932177  0.42700578  0.29051331  1
  Al  Al21  1  0.89134097  0.53752051  0.04783402  1
  Al  Al22  1  0.43981358  0.42314691  0.80314447  1
  Al  Al23  1  0.11330704  0.76001315  0.29077846  1
  Al  Al24  1  0.22113855  0.87467431  0.04783402  1
  Al  Al25  1  0.77340555  0.75673888  0.80268762  1
  Al  Al26  1  0.44367244  0.76265511  0.29051331  1
  Al  Al27  1  0.55418718  0.87467431  0.04783402  1
  Al  Al28  1  0.11985556  0.75673889  0.80268762  1
  Al  Al29  1  0.22418535  0.87661177  0.54819735  1
  Al  Al30  1  0.77667982  0.76001315  0.29077846  1
  Al  Al31  1  0.88888890  0.87222224  0.04571075  1
  Al  Al32  1  0.43981359  0.77037282  0.80314447  1
  Al  Al33  1  0.54920285  0.87661178  0.54819735  1
  Gd  Gd34  1  0.55555555  0.53888889  0.55725570  1
  Gd  Gd35  1  0.88888889  0.87222222  0.55538696  1
  N  N36  1  0.22222222  0.20555556  0.35848775  1
  N  N37  1  0.11170895  0.09504228  0.10874621  1
  N  N38  1  0.89251211  0.20335706  0.86101827  1
  N  N39  1  0.76016426  0.12967145  0.61523925  1
  N  N40  1  0.55580219  0.20604295  0.35539995  1
  N  N41  1  0.44324877  0.09504228  0.10874621  1
  N  N42  1  0.22222222  0.20555556  0.85598249  1
  N  N43  1  0.11063801  0.09397134  0.60613954  1
  N  N44  1  0.88815485  0.20604297  0.35539995  1
  N  N45  1  0.77693768  0.09612465  0.10159009  1
  N  N46  1  0.55413084  0.20335706  0.86101827  1
  N  N47  1  0.44539064  0.09397134  0.60613954  1
  N  N48  1  0.22270962  0.53913552  0.35539995  1
  N  N49  1  0.11170895  0.42658211  0.10874621  1
  N  N50  1  0.89251210  0.53746417  0.86101827  1
  N  N51  1  0.81130277  0.41101527  0.61834912  1
  N  N52  1  0.55555555  0.53888888  0.33354457  1
  N  N53  1  0.44348834  0.42682167  0.10156020  1
  N  N54  1  0.22002373  0.53746417  0.86101827  1
  N  N55  1  0.11063800  0.42872397  0.60613954  1
  N  N56  1  0.88815485  0.53913553  0.35539995  1
  N  N57  1  0.77969000  0.42682168  0.10156020  1
  N  N58  1  0.55555556  0.53888889  0.84947721  1
  N  N59  1  0.42768195  0.41101528  0.61834913  1
  N  N60  1  0.22270963  0.87148819  0.35539995  1
  N  N61  1  0.11279132  0.76027102  0.10159009  1
  N  N62  1  0.88888890  0.87222223  0.84779782  1
  N  N63  1  0.76016427  0.74349761  0.61523925  1
  N  N64  1  0.55580219  0.87148818  0.35539994  1
  N  N65  1  0.44348834  0.76302333  0.10156020  1
  N  N66  1  0.22002373  0.87584544  0.86101828  1
  N  N67  1  0.14633812  0.74349759  0.61523925  1
  N  N68  1  0.88888889  0.87222222  0.33338772  1
  N  N69  1  0.77693769  0.76027102  0.10159009  1
  N  N70  1  0.55413083  0.87584544  0.86101827  1
  N  N71  1  0.42768193  0.79463611  0.61834912  1
