# generated using pymatgen
data_GdAl17N18
_symmetry_space_group_name_H-M   'P 1'
_cell_length_a   9.51733310
_cell_length_b   9.51733309
_cell_length_c   10.11270629
_cell_angle_alpha   90.00000010
_cell_angle_beta   90.00000018
_cell_angle_gamma   60.00000151
_symmetry_Int_Tables_number   1
_chemical_formula_structural   GdAl17N18
_chemical_formula_sum   'Gd2 Al34 N36'
_cell_volume   793.28377358
_cell_formula_units_Z   2
loop_
 _symmetry_equiv_pos_site_id
 _symmetry_equiv_pos_as_xyz
  1  'x, y, z'
loop_
 _atom_site_type_symbol
 _atom_site_label
 _atom_site_symmetry_multiplicity
 _atom_site_fract_x
 _atom_site_fract_y
 _atom_site_fract_z
 _atom_site_occupancy
  Al  Al0  1  0.11104753  0.09438087  0.40150960  1
  Al  Al1  1  0.22222223  0.20555556  0.15117154  1
  Al  Al2  1  0.77668087  0.09663824  0.90810694  1
  Al  Al3  1  0.89327834  0.20751906  0.65069098  1
  Al  Al4  1  0.44457159  0.09438086  0.40150959  1
  Al  Al5  1  0.55418733  0.20447159  0.15105230  1
  Al  Al6  1  0.11149635  0.09482968  0.90043110  1
  Al  Al7  1  0.22222222  0.20555555  0.64951432  1
  Al  Al8  1  0.77340406  0.10319189  0.39619544  1
  Al  Al9  1  0.89134108  0.20447161  0.15105230  1
  Al  Al10  1  0.44367396  0.09482967  0.90043110  1
  Al  Al11  1  0.54920256  0.20751906  0.65069098  1
  Al  Al12  1  0.11104753  0.42790492  0.40150959  1
  Al  Al13  1  0.22113826  0.53752067  0.15105230  1
  Al  Al14  1  0.77931966  0.42700683  0.90837264  1
  Al  Al15  1  0.89327835  0.53253590  0.65069098  1
  Al  Al16  1  0.43981210  0.42314543  0.39573883  1
  Al  Al17  1  0.55555556  0.53888890  0.15277938  1
  Al  Al18  1  0.11149634  0.42700729  0.90043110  1
  Al  Al19  1  0.22418573  0.53253590  0.65069098  1
  Al  Al20  1  0.78704244  0.42314544  0.39573883  1
  Al  Al21  1  0.89134108  0.53752068  0.15105230  1
  Al  Al22  1  0.44367349  0.42700682  0.90837264  1
  Al  Al23  1  0.11985855  0.75673739  0.39619544  1
  Al  Al24  1  0.22113827  0.87467441  0.15105230  1
  Al  Al25  1  0.77668088  0.76001421  0.90810694  1
  Al  Al26  1  0.43981211  0.77037578  0.39573883  1
  Al  Al27  1  0.55418735  0.87467441  0.15105230  1
  Al  Al28  1  0.11330491  0.76001421  0.90810694  1
  Al  Al29  1  0.22418573  0.87661167  0.65069098  1
  Al  Al30  1  0.77340405  0.75673739  0.39619544  1
  Al  Al31  1  0.88888890  0.87222224  0.15317616  1
  Al  Al32  1  0.44367350  0.76265299  0.90837264  1
  Al  Al33  1  0.54920257  0.87661168  0.65069098  1
  Gd  Gd34  1  0.55555555  0.53888888  0.64161851  1
  Gd  Gd35  1  0.88888889  0.87222222  0.64348650  1
  N  N36  1  0.22222222  0.20555555  0.34290703  1
  N  N37  1  0.11170931  0.09504265  0.09014350  1
  N  N38  1  0.88815524  0.20604292  0.84348948  1
  N  N39  1  0.76016205  0.12967586  0.58364622  1
  N  N40  1  0.55413031  0.20335649  0.33786788  1
  N  N41  1  0.44324803  0.09504265  0.09014350  1
  N  N42  1  0.22222222  0.20555555  0.84040289  1
  N  N43  1  0.11063776  0.09397109  0.59274937  1
  N  N44  1  0.89251319  0.20335650  0.33786789  1
  N  N45  1  0.77693856  0.09612289  0.09729711  1
  N  N46  1  0.55580183  0.20604291  0.84348948  1
  N  N47  1  0.44539113  0.09397109  0.59274937  1
  N  N48  1  0.22002316  0.53746364  0.33786788  1
  N  N49  1  0.11170932  0.42658136  0.09014350  1
  N  N50  1  0.88815524  0.53913517  0.84348948  1
  N  N51  1  0.81130687  0.41101322  0.58053610  1
  N  N52  1  0.55555556  0.53888889  0.34941137  1
  N  N53  1  0.44348905  0.42682238  0.09732734  1
  N  N54  1  0.22270958  0.53913516  0.84348948  1
  N  N55  1  0.11063775  0.42872446  0.59274937  1
  N  N56  1  0.89251319  0.53746364  0.33786788  1
  N  N57  1  0.77968858  0.42682239  0.09732734  1
  N  N58  1  0.55555555  0.53888888  0.86533403  1
  N  N59  1  0.42767989  0.41101322  0.58053610  1
  N  N60  1  0.22002317  0.87584653  0.33786789  1
  N  N61  1  0.11278956  0.76027189  0.09729711  1
  N  N62  1  0.88888889  0.87222222  0.86548985  1
  N  N63  1  0.76016207  0.74349540  0.58364621  1
  N  N64  1  0.55413030  0.87584653  0.33786788  1
  N  N65  1  0.44348905  0.76302191  0.09732734  1
  N  N66  1  0.22270959  0.87148857  0.84348948  1
  N  N67  1  0.14634252  0.74349539  0.58364622  1
  N  N68  1  0.88888890  0.87222223  0.35109137  1
  N  N69  1  0.77693857  0.76027190  0.09729711  1
  N  N70  1  0.55580184  0.87148857  0.84348948  1
  N  N71  1  0.42767989  0.79464020  0.58053610  1
