# generated using pymatgen
data_GdAl17N18
_symmetry_space_group_name_H-M   'P 1'
_cell_length_a   9.76583355
_cell_length_b   9.76583457
_cell_length_c   9.43370489
_cell_angle_alpha   89.99999453
_cell_angle_beta   89.99998648
_cell_angle_gamma   60.00000434
_symmetry_Int_Tables_number   1
_chemical_formula_structural   GdAl17N18
_chemical_formula_sum   'Gd2 Al34 N36'
_cell_volume   779.16891487
_cell_formula_units_Z   2
loop_
 _symmetry_equiv_pos_site_id
 _symmetry_equiv_pos_as_xyz
  1  'x, y, z'
loop_
 _atom_site_type_symbol
 _atom_site_label
 _atom_site_symmetry_multiplicity
 _atom_site_fract_x
 _atom_site_fract_y
 _atom_site_fract_z
 _atom_site_occupancy
  Al  Al0  1  0.11043407  0.09376731  0.38008113  1
  Al  Al1  1  0.22222225  0.20555559  0.13156558  1
  Al  Al2  1  0.77627358  0.09745293  0.88530405  1
  Al  Al3  1  0.89247234  0.20737860  0.63003085  1
  Al  Al4  1  0.44579857  0.09376739  0.38008137  1
  Al  Al5  1  0.55313112  0.20385877  0.12582737  1
  Al  Al6  1  0.11249271  0.09582606  0.87666200  1
  Al  Al7  1  0.22222220  0.20555553  0.62360674  1
  Al  Al8  1  0.77288170  0.10423654  0.36838472  1
  Al  Al9  1  0.89301002  0.20385881  0.12582742  1
  Al  Al10  1  0.44168132  0.09582599  0.87666177  1
  Al  Al11  1  0.55014909  0.20737875  0.63003088  1
  Al  Al12  1  0.11043408  0.42913193  0.38008139  1
  Al  Al13  1  0.22052538  0.53646453  0.12582728  1
  Al  Al14  1  0.77995063  0.42669138  0.88623462  1
  Al  Al15  1  0.89247222  0.53348247  0.63003088  1
  Al  Al16  1  0.43884281  0.42217627  0.36917205  1
  Al  Al17  1  0.55555556  0.53888895  0.12457210  1
  Al  Al18  1  0.11249268  0.42501459  0.87666177  1
  Al  Al19  1  0.22404526  0.53348254  0.63003097  1
  Al  Al20  1  0.78898099  0.42217616  0.36917214  1
  Al  Al21  1  0.89301015  0.53646440  0.12582745  1
  Al  Al22  1  0.44335808  0.42669135  0.88623464  1
  Al  Al23  1  0.12090307  0.75621511  0.36838476  1
  Al  Al24  1  0.22052551  0.87634331  0.12582730  1
  Al  Al25  1  0.77627357  0.75960686  0.88530429  1
  Al  Al26  1  0.43884282  0.77231420  0.36917229  1
  Al  Al27  1  0.55313102  0.87634345  0.12582744  1
  Al  Al28  1  0.11411958  0.75960690  0.88530391  1
  Al  Al29  1  0.22404519  0.87580564  0.63003092  1
  Al  Al30  1  0.77288169  0.75621502  0.36838455  1
  Al  Al31  1  0.88888890  0.87222226  0.12349910  1
  Al  Al32  1  0.44335809  0.76328393  0.88623444  1
  Al  Al33  1  0.55014914  0.87580547  0.63003085  1
  Gd  Gd34  1  0.55555566  0.53888875  0.61050422  1
  Gd  Gd35  1  0.88888869  0.87222225  0.61104419  1
  N  N36  1  0.22222226  0.20555560  0.33611058  1
  N  N37  1  0.11291758  0.09625090  0.07831623  1
  N  N38  1  0.88861669  0.20594651  0.83539748  1
  N  N39  1  0.75998182  0.13003638  0.57299654  1
  N  N40  1  0.55357309  0.20256631  0.32503053  1
  N  N41  1  0.44083153  0.09625089  0.07831601  1
  N  N42  1  0.22222224  0.20555552  0.82647634  1
  N  N43  1  0.10974903  0.09308228  0.58352866  1
  N  N44  1  0.89386055  0.20256629  0.32503053  1
  N  N45  1  0.77654902  0.09690194  0.08709603  1
  N  N46  1  0.55543693  0.20594650  0.83539747  1
  N  N47  1  0.44716878  0.09308226  0.58352892  1
  N  N48  1  0.21923289  0.53690654  0.32503046  1
  N  N49  1  0.11291759  0.42416482  0.07831600  1
  N  N50  1  0.88861658  0.53877031  0.83539749  1
  N  N51  1  0.81181865  0.41075733  0.57059575  1
  N  N52  1  0.55555559  0.53888892  0.33583464  1
  N  N53  1  0.44307785  0.42641116  0.08757715  1
  N  N54  1  0.22261321  0.53877019  0.83539754  1
  N  N55  1  0.10974900  0.43050205  0.58352894  1
  N  N56  1  0.89386067  0.53690637  0.32503055  1
  N  N57  1  0.78051102  0.42641116  0.08757713  1
  N  N58  1  0.55555562  0.53888886  0.85549798  1
  N  N59  1  0.42742408  0.41075737  0.57059571  1
  N  N60  1  0.21923299  0.87719380  0.32503048  1
  N  N61  1  0.11356856  0.75988238  0.08709592  1
  N  N62  1  0.88888883  0.87222224  0.85476516  1
  N  N63  1  0.75998178  0.74331507  0.57299629  1
  N  N64  1  0.55357296  0.87719396  0.32503058  1
  N  N65  1  0.44307786  0.76384433  0.08757695  1
  N  N66  1  0.22261314  0.87195007  0.83539751  1
  N  N67  1  0.14670278  0.74331527  0.57299668  1
  N  N68  1  0.88888882  0.87222229  0.33655245  1
  N  N69  1  0.77654902  0.75988236  0.08709626  1
  N  N70  1  0.55543703  0.87194993  0.83539744  1
  N  N71  1  0.42742414  0.79515175  0.57059594  1
