# generated using pymatgen
data_GdAl17N18
_symmetry_space_group_name_H-M   'P 1'
_cell_length_a   9.94823553
_cell_length_b   9.94823527
_cell_length_c   8.89457022
_cell_angle_alpha   89.99998689
_cell_angle_beta   89.99997861
_cell_angle_gamma   60.00000631
_symmetry_Int_Tables_number   1
_chemical_formula_structural   GdAl17N18
_chemical_formula_sum   'Gd2 Al34 N36'
_cell_volume   762.33829083
_cell_formula_units_Z   2
loop_
 _symmetry_equiv_pos_site_id
 _symmetry_equiv_pos_as_xyz
  1  'x, y, z'
loop_
 _atom_site_type_symbol
 _atom_site_label
 _atom_site_symmetry_multiplicity
 _atom_site_fract_x
 _atom_site_fract_y
 _atom_site_fract_z
 _atom_site_occupancy
  Al  Al0  1  0.11029938  0.09363272  0.37068878  1
  Al  Al1  1  0.22222231  0.20555568  0.12442573  1
  Al  Al2  1  0.77536195  0.09927630  0.87768285  1
  Al  Al3  1  0.89275446  0.20653395  0.62231438  1
  Al  Al4  1  0.44606783  0.09363277  0.37068984  1
  Al  Al5  1  0.55272644  0.20392805  0.11635076  1
  Al  Al6  1  0.11287583  0.09620934  0.86895837  1
  Al  Al7  1  0.22222217  0.20555545  0.61401959  1
  Al  Al8  1  0.77358904  0.10282168  0.35509493  1
  Al  Al9  1  0.89334532  0.20392814  0.11635111  1
  Al  Al10  1  0.44091507  0.09620911  0.86895792  1
  Al  Al11  1  0.55071188  0.20653394  0.62231455  1
  Al  Al12  1  0.11029935  0.42940132  0.37068996  1
  Al  Al13  1  0.22059466  0.53605983  0.11635005  1
  Al  Al14  1  0.78194499  0.42569424  0.87879707  1
  Al  Al15  1  0.89275412  0.53404526  0.62231511  1
  Al  Al16  1  0.43953940  0.42287300  0.35741121  1
  Al  Al17  1  0.55555549  0.53888905  0.11209457  1
  Al  Al18  1  0.11287582  0.42424815  0.86895793  1
  Al  Al19  1  0.22320051  0.53404509  0.62231447  1
  Al  Al20  1  0.78758810  0.42287263  0.35741194  1
  Al  Al21  1  0.89334566  0.53605964  0.11635151  1
  Al  Al22  1  0.44236094  0.42569398  0.87879613  1
  Al  Al23  1  0.11948757  0.75692275  0.35509363  1
  Al  Al24  1  0.22059495  0.87667854  0.11635000  1
  Al  Al25  1  0.77536199  0.75869526  0.87768430  1
  Al  Al26  1  0.43953951  0.77092075  0.35741157  1
  Al  Al27  1  0.55272623  0.87667887  0.11635111  1
  Al  Al28  1  0.11594306  0.75869520  0.87768124  1
  Al  Al29  1  0.22320032  0.87608797  0.62231378  1
  Al  Al30  1  0.77358895  0.75692225  0.35509545  1
  Al  Al31  1  0.88888889  0.87222229  0.11056152  1
  Al  Al32  1  0.44236095  0.76527855  0.87879532  1
  Al  Al33  1  0.55071217  0.87608741  0.62231459  1
  Gd  Gd34  1  0.55555601  0.53888847  0.60545511  1
  Gd  Gd35  1  0.88888840  0.87222230  0.60524041  1
  N  N36  1  0.22222231  0.20555572  0.34624879  1
  N  N37  1  0.11338802  0.09672153  0.08724174  1
  N  N38  1  0.88966144  0.20537907  0.84635099  1
  N  N39  1  0.76140892  0.12718231  0.58491495  1
  N  N40  1  0.55377804  0.20276124  0.33271662  1
  N  N41  1  0.43989051  0.09672139  0.08724089  1
  N  N42  1  0.22222227  0.20555541  0.83361111  1
  N  N43  1  0.10968928  0.09302274  0.59206650  1
  N  N44  1  0.89346054  0.20276108  0.33271653  1
  N  N45  1  0.77607933  0.09784130  0.09589126  1
  N  N46  1  0.55495991  0.20537874  0.84635112  1
  N  N47  1  0.44728825  0.09302251  0.59206719  1
  N  N48  1  0.21942766  0.53711176  0.33271669  1
  N  N49  1  0.11338800  0.42322378  0.08724084  1
  N  N50  1  0.88966109  0.53829341  0.84635081  1
  N  N51  1  0.80915700  0.41208824  0.58241649  1
  N  N52  1  0.55555563  0.53888897  0.33559603  1
  N  N53  1  0.44264121  0.42597444  0.09614406  1
  N  N54  1  0.22204572  0.53829267  0.84635163  1
  N  N55  1  0.10968917  0.43062146  0.59206735  1
  N  N56  1  0.89346098  0.53711127  0.33271634  1
  N  N57  1  0.78138443  0.42597451  0.09614412  1
  N  N58  1  0.55555573  0.53888876  0.86742643  1
  N  N59  1  0.42875512  0.41208835  0.58241761  1
  N  N60  1  0.21942793  0.87679354  0.33271691  1
  N  N61  1  0.11450779  0.75941276  0.09589102  1
  N  N62  1  0.88888867  0.87222225  0.86677599  1
  N  N63  1  0.76140884  0.74474192  0.58491314  1
  N  N64  1  0.55377770  0.87679412  0.33271665  1
  N  N65  1  0.44264125  0.76471771  0.09614352  1
  N  N66  1  0.22204547  0.87299526  0.84635158  1
  N  N67  1  0.14384818  0.74474253  0.58491718  1
  N  N68  1  0.88888870  0.87222236  0.33580981  1
  N  N69  1  0.77607932  0.75941266  0.09589185  1
  N  N70  1  0.55496042  0.87299465  0.84635088  1
  N  N71  1  0.42875534  0.79248959  0.58241849  1
