# generated using pymatgen
data_GdAl17N18
_symmetry_space_group_name_H-M   'P 1'
_cell_length_a   9.51740223
_cell_length_b   9.51740222
_cell_length_c   10.11254373
_cell_angle_alpha   90.00000006
_cell_angle_beta   90.00000006
_cell_angle_gamma   60.00000149
_symmetry_Int_Tables_number   1
_chemical_formula_structural   GdAl17N18
_chemical_formula_sum   'Gd2 Al34 N36'
_cell_volume   793.28254550
_cell_formula_units_Z   2
loop_
 _symmetry_equiv_pos_site_id
 _symmetry_equiv_pos_as_xyz
  1  'x, y, z'
loop_
 _atom_site_type_symbol
 _atom_site_label
 _atom_site_symmetry_multiplicity
 _atom_site_fract_x
 _atom_site_fract_y
 _atom_site_fract_z
 _atom_site_occupancy
  Al  Al0  1  0.11104643  0.09437977  0.39744180  1
  Al  Al1  1  0.22222223  0.20555556  0.14710641  1
  Al  Al2  1  0.77668361  0.09663278  0.90403213  1
  Al  Al3  1  0.89327963  0.20751909  0.64662837  1
  Al  Al4  1  0.44457379  0.09437976  0.39744179  1
  Al  Al5  1  0.55418850  0.20447161  0.14697781  1
  Al  Al6  1  0.11149753  0.09483086  0.89636248  1
  Al  Al7  1  0.22222222  0.20555555  0.64544219  1
  Al  Al8  1  0.77339992  0.10320016  0.39213193  1
  Al  Al9  1  0.89133989  0.20447163  0.14697781  1
  Al  Al10  1  0.44367159  0.09483086  0.89636248  1
  Al  Al11  1  0.54920124  0.20751909  0.64662836  1
  Al  Al12  1  0.11104643  0.42790712  0.39744179  1
  Al  Al13  1  0.22113828  0.53752183  0.14697781  1
  Al  Al14  1  0.77931442  0.42700945  0.90429929  1
  Al  Al15  1  0.89327964  0.53253458  0.64662837  1
  Al  Al16  1  0.43980824  0.42314157  0.39167415  1
  Al  Al17  1  0.55555556  0.53888890  0.14872349  1
  Al  Al18  1  0.11149752  0.42700492  0.89636248  1
  Al  Al19  1  0.22418576  0.53253458  0.64662836  1
  Al  Al20  1  0.78705017  0.42314158  0.39167415  1
  Al  Al21  1  0.89133989  0.53752185  0.14697781  1
  Al  Al22  1  0.44367611  0.42700944  0.90429929  1
  Al  Al23  1  0.11986683  0.75673325  0.39213193  1
  Al  Al24  1  0.22113829  0.87467322  0.14697781  1
  Al  Al25  1  0.77668361  0.76001694  0.90403212  1
  Al  Al26  1  0.43980825  0.77038350  0.39167415  1
  Al  Al27  1  0.55418851  0.87467323  0.14697781  1
  Al  Al28  1  0.11329945  0.76001694  0.90403213  1
  Al  Al29  1  0.22418576  0.87661297  0.64662836  1
  Al  Al30  1  0.77339991  0.75673325  0.39213193  1
  Al  Al31  1  0.88888890  0.87222224  0.14912047  1
  Al  Al32  1  0.44367612  0.76264776  0.90429929  1
  Al  Al33  1  0.54920125  0.87661297  0.64662837  1
  Gd  Gd34  1  0.55555555  0.53888888  0.63752995  1
  Gd  Gd35  1  0.88888889  0.87222222  0.63939597  1
  N  N36  1  0.22222222  0.20555556  0.33884549  1
  N  N37  1  0.11171037  0.09504370  0.08607717  1
  N  N38  1  0.88815633  0.20604268  0.83942692  1
  N  N39  1  0.76015704  0.12968587  0.57958455  1
  N  N40  1  0.55413050  0.20335644  0.33379851  1
  N  N41  1  0.44324593  0.09504370  0.08607717  1
  N  N42  1  0.22222222  0.20555555  0.83633372  1
  N  N43  1  0.11063636  0.09396970  0.58868476  1
  N  N44  1  0.89251305  0.20335644  0.33379851  1
  N  N45  1  0.77694153  0.09611694  0.09322760  1
  N  N46  1  0.55580099  0.20604267  0.83942692  1
  N  N47  1  0.44539392  0.09396969  0.58868476  1
  N  N48  1  0.22002310  0.53746384  0.33379851  1
  N  N49  1  0.11171037  0.42657926  0.08607717  1
  N  N50  1  0.88815633  0.53913433  0.83942692  1
  N  N51  1  0.81131573  0.41100879  0.57647295  1
  N  N52  1  0.55555556  0.53888889  0.34535896  1
  N  N53  1  0.44349175  0.42682508  0.09325893  1
  N  N54  1  0.22270934  0.53913432  0.83942692  1
  N  N55  1  0.11063636  0.42872725  0.58868476  1
  N  N56  1  0.89251305  0.53746383  0.33379851  1
  N  N57  1  0.77968318  0.42682509  0.09325893  1
  N  N58  1  0.55555555  0.53888888  0.86124893  1
  N  N59  1  0.42767546  0.41100880  0.57647295  1
  N  N60  1  0.22002311  0.87584639  0.33379851  1
  N  N61  1  0.11278361  0.76027487  0.09322760  1
  N  N62  1  0.88888889  0.87222222  0.86140245  1
  N  N63  1  0.76015706  0.74349040  0.57958454  1
  N  N64  1  0.55413050  0.87584638  0.33379851  1
  N  N65  1  0.44349176  0.76301651  0.09325893  1
  N  N66  1  0.22270935  0.87148966  0.83942692  1
  N  N67  1  0.14635254  0.74349038  0.57958455  1
  N  N68  1  0.88888890  0.87222223  0.34704084  1
  N  N69  1  0.77694155  0.76027488  0.09322759  1
  N  N70  1  0.55580100  0.87148966  0.83942692  1
  N  N71  1  0.42767546  0.79464906  0.57647295  1
