# generated using pymatgen
data_GdAl17N18
_symmetry_space_group_name_H-M   'P 1'
_cell_length_a   9.56043339
_cell_length_b   9.56043360
_cell_length_c   10.00208080
_cell_angle_alpha   89.99999834
_cell_angle_beta   89.99999719
_cell_angle_gamma   60.00000188
_symmetry_Int_Tables_number   1
_chemical_formula_structural   GdAl17N18
_chemical_formula_sum   'Gd2 Al34 N36'
_cell_volume   791.72829820
_cell_formula_units_Z   2
loop_
 _symmetry_equiv_pos_site_id
 _symmetry_equiv_pos_as_xyz
  1  'x, y, z'
loop_
 _atom_site_type_symbol
 _atom_site_label
 _atom_site_symmetry_multiplicity
 _atom_site_fract_x
 _atom_site_fract_y
 _atom_site_fract_z
 _atom_site_occupancy
  Al  Al0  1  0.11093184  0.09426517  0.38386831  1
  Al  Al1  1  0.22222223  0.20555556  0.13386569  1
  Al  Al2  1  0.77695096  0.09609808  0.88939375  1
  Al  Al3  1  0.89324560  0.20754156  0.63348284  1
  Al  Al4  1  0.44480298  0.09426517  0.38386831  1
  Al  Al5  1  0.55414051  0.20435770  0.13227095  1
  Al  Al6  1  0.11169036  0.09502369  0.88246348  1
  Al  Al7  1  0.22222223  0.20555555  0.63117912  1
  Al  Al8  1  0.77285775  0.10428448  0.37770653  1
  Al  Al9  1  0.89150179  0.20435771  0.13227095  1
  Al  Al10  1  0.44328594  0.09502368  0.88246348  1
  Al  Al11  1  0.54921282  0.20754157  0.63348284  1
  Al  Al12  1  0.11093183  0.42813631  0.38386831  1
  Al  Al13  1  0.22102436  0.53747385  0.13227095  1
  Al  Al14  1  0.77877459  0.42727937  0.88993117  1
  Al  Al15  1  0.89324560  0.53254615  0.63348284  1
  Al  Al16  1  0.43920673  0.42254007  0.37741200  1
  Al  Al17  1  0.55555557  0.53888890  0.13527350  1
  Al  Al18  1  0.11169035  0.42661927  0.88246348  1
  Al  Al19  1  0.22420823  0.53254616  0.63348284  1
  Al  Al20  1  0.78825319  0.42254007  0.37741201  1
  Al  Al21  1  0.89150179  0.53747386  0.13227096  1
  Al  Al22  1  0.44394603  0.42727936  0.88993117  1
  Al  Al23  1  0.12095112  0.75619110  0.37770653  1
  Al  Al24  1  0.22102438  0.87483512  0.13227095  1
  Al  Al25  1  0.77695096  0.76028430  0.88939376  1
  Al  Al26  1  0.43920674  0.77158651  0.37741202  1
  Al  Al27  1  0.55414052  0.87483512  0.13227096  1
  Al  Al28  1  0.11276474  0.76028430  0.88939375  1
  Al  Al29  1  0.22420824  0.87657891  0.63348284  1
  Al  Al30  1  0.77285775  0.75619109  0.37770653  1
  Al  Al31  1  0.88888890  0.87222224  0.13544964  1
  Al  Al32  1  0.44394604  0.76210791  0.88993117  1
  Al  Al33  1  0.54921282  0.87657892  0.63348284  1
  Gd  Gd34  1  0.55555557  0.53888886  0.61968706  1
  Gd  Gd35  1  0.88888887  0.87222222  0.62110617  1
  N  N36  1  0.22222222  0.20555556  0.32722672  1
  N  N37  1  0.11195191  0.09528523  0.07362224  1
  N  N38  1  0.88830093  0.20601557  0.82764986  1
  N  N39  1  0.75951914  0.13096170  0.56724684  1
  N  N40  1  0.55399633  0.20318642  0.32080083  1
  N  N41  1  0.44276285  0.09528524  0.07362223  1
  N  N42  1  0.22222222  0.20555556  0.82357414  1
  N  N43  1  0.11040576  0.09373906  0.57663123  1
  N  N44  1  0.89281724  0.20318643  0.32080084  1
  N  N45  1  0.77717882  0.09564238  0.08052329  1
  N  N46  1  0.55568351  0.20601556  0.82764986  1
  N  N47  1  0.44585518  0.09373906  0.57663123  1
  N  N48  1  0.21985307  0.53732969  0.32080084  1
  N  N49  1  0.11195191  0.42609618  0.07362223  1
  N  N50  1  0.88830092  0.53901686  0.82764986  1
  N  N51  1  0.81251416  0.41040958  0.56420557  1
  N  N52  1  0.55555557  0.53888889  0.33400959  1
  N  N53  1  0.44369785  0.42703119  0.08076491  1
  N  N54  1  0.22268222  0.53901686  0.82764986  1
  N  N55  1  0.11040574  0.42918851  0.57663124  1
  N  N56  1  0.89281724  0.53732967  0.32080084  1
  N  N57  1  0.77927097  0.42703119  0.08076491  1
  N  N58  1  0.55555556  0.53888888  0.84646803  1
  N  N59  1  0.42707624  0.41040962  0.56420556  1
  N  N60  1  0.21985309  0.87615056  0.32080084  1
  N  N61  1  0.11230904  0.76051215  0.08052329  1
  N  N62  1  0.88888889  0.87222223  0.84617598  1
  N  N63  1  0.75951915  0.74285248  0.56724683  1
  N  N64  1  0.55399633  0.87615057  0.32080084  1
  N  N65  1  0.44369786  0.76260429  0.08076490  1
  N  N66  1  0.22268224  0.87163425  0.82764986  1
  N  N67  1  0.14762833  0.74285249  0.56724685  1
  N  N68  1  0.88888889  0.87222224  0.33557796  1
  N  N69  1  0.77717883  0.76051216  0.08052330  1
  N  N70  1  0.55568352  0.87163425  0.82764986  1
  N  N71  1  0.42707625  0.79584744  0.56420558  1
