# generated using pymatgen
data_GdAl17N18
_symmetry_space_group_name_H-M   'P 1'
_cell_length_a   9.74144600
_cell_length_b   9.74144661
_cell_length_c   9.50406562
_cell_angle_alpha   89.99999515
_cell_angle_beta   89.99998822
_cell_angle_gamma   60.00000509
_symmetry_Int_Tables_number   1
_chemical_formula_structural   GdAl17N18
_chemical_formula_sum   'Gd2 Al34 N36'
_cell_volume   781.06461319
_cell_formula_units_Z   2
loop_
 _symmetry_equiv_pos_site_id
 _symmetry_equiv_pos_as_xyz
  1  'x, y, z'
loop_
 _atom_site_type_symbol
 _atom_site_label
 _atom_site_symmetry_multiplicity
 _atom_site_fract_x
 _atom_site_fract_y
 _atom_site_fract_z
 _atom_site_occupancy
  Al  Al0  1  0.11049932  0.09383258  0.38077363  1
  Al  Al1  1  0.22222225  0.20555559  0.13201344  1
  Al  Al2  1  0.77640608  0.09718791  0.88587370  1
  Al  Al3  1  0.89254065  0.20742779  0.63064860  1
  Al  Al4  1  0.44566807  0.09383263  0.38077383  1
  Al  Al5  1  0.55324990  0.20389824  0.12675580  1
  Al  Al6  1  0.11239459  0.09572793  0.87751111  1
  Al  Al7  1  0.22222222  0.20555553  0.62474178  1
  Al  Al8  1  0.77280929  0.10438137  0.36980401  1
  Al  Al9  1  0.89285179  0.20389828  0.12675583  1
  Al  Al10  1  0.44187757  0.09572787  0.87751091  1
  Al  Al11  1  0.55003159  0.20742787  0.63064863  1
  Al  Al12  1  0.11049932  0.42900143  0.38077383  1
  Al  Al13  1  0.22056486  0.53658329  0.12675573  1
  Al  Al14  1  0.77970363  0.42681487  0.88677930  1
  Al  Al15  1  0.89254054  0.53336496  0.63064862  1
  Al  Al16  1  0.43880495  0.42213838  0.37042846  1
  Al  Al17  1  0.55555557  0.53888893  0.12629217  1
  Al  Al18  1  0.11239456  0.42521085  0.87751093  1
  Al  Al19  1  0.22409449  0.53336498  0.63064868  1
  Al  Al20  1  0.78905674  0.42213829  0.37042855  1
  Al  Al21  1  0.89285189  0.53658319  0.12675586  1
  Al  Al22  1  0.44348157  0.42681485  0.88677933  1
  Al  Al23  1  0.12104791  0.75614269  0.36980403  1
  Al  Al24  1  0.22056497  0.87618508  0.12675575  1
  Al  Al25  1  0.77640606  0.75973938  0.88587388  1
  Al  Al26  1  0.43880496  0.77238996  0.37042867  1
  Al  Al27  1  0.55324981  0.87618520  0.12675586  1
  Al  Al28  1  0.11385454  0.75973942  0.88587361  1
  Al  Al29  1  0.22409444  0.87587394  0.63064865  1
  Al  Al30  1  0.77280927  0.75614263  0.36980386  1
  Al  Al31  1  0.88888890  0.87222226  0.12536662  1
  Al  Al32  1  0.44348158  0.76303693  0.88677916  1
  Al  Al33  1  0.55003163  0.87587384  0.63064861  1
  Gd  Gd34  1  0.55555567  0.53888875  0.61133903  1
  Gd  Gd35  1  0.88888865  0.87222228  0.61197027  1
  N  N36  1  0.22222225  0.20555559  0.33487783  1
  N  N37  1  0.11280855  0.09614187  0.07759589  1
  N  N38  1  0.88855826  0.20597065  0.83429069  1
  N  N39  1  0.75983766  0.13032473  0.57207753  1
  N  N40  1  0.55360274  0.20261143  0.32436828  1
  N  N41  1  0.44104958  0.09614187  0.07759571  1
  N  N42  1  0.22222223  0.20555553  0.82601493  1
  N  N43  1  0.10981117  0.09314442  0.58257599  1
  N  N44  1  0.89378581  0.20261140  0.32436829  1
  N  N45  1  0.77664771  0.09670456  0.08610127  1
  N  N46  1  0.55547120  0.20597067  0.83429069  1
  N  N47  1  0.44704445  0.09314442  0.58257620  1
  N  N48  1  0.21927802  0.53693618  0.32436824  1
  N  N49  1  0.11280855  0.42438289  0.07759571  1
  N  N50  1  0.88855818  0.53880457  0.83429069  1
  N  N51  1  0.81207243  0.41063044  0.56962222  1
  N  N52  1  0.55555560  0.53888891  0.33580042  1
  N  N53  1  0.44317086  0.42650421  0.08658869  1
  N  N54  1  0.22263735  0.53880449  0.83429073  1
  N  N55  1  0.10981113  0.43037777  0.58257621  1
  N  N56  1  0.89378591  0.53693602  0.32436831  1
  N  N57  1  0.78032496  0.42650420  0.08658866  1
  N  N58  1  0.55555561  0.53888886  0.85387281  1
  N  N59  1  0.42729710  0.41063056  0.56962217  1
  N  N60  1  0.21927811  0.87711905  0.32436826  1
  N  N61  1  0.11337118  0.75998107  0.08610118  1
  N  N62  1  0.88888886  0.87222223  0.85313243  1
  N  N63  1  0.75983762  0.74317090  0.57207733  1
  N  N64  1  0.55360263  0.87711918  0.32436832  1
  N  N65  1  0.44317087  0.76365826  0.08658852  1
  N  N66  1  0.22263730  0.87189161  0.83429071  1
  N  N67  1  0.14699120  0.74317107  0.57207763  1
  N  N68  1  0.88888885  0.87222227  0.33659638  1
  N  N69  1  0.77664771  0.75998106  0.08610145  1
  N  N70  1  0.55547128  0.87189149  0.83429066  1
  N  N71  1  0.42729715  0.79540554  0.56962237  1
