# generated using pymatgen
data_GdAl17N18
_symmetry_space_group_name_H-M   'P 1'
_cell_length_a   10.05462421
_cell_length_b   10.05462414
_cell_length_c   8.57794535
_cell_angle_alpha   89.99997641
_cell_angle_beta   89.99996495
_cell_angle_gamma   60.00000829
_symmetry_Int_Tables_number   1
_chemical_formula_structural   GdAl17N18
_chemical_formula_sum   'Gd2 Al34 N36'
_cell_volume   751.00983987
_cell_formula_units_Z   2
loop_
 _symmetry_equiv_pos_site_id
 _symmetry_equiv_pos_as_xyz
  1  'x, y, z'
loop_
 _atom_site_type_symbol
 _atom_site_label
 _atom_site_symmetry_multiplicity
 _atom_site_fract_x
 _atom_site_fract_y
 _atom_site_fract_z
 _atom_site_occupancy
  Al  Al0  1  0.11134455  0.09467902  0.35527965  1
  Al  Al1  1  0.22222224  0.20555563  0.10841741  1
  Al  Al2  1  0.77453885  0.10092247  0.86663882  1
  Al  Al3  1  0.89373173  0.20559032  0.60749293  1
  Al  Al4  1  0.44397649  0.09467830  0.35528389  1
  Al  Al5  1  0.55318028  0.20440536  0.10596506  1
  Al  Al6  1  0.11191758  0.09525004  0.85883379  1
  Al  Al7  1  0.22222218  0.20555551  0.60600395  1
  Al  Al8  1  0.77425676  0.10148611  0.34459132  1
  Al  Al9  1  0.89241422  0.20440541  0.10596687  1
  Al  Al10  1  0.44283228  0.09525063  0.85883731  1
  Al  Al11  1  0.55067810  0.20559010  0.60749229  1
  Al  Al12  1  0.11134415  0.42731032  0.35528429  1
  Al  Al13  1  0.22107201  0.53651359  0.10596205  1
  Al  Al14  1  0.78436202  0.42448544  0.86625654  1
  Al  Al15  1  0.89373168  0.53401142  0.60750046  1
  Al  Al16  1  0.44068784  0.42402116  0.34626221  1
  Al  Al17  1  0.55555551  0.53888897  0.10513110  1
  Al  Al18  1  0.11191800  0.42616509  0.85883757  1
  Al  Al19  1  0.22225679  0.53401126  0.60748762  1
  Al  Al20  1  0.78529303  0.42402044  0.34626930  1
  Al  Al21  1  0.89241442  0.53651364  0.10596995  1
  Al  Al22  1  0.44115153  0.42448481  0.86624900  1
  Al  Al23  1  0.11815082  0.75759084  0.34458419  1
  Al  Al24  1  0.22107214  0.87574753  0.10596001  1
  Al  Al25  1  0.77453924  0.75787293  0.86664349  1
  Al  Al26  1  0.44068845  0.76862368  0.34626033  1
  Al  Al27  1  0.55318030  0.87574769  0.10596610  1
  Al  Al28  1  0.11759073  0.75787156  0.86663169  1
  Al  Al29  1  0.22225667  0.87706530  0.60748174  1
  Al  Al30  1  0.77425651  0.75758938  0.34459578  1
  Al  Al31  1  0.88888885  0.87222224  0.10469390  1
  Al  Al32  1  0.44115099  0.76769765  0.86624668  1
  Al  Al33  1  0.55067834  0.87706509  0.60749393  1
  Gd  Gd34  1  0.55555591  0.53888868  0.60421233  1
  Gd  Gd35  1  0.88888870  0.87222230  0.60405124  1
  N  N36  1  0.22222219  0.20555588  0.35496057  1
  N  N37  1  0.11290404  0.09623750  0.10151303  1
  N  N38  1  0.89130313  0.20423677  0.85836658  1
  N  N39  1  0.76250466  0.12499073  0.60173719  1
  N  N40  1  0.55443598  0.20382056  0.34545221  1
  N  N41  1  0.44085840  0.09623744  0.10150978  1
  N  N42  1  0.22222229  0.20555526  0.84834607  1
  N  N43  1  0.11036090  0.09369458  0.60199393  1
  N  N44  1  0.89174334  0.20381958  0.34545090  1
  N  N45  1  0.77583925  0.09832141  0.10305528  1
  N  N46  1  0.55446110  0.20423560  0.85836787  1
  N  N47  1  0.44594462  0.09369434  0.60199265  1
  N  N48  1  0.22048662  0.53777042  0.34545501  1
  N  N49  1  0.11290404  0.42419174  0.10150938  1
  N  N50  1  0.89130247  0.53779455  0.85836361  1
  N  N51  1  0.80690715  0.41321322  0.60084024  1
  N  N52  1  0.55555546  0.53888909  0.33547549  1
  N  N53  1  0.44241531  0.42574862  0.10314076  1
  N  N54  1  0.22090292  0.53779317  0.85837063  1
  N  N55  1  0.11036085  0.42927792  0.60199293  1
  N  N56  1  0.89174418  0.53776935  0.34544772  1
  N  N57  1  0.78183612  0.42574866  0.10313946  1
  N  N58  1  0.55555584  0.53888869  0.87248431  1
  N  N59  1  0.42988008  0.41321329  0.60085107  1
  N  N60  1  0.22048718  0.87507555  0.34545733  1
  N  N61  1  0.11498800  0.75917261  0.10305653  1
  N  N62  1  0.88888881  0.87222217  0.87198744  1
  N  N63  1  0.76250476  0.74583779  0.60173034  1
  N  N64  1  0.55443511  0.87507689  0.34545137  1
  N  N65  1  0.44241535  0.76516941  0.10314043  1
  N  N66  1  0.22090233  0.87463778  0.85837270  1
  N  N67  1  0.14165693  0.74583807  0.60174771  1
  N  N68  1  0.88888883  0.87222236  0.33571603  1
  N  N69  1  0.77583929  0.75917261  0.10305544  1
  N  N70  1  0.55446227  0.87463651  0.85836697  1
  N  N71  1  0.42988024  0.79023989  0.60085459  1
