# generated using pymatgen
data_GdAl17N18
_symmetry_space_group_name_H-M   'P 1'
_cell_length_a   9.51744179
_cell_length_b   9.51744181
_cell_length_c   10.11244011
_cell_angle_alpha   90.00000013
_cell_angle_beta   90.00000000
_cell_angle_gamma   60.00000149
_symmetry_Int_Tables_number   1
_chemical_formula_structural   GdAl17N18
_chemical_formula_sum   'Gd2 Al34 N36'
_cell_volume   793.28101444
_cell_formula_units_Z   2
loop_
 _symmetry_equiv_pos_site_id
 _symmetry_equiv_pos_as_xyz
  1  'x, y, z'
loop_
 _atom_site_type_symbol
 _atom_site_label
 _atom_site_symmetry_multiplicity
 _atom_site_fract_x
 _atom_site_fract_y
 _atom_site_fract_z
 _atom_site_occupancy
  Al  Al0  1  0.11104642  0.09437976  0.39454316  1
  Al  Al1  1  0.22222223  0.20555556  0.14420917  1
  Al  Al2  1  0.77668476  0.09663046  0.90113118  1
  Al  Al3  1  0.89327963  0.20751949  0.64373040  1
  Al  Al4  1  0.44457381  0.09437975  0.39454315  1
  Al  Al5  1  0.55418875  0.20447132  0.14407755  1
  Al  Al6  1  0.11149768  0.09483102  0.89346590  1
  Al  Al7  1  0.22222222  0.20555555  0.64254576  1
  Al  Al8  1  0.77339828  0.10320345  0.38922928  1
  Al  Al9  1  0.89133994  0.20447133  0.14407755  1
  Al  Al10  1  0.44367128  0.09483101  0.89346590  1
  Al  Al11  1  0.54920085  0.20751949  0.64373040  1
  Al  Al12  1  0.11104642  0.42790714  0.39454315  1
  Al  Al13  1  0.22113798  0.53752208  0.14407755  1
  Al  Al14  1  0.77931220  0.42701056  0.90139888  1
  Al  Al15  1  0.89327963  0.53253419  0.64373040  1
  Al  Al16  1  0.43980667  0.42314000  0.38877126  1
  Al  Al17  1  0.55555556  0.53888890  0.14582414  1
  Al  Al18  1  0.11149768  0.42700462  0.89346590  1
  Al  Al19  1  0.22418615  0.53253419  0.64373040  1
  Al  Al20  1  0.78705331  0.42314001  0.38877127  1
  Al  Al21  1  0.89133994  0.53752210  0.14407755  1
  Al  Al22  1  0.44367722  0.42701055  0.90139888  1
  Al  Al23  1  0.11987012  0.75673161  0.38922928  1
  Al  Al24  1  0.22113800  0.87467327  0.14407755  1
  Al  Al25  1  0.77668477  0.76001810  0.90113117  1
  Al  Al26  1  0.43980668  0.77038664  0.38877127  1
  Al  Al27  1  0.55418876  0.87467327  0.14407755  1
  Al  Al28  1  0.11329713  0.76001810  0.90113118  1
  Al  Al29  1  0.22418615  0.87661296  0.64373040  1
  Al  Al30  1  0.77339827  0.75673161  0.38922928  1
  Al  Al31  1  0.88888890  0.87222224  0.14622224  1
  Al  Al32  1  0.44367723  0.76264553  0.90139888  1
  Al  Al33  1  0.54920086  0.87661297  0.64373040  1
  Gd  Gd34  1  0.55555555  0.53888888  0.63461773  1
  Gd  Gd35  1  0.88888889  0.87222222  0.63648291  1
  N  N36  1  0.22222222  0.20555556  0.33594865  1
  N  N37  1  0.11171076  0.09504409  0.08318065  1
  N  N38  1  0.88815674  0.20604264  0.83653035  1
  N  N39  1  0.76015472  0.12969052  0.57668431  1
  N  N40  1  0.55413006  0.20335587  0.33089836  1
  N  N41  1  0.44324514  0.09504410  0.08318065  1
  N  N42  1  0.22222222  0.20555555  0.83343810  1
  N  N43  1  0.11063610  0.09396943  0.58578737  1
  N  N44  1  0.89251407  0.20335588  0.33089837  1
  N  N45  1  0.77694256  0.09611489  0.09032875  1
  N  N46  1  0.55580062  0.20604263  0.83653035  1
  N  N47  1  0.44539445  0.09396943  0.58578737  1
  N  N48  1  0.22002253  0.53746340  0.33089836  1
  N  N49  1  0.11171076  0.42657847  0.08318065  1
  N  N50  1  0.88815674  0.53913396  0.83653035  1
  N  N51  1  0.81131992  0.41100669  0.57357213  1
  N  N52  1  0.55555556  0.53888889  0.34246194  1
  N  N53  1  0.44349255  0.42682588  0.09036041  1
  N  N54  1  0.22270929  0.53913395  0.83653035  1
  N  N55  1  0.11063610  0.42872778  0.58578736  1
  N  N56  1  0.89251406  0.53746339  0.33089837  1
  N  N57  1  0.77968159  0.42682588  0.09036041  1
  N  N58  1  0.55555555  0.53888888  0.85834120  1
  N  N59  1  0.42767336  0.41100670  0.57357212  1
  N  N60  1  0.22002254  0.87584740  0.33089837  1
  N  N61  1  0.11278156  0.76027589  0.09032875  1
  N  N62  1  0.88888889  0.87222222  0.85849353  1
  N  N63  1  0.76015474  0.74348807  0.57668430  1
  N  N64  1  0.55413006  0.87584740  0.33089837  1
  N  N65  1  0.44349255  0.76301492  0.09036041  1
  N  N66  1  0.22270931  0.87149007  0.83653035  1
  N  N67  1  0.14635719  0.74348805  0.57668431  1
  N  N68  1  0.88888890  0.87222223  0.34414498  1
  N  N69  1  0.77694257  0.76027590  0.09032874  1
  N  N70  1  0.55580063  0.87149007  0.83653035  1
  N  N71  1  0.42767336  0.79465326  0.57357213  1
