# generated using pymatgen
data_GdAl17N18
_symmetry_space_group_name_H-M   'P 1'
_cell_length_a   9.66678457
_cell_length_b   9.66678241
_cell_length_c   9.71529432
_cell_angle_alpha   89.99999701
_cell_angle_beta   89.99999910
_cell_angle_gamma   60.00000648
_symmetry_Int_Tables_number   1
_chemical_formula_structural   GdAl17N18
_chemical_formula_sum   'Gd2 Al34 N36'
_cell_volume   786.23179991
_cell_formula_units_Z   2
loop_
 _symmetry_equiv_pos_site_id
 _symmetry_equiv_pos_as_xyz
  1  'x, y, z'
loop_
 _atom_site_type_symbol
 _atom_site_label
 _atom_site_symmetry_multiplicity
 _atom_site_fract_x
 _atom_site_fract_y
 _atom_site_fract_z
 _atom_site_occupancy
  Al  Al0  1  0.11069874  0.09403215  0.38244217  1
  Al  Al1  1  0.22222239  0.20555550  0.13303974  1
  Al  Al2  1  0.77676806  0.09646374  0.88736271  1
  Al  Al3  1  0.89282082  0.20751926  0.63220453  1
  Al  Al4  1  0.44526922  0.09403205  0.38244231  1
  Al  Al5  1  0.55364390  0.20405970  0.12925679  1
  Al  Al6  1  0.11209030  0.09542367  0.87985664  1
  Al  Al7  1  0.22222242  0.20555547  0.62784757  1
  Al  Al8  1  0.77265627  0.10468722  0.37361907  1
  Al  Al9  1  0.89229623  0.20405983  0.12925675  1
  Al  Al10  1  0.44248626  0.09542352  0.87985650  1
  Al  Al11  1  0.54966019  0.20751869  0.63220465  1
  Al  Al12  1  0.11069874  0.42860243  0.38244228  1
  Al  Al13  1  0.22072650  0.53697715  0.12925671  1
  Al  Al14  1  0.77905207  0.42714065  0.88817272  1
  Al  Al15  1  0.89282080  0.53299329  0.63220454  1
  Al  Al16  1  0.43878483  0.42211787  0.37381240  1
  Al  Al17  1  0.55555561  0.53888889  0.13102109  1
  Al  Al18  1  0.11209027  0.42581941  0.87985654  1
  Al  Al19  1  0.22418678  0.53299273  0.63220442  1
  Al  Al20  1  0.78909728  0.42211803  0.37381242  1
  Al  Al21  1  0.89229629  0.53697725  0.12925677  1
  Al  Al22  1  0.44380737  0.42714053  0.88817269  1
  Al  Al23  1  0.12135370  0.75598980  0.37361915  1
  Al  Al24  1  0.22072657  0.87562962  0.12925671  1
  Al  Al25  1  0.77676805  0.76010155  0.88736278  1
  Al  Al26  1  0.43878485  0.77243061  0.37381251  1
  Al  Al27  1  0.55364388  0.87562972  0.12925681  1
  Al  Al28  1  0.11313032  0.76010151  0.88736263  1
  Al  Al29  1  0.22418685  0.87615379  0.63220439  1
  Al  Al30  1  0.77265627  0.75598980  0.37361900  1
  Al  Al31  1  0.88888876  0.87222232  0.13057531  1
  Al  Al32  1  0.44380740  0.76238542  0.88817262  1
  Al  Al33  1  0.54966029  0.87615445  0.63220468  1
  Gd  Gd34  1  0.55555558  0.53888883  0.61411372  1
  Gd  Gd35  1  0.88888866  0.87222227  0.61501164  1
  N  N36  1  0.22222215  0.20555560  0.33141174  1
  N  N37  1  0.11245850  0.09579181  0.07572771  1
  N  N38  1  0.88843027  0.20600808  0.83127844  1
  N  N39  1  0.75949075  0.13101854  0.56976419  1
  N  N40  1  0.55373265  0.20280658  0.32262369  1
  N  N41  1  0.44174956  0.09579188  0.07572761  1
  N  N42  1  0.22222215  0.20555558  0.82487537  1
  N  N43  1  0.11003035  0.09336389  0.57990588  1
  N  N44  1  0.89346089  0.20280651  0.32262375  1
  N  N45  1  0.77695863  0.09608286  0.08340002  1
  N  N46  1  0.55556177  0.20600814  0.83127845  1
  N  N47  1  0.44660575  0.09336377  0.57990601  1
  N  N48  1  0.21947313  0.53706609  0.32262370  1
  N  N49  1  0.11245850  0.42508300  0.07572763  1
  N  N50  1  0.88843021  0.53889506  0.83127844  1
  N  N51  1  0.81266091  0.41033618  0.56708791  1
  N  N52  1  0.55555554  0.53888892  0.33552938  1
  N  N53  1  0.44346678  0.42680030  0.08385401  1
  N  N54  1  0.22267473  0.53889513  0.83127851  1
  N  N55  1  0.11003033  0.42993911  0.57990598  1
  N  N56  1  0.89346094  0.53706588  0.32262374  1
  N  N57  1  0.77973297  0.42680019  0.08385398  1
  N  N58  1  0.55555558  0.53888887  0.84953152  1
  N  N59  1  0.42700186  0.41033726  0.56708788  1
  N  N60  1  0.21947319  0.87679407  0.32262372  1
  N  N61  1  0.11274954  0.76029190  0.08340004  1
  N  N62  1  0.88888897  0.87222219  0.84883917  1
  N  N63  1  0.75949071  0.74282404  0.56976410  1
  N  N64  1  0.55373258  0.87679412  0.32262370  1
  N  N65  1  0.44346678  0.76306627  0.08385393  1
  N  N66  1  0.22267470  0.87176354  0.83127850  1
  N  N67  1  0.14768488  0.74282424  0.56976414  1
  N  N68  1  0.88888897  0.87222220  0.33660604  1
  N  N69  1  0.77695864  0.76029185  0.08340011  1
  N  N70  1  0.55556180  0.87176343  0.83127845  1
  N  N71  1  0.42700174  0.79599412  0.56708798  1
