# generated using pymatgen
data_GdAl17N18
_symmetry_space_group_name_H-M   'P 1'
_cell_length_a   9.90522419
_cell_length_b   9.90522141
_cell_length_c   9.02302866
_cell_angle_alpha   89.99998842
_cell_angle_beta   89.99997509
_cell_angle_gamma   60.00001599
_symmetry_Int_Tables_number   1
_chemical_formula_structural   GdAl17N18
_chemical_formula_sum   'Gd2 Al34 N36'
_cell_volume   766.67541279
_cell_formula_units_Z   2
loop_
 _symmetry_equiv_pos_site_id
 _symmetry_equiv_pos_as_xyz
  1  'x, y, z'
loop_
 _atom_site_type_symbol
 _atom_site_label
 _atom_site_symmetry_multiplicity
 _atom_site_fract_x
 _atom_site_fract_y
 _atom_site_fract_z
 _atom_site_occupancy
  Al  Al0  1  0.11286235  0.09619556  0.33748370  1
  Al  Al1  1  0.22222212  0.20555542  0.08161620  1
  Al  Al2  1  0.77340045  0.10319918  0.84985166  1
  Al  Al3  1  0.89251118  0.20681637  0.58362805  1
  Al  Al4  1  0.44094184  0.09619575  0.33748323  1
  Al  Al5  1  0.55269634  0.20384500  0.08938800  1
  Al  Al6  1  0.11025198  0.09358540  0.83463586  1
  Al  Al7  1  0.22222226  0.20555566  0.59202931  1
  Al  Al8  1  0.77556297  0.09887380  0.32812968  1
  Al  Al9  1  0.89345881  0.20384489  0.08938820  1
  Al  Al10  1  0.44616257  0.09358542  0.83463662  1
  Al  Al11  1  0.55067232  0.20681637  0.58362825  1
  Al  Al12  1  0.11286238  0.42427537  0.33748322  1
  Al  Al13  1  0.22051175  0.53602958  0.08938762  1
  Al  Al14  1  0.78806311  0.42263508  0.84790151  1
  Al  Al15  1  0.89251153  0.53400547  0.58362845  1
  Al  Al16  1  0.44261125  0.42594481  0.32716508  1
  Al  Al17  1  0.55555562  0.53888875  0.09373963  1
  Al  Al18  1  0.11025208  0.42949584  0.83463671  1
  Al  Al19  1  0.22348308  0.53400570  0.58362831  1
  Al  Al20  1  0.78144388  0.42594464  0.32716538  1
  Al  Al21  1  0.89345859  0.53602978  0.08938836  1
  Al  Al22  1  0.43930180  0.42263494  0.84790114  1
  Al  Al23  1  0.11554046  0.75889633  0.32812890  1
  Al  Al24  1  0.22051146  0.87679224  0.08938765  1
  Al  Al25  1  0.77340053  0.75673387  0.84985162  1
  Al  Al26  1  0.44261123  0.76477714  0.32716440  1
  Al  Al27  1  0.55269654  0.87679201  0.08938819  1
  Al  Al28  1  0.11986632  0.75673355  0.84985118  1
  Al  Al29  1  0.22348320  0.87584443  0.58362792  1
  Al  Al30  1  0.77556293  0.75889632  0.32813061  1
  Al  Al31  1  0.88888885  0.87222212  0.09516219  1
  Al  Al32  1  0.43930163  0.77139687  0.84790165  1
  Al  Al33  1  0.55067200  0.87584487  0.58362825  1
  Gd  Gd34  1  0.55555532  0.53888931  0.60208588  1
  Gd  Gd35  1  0.88888938  0.87222213  0.60209851  1
  N  N36  1  0.22222220  0.20555566  0.37741097  1
  N  N37  1  0.11335206  0.09668534  0.12422303  1
  N  N38  1  0.89378144  0.20260918  0.87823272  1
  N  N39  1  0.76102525  0.12794934  0.62760188  1
  N  N40  1  0.55516038  0.20558665  0.36526177  1
  N  N41  1  0.43996243  0.09668547  0.12422243  1
  N  N42  1  0.22222215  0.20555543  0.86480872  1
  N  N43  1  0.10961888  0.09295223  0.61869303  1
  N  N44  1  0.88925282  0.20558651  0.36526169  1
  N  N45  1  0.77614777  0.09770434  0.11476843  1
  N  N46  1  0.55360957  0.20260920  0.87823271  1
  N  N47  1  0.44742863  0.09295242  0.61869366  1
  N  N48  1  0.22225316  0.53849401  0.36526201  1
  N  N49  1  0.11335213  0.42329584  0.12422237  1
  N  N50  1  0.89378117  0.53694301  0.87823265  1
  N  N51  1  0.80990366  0.41171478  0.62989124  1
  N  N52  1  0.55555545  0.53888900  0.34356078  1
  N  N53  1  0.44270266  0.42603606  0.11453845  1
  N  N54  1  0.21927607  0.53694262  0.87823267  1
  N  N55  1  0.10961902  0.43076208  0.61869378  1
  N  N56  1  0.88925312  0.53849352  0.36526170  1
  N  N57  1  0.78126120  0.42603600  0.11453845  1
  N  N58  1  0.55555556  0.53888887  0.87277847  1
  N  N59  1  0.42838147  0.41171473  0.62989152  1
  N  N60  1  0.22225336  0.87258587  0.36526189  1
  N  N61  1  0.11437112  0.75948105  0.11476819  1
  N  N62  1  0.88888905  0.87222212  0.87241810  1
  N  N63  1  0.76102529  0.74435884  0.62760085  1
  N  N64  1  0.55515998  0.87258632  0.36526165  1
  N  N65  1  0.44270261  0.76459459  0.11453790  1
  N  N66  1  0.21927573  0.87711499  0.87823281  1
  N  N67  1  0.14461657  0.74435840  0.62760287  1
  N  N68  1  0.88888902  0.87222218  0.34416113  1
  N  N69  1  0.77614779  0.75948113  0.11476900  1
  N  N70  1  0.55360985  0.87711464  0.87823278  1
  N  N71  1  0.42838119  0.79323757  0.62989227  1
