# generated using pymatgen
data_GdAl17N18
_symmetry_space_group_name_H-M   'P 1'
_cell_length_a   9.51918406
_cell_length_b   9.51918479
_cell_length_c   10.10801160
_cell_angle_alpha   90.00000585
_cell_angle_beta   90.00000893
_cell_angle_gamma   59.99997452
_symmetry_Int_Tables_number   1
_chemical_formula_structural   GdAl17N18
_chemical_formula_sum   'Gd2 Al34 N36'
_cell_volume   793.22379560
_cell_formula_units_Z   2
loop_
 _symmetry_equiv_pos_site_id
 _symmetry_equiv_pos_as_xyz
  1  'x, y, z'
loop_
 _atom_site_type_symbol
 _atom_site_label
 _atom_site_symmetry_multiplicity
 _atom_site_fract_x
 _atom_site_fract_y
 _atom_site_fract_z
 _atom_site_occupancy
  Al  Al0  1  0.11151001  0.09484334  0.32350710  1
  Al  Al1  1  0.22222225  0.20555556  0.07272990  1
  Al  Al2  1  0.77335167  0.10329670  0.82776441  1
  Al  Al3  1  0.89328640  0.20752191  0.57319503  1
  Al  Al4  1  0.44364670  0.09484331  0.32350710  1
  Al  Al5  1  0.55419525  0.20446729  0.07296931  1
  Al  Al6  1  0.11103758  0.09437094  0.82242492  1
  Al  Al7  1  0.22222223  0.20555556  0.57445543  1
  Al  Al8  1  0.77671342  0.09657322  0.31592461  1
  Al  Al9  1  0.89133748  0.20446734  0.07296930  1
  Al  Al10  1  0.44459152  0.09437089  0.82242493  1
  Al  Al11  1  0.54919165  0.20752184  0.57319505  1
  Al  Al12  1  0.11150999  0.42698001  0.32350710  1
  Al  Al13  1  0.22113397  0.53752856  0.07296931  1
  Al  Al14  1  0.78714679  0.42309327  0.82821981  1
  Al  Al15  1  0.89328636  0.53252499  0.57319503  1
  Al  Al16  1  0.44370542  0.42703873  0.31563724  1
  Al  Al17  1  0.55555555  0.53888889  0.07108013  1
  Al  Al18  1  0.11103755  0.42792484  0.82242493  1
  Al  Al19  1  0.22418850  0.53252496  0.57319505  1
  Al  Al20  1  0.77925581  0.42703877  0.31563725  1
  Al  Al21  1  0.89133747  0.53752856  0.07296931  1
  Al  Al22  1  0.43975988  0.42309321  0.82821985  1
  Al  Al23  1  0.11323992  0.76004673  0.31592461  1
  Al  Al24  1  0.22113400  0.87467081  0.07296931  1
  Al  Al25  1  0.77335165  0.75668497  0.82776442  1
  Al  Al26  1  0.44370544  0.76258916  0.31563725  1
  Al  Al27  1  0.55419525  0.87467079  0.07296931  1
  Al  Al28  1  0.11996339  0.75668499  0.82776442  1
  Al  Al29  1  0.22418853  0.87661981  0.57319505  1
  Al  Al30  1  0.77671342  0.76004672  0.31592459  1
  Al  Al31  1  0.88888893  0.87222223  0.07068806  1
  Al  Al32  1  0.43975991  0.77048018  0.82821984  1
  Al  Al33  1  0.54919166  0.87661973  0.57319503  1
  Gd  Gd34  1  0.55555538  0.53888887  0.58266412  1
  Gd  Gd35  1  0.88888888  0.87222219  0.58082741  1
  N  N36  1  0.22222223  0.20555555  0.38350465  1
  N  N37  1  0.11172481  0.09505812  0.13374377  1
  N  N38  1  0.89252719  0.20334844  0.88607574  1
  N  N39  1  0.76009507  0.12980992  0.64023328  1
  N  N40  1  0.55579055  0.20603998  0.38035708  1
  N  N41  1  0.44321720  0.09505810  0.13374377  1
  N  N42  1  0.22222222  0.20555554  0.88092864  1
  N  N43  1  0.11062088  0.09395427  0.63112060  1
  N  N44  1  0.88816944  0.20604002  0.38035708  1
  N  N45  1  0.77697081  0.09605853  0.12663599  1
  N  N46  1  0.55412437  0.20334837  0.88607576  1
  N  N47  1  0.44542496  0.09395417  0.63112060  1
  N  N48  1  0.22270665  0.53912386  0.38035709  1
  N  N49  1  0.11172480  0.42655049  0.13374377  1
  N  N50  1  0.89252717  0.53745766  0.88607575  1
  N  N51  1  0.81142898  0.41095219  0.64335083  1
  N  N52  1  0.55555552  0.53888887  0.35881883  1
  N  N53  1  0.44351794  0.42685124  0.12658952  1
  N  N54  1  0.22001503  0.53745769  0.88607576  1
  N  N55  1  0.11062082  0.42875827  0.63112060  1
  N  N56  1  0.88816943  0.53912387  0.38035707  1
  N  N57  1  0.77963087  0.42685127  0.12658953  1
  N  N58  1  0.55555549  0.53888888  0.87435226  1
  N  N59  1  0.42761874  0.41095205  0.64335091  1
  N  N60  1  0.22270668  0.87150279  0.38035709  1
  N  N61  1  0.11272524  0.76030409  0.12663599  1
  N  N62  1  0.88888889  0.87222221  0.87266270  1
  N  N63  1  0.76009507  0.74342839  0.64023331  1
  N  N64  1  0.55579055  0.87150276  0.38035707  1
  N  N65  1  0.44351796  0.76296420  0.12658952  1
  N  N66  1  0.22001507  0.87586056  0.88607575  1
  N  N67  1  0.14647665  0.74342836  0.64023328  1
  N  N68  1  0.88888889  0.87222221  0.35869770  1
  N  N69  1  0.77697081  0.76030410  0.12663598  1
  N  N70  1  0.55412434  0.87586052  0.88607576  1
  N  N71  1  0.42761880  0.79476244  0.64335087  1
