# generated using pymatgen
data_GdAl17N18
_symmetry_space_group_name_H-M   'P 1'
_cell_length_a   9.51737449
_cell_length_b   9.51737448
_cell_length_c   10.11260516
_cell_angle_alpha   90.00000006
_cell_angle_beta   90.00000013
_cell_angle_gamma   60.00000149
_symmetry_Int_Tables_number   1
_chemical_formula_structural   GdAl17N18
_chemical_formula_sum   'Gd2 Al34 N36'
_cell_volume   793.28274079
_cell_formula_units_Z   2
loop_
 _symmetry_equiv_pos_site_id
 _symmetry_equiv_pos_as_xyz
  1  'x, y, z'
loop_
 _atom_site_type_symbol
 _atom_site_label
 _atom_site_symmetry_multiplicity
 _atom_site_fract_x
 _atom_site_fract_y
 _atom_site_fract_z
 _atom_site_occupancy
  Al  Al0  1  0.11104664  0.09437997  0.39882980  1
  Al  Al1  1  0.22222223  0.20555556  0.14849379  1
  Al  Al2  1  0.77668263  0.09663473  0.90542109  1
  Al  Al3  1  0.89327904  0.20751901  0.64801422  1
  Al  Al4  1  0.44457337  0.09437997  0.39882980  1
  Al  Al5  1  0.55418795  0.20447167  0.14836697  1
  Al  Al6  1  0.11149728  0.09483062  0.89774966  1
  Al  Al7  1  0.22222222  0.20555555  0.64682985  1
  Al  Al8  1  0.77340140  0.10319719  0.39351690  1
  Al  Al9  1  0.89134038  0.20447168  0.14836697  1
  Al  Al10  1  0.44367208  0.09483061  0.89774966  1
  Al  Al11  1  0.54920191  0.20751901  0.64801422  1
  Al  Al12  1  0.11104664  0.42790671  0.39882980  1
  Al  Al13  1  0.22113834  0.53752128  0.14836697  1
  Al  Al14  1  0.77931620  0.42700857  0.90568815  1
  Al  Al15  1  0.89327905  0.53253525  0.64801422  1
  Al  Al16  1  0.43980958  0.42314292  0.39306087  1
  Al  Al17  1  0.55555556  0.53888890  0.15010638  1
  Al  Al18  1  0.11149728  0.42700542  0.89774966  1
  Al  Al19  1  0.22418568  0.53253525  0.64801422  1
  Al  Al20  1  0.78704748  0.42314293  0.39306088  1
  Al  Al21  1  0.89134039  0.53752130  0.14836697  1
  Al  Al22  1  0.44367522  0.42700856  0.90568815  1
  Al  Al23  1  0.11986386  0.75673474  0.39351690  1
  Al  Al24  1  0.22113835  0.87467372  0.14836697  1
  Al  Al25  1  0.77668263  0.76001597  0.90542109  1
  Al  Al26  1  0.43980959  0.77038081  0.39306088  1
  Al  Al27  1  0.55418797  0.87467372  0.14836697  1
  Al  Al28  1  0.11330140  0.76001596  0.90542109  1
  Al  Al29  1  0.22418568  0.87661238  0.64801422  1
  Al  Al30  1  0.77340140  0.75673473  0.39351690  1
  Al  Al31  1  0.88888890  0.87222224  0.15050187  1
  Al  Al32  1  0.44367523  0.76264953  0.90568815  1
  Al  Al33  1  0.54920192  0.87661239  0.64801422  1
  Gd  Gd34  1  0.55555555  0.53888888  0.63892431  1
  Gd  Gd35  1  0.88888889  0.87222222  0.64079034  1
  N  N36  1  0.22222222  0.20555555  0.34023140  1
  N  N37  1  0.11171016  0.09504350  0.08746355  1
  N  N38  1  0.88815596  0.20604277  0.84081212  1
  N  N39  1  0.76015878  0.12968240  0.58096892  1
  N  N40  1  0.55413028  0.20335657  0.33518588  1
  N  N41  1  0.44324633  0.09504350  0.08746355  1
  N  N42  1  0.22222222  0.20555555  0.83772042  1
  N  N43  1  0.11063669  0.09397002  0.59007105  1
  N  N44  1  0.89251315  0.20335658  0.33518588  1
  N  N45  1  0.77694040  0.09611920  0.09461462  1
  N  N46  1  0.55580127  0.20604276  0.84081212  1
  N  N47  1  0.44539327  0.09397002  0.59007105  1
  N  N48  1  0.22002324  0.53746361  0.33518588  1
  N  N49  1  0.11171017  0.42657967  0.08746355  1
  N  N50  1  0.88815596  0.53913462  0.84081212  1
  N  N51  1  0.81131278  0.41101027  0.57785879  1
  N  N52  1  0.55555556  0.53888889  0.34674059  1
  N  N53  1  0.44349083  0.42682416  0.09464587  1
  N  N54  1  0.22270942  0.53913461  0.84081212  1
  N  N55  1  0.11063668  0.42872660  0.59007105  1
  N  N56  1  0.89251314  0.53746361  0.33518588  1
  N  N57  1  0.77968501  0.42682417  0.09464587  1
  N  N58  1  0.55555555  0.53888888  0.86264164  1
  N  N59  1  0.42767694  0.41101027  0.57785879  1
  N  N60  1  0.22002325  0.87584648  0.33518588  1
  N  N61  1  0.11278587  0.76027374  0.09461462  1
  N  N62  1  0.88888889  0.87222222  0.86279565  1
  N  N63  1  0.76015880  0.74349213  0.58096892  1
  N  N64  1  0.55413027  0.87584648  0.33518588  1
  N  N65  1  0.44349084  0.76301835  0.09464587  1
  N  N66  1  0.22270944  0.87148929  0.84081212  1
  N  N67  1  0.14634906  0.74349212  0.58096892  1
  N  N68  1  0.88888890  0.87222223  0.34842067  1
  N  N69  1  0.77694042  0.76027375  0.09461462  1
  N  N70  1  0.55580128  0.87148929  0.84081212  1
  N  N71  1  0.42767693  0.79464611  0.57785879  1
