# generated using pymatgen
data_GdAl17N18
_symmetry_space_group_name_H-M   'P 1'
_cell_length_a   9.51736828
_cell_length_b   9.51736827
_cell_length_c   10.11261780
_cell_angle_alpha   89.99999979
_cell_angle_beta   89.99999964
_cell_angle_gamma   60.00000168
_symmetry_Int_Tables_number   1
_chemical_formula_structural   GdAl17N18
_chemical_formula_sum   'Gd2 Al34 N36'
_cell_volume   793.28269787
_cell_formula_units_Z   2
loop_
 _symmetry_equiv_pos_site_id
 _symmetry_equiv_pos_as_xyz
  1  'x, y, z'
loop_
 _atom_site_type_symbol
 _atom_site_label
 _atom_site_symmetry_multiplicity
 _atom_site_fract_x
 _atom_site_fract_y
 _atom_site_fract_z
 _atom_site_occupancy
  Al  Al0  1  0.11149684  0.09483018  0.31072607  1
  Al  Al1  1  0.22222223  0.20555556  0.05998417  1
  Al  Al2  1  0.77340217  0.10319566  0.81496266  1
  Al  Al3  1  0.89327869  0.20751918  0.56046450  1
  Al  Al4  1  0.44367298  0.09483017  0.31072606  1
  Al  Al5  1  0.55418773  0.20447152  0.06010807  1
  Al  Al6  1  0.11104712  0.09438046  0.80964754  1
  Al  Al7  1  0.22222222  0.20555556  0.56164414  1
  Al  Al8  1  0.77668215  0.09663571  0.30305401  1
  Al  Al9  1  0.89134076  0.20447153  0.06010807  1
  Al  Al10  1  0.44457241  0.09438045  0.80964755  1
  Al  Al11  1  0.54920210  0.20751919  0.56046450  1
  Al  Al12  1  0.11149684  0.42700631  0.31072606  1
  Al  Al13  1  0.22113818  0.53752107  0.06010807  1
  Al  Al14  1  0.78704607  0.42314363  0.81541910  1
  Al  Al15  1  0.89327869  0.53253543  0.56046450  1
  Al  Al16  1  0.44367474  0.42700807  0.30278749  1
  Al  Al17  1  0.55555556  0.53888890  0.05837490  1
  Al  Al18  1  0.11104712  0.42790575  0.80964755  1
  Al  Al19  1  0.22418585  0.53253543  0.56046450  1
  Al  Al20  1  0.77931717  0.42700808  0.30278749  1
  Al  Al21  1  0.89134076  0.53752107  0.06010807  1
  Al  Al22  1  0.43981029  0.42314362  0.81541910  1
  Al  Al23  1  0.11330237  0.76001548  0.30305401  1
  Al  Al24  1  0.22113819  0.87467410  0.06010807  1
  Al  Al25  1  0.77340216  0.75673550  0.81496265  1
  Al  Al26  1  0.44367475  0.76265050  0.30278749  1
  Al  Al27  1  0.55418774  0.87467410  0.06010807  1
  Al  Al28  1  0.11986233  0.75673550  0.81496266  1
  Al  Al29  1  0.22418585  0.87661202  0.56046450  1
  Al  Al30  1  0.77668215  0.76001548  0.30305401  1
  Al  Al31  1  0.88888890  0.87222224  0.05797831  1
  Al  Al32  1  0.43981030  0.77037940  0.81541910  1
  Al  Al33  1  0.54920210  0.87661203  0.56046450  1
  Gd  Gd34  1  0.55555555  0.53888889  0.56955089  1
  Gd  Gd35  1  0.88888889  0.87222222  0.56768401  1
  N  N36  1  0.22222222  0.20555556  0.37075435  1
  N  N37  1  0.11170984  0.09504318  0.12101296  1
  N  N38  1  0.89251357  0.20335631  0.87329081  1
  N  N39  1  0.76015960  0.12968076  0.62751033  1
  N  N40  1  0.55580143  0.20604282  0.36766579  1
  N  N41  1  0.44324698  0.09504318  0.12101295  1
  N  N42  1  0.22222222  0.20555556  0.86824749  1
  N  N43  1  0.11063716  0.09397049  0.61840659  1
  N  N44  1  0.88815575  0.20604283  0.36766579  1
  N  N45  1  0.77693982  0.09612037  0.11386145  1
  N  N46  1  0.55413012  0.20335631  0.87329081  1
  N  N47  1  0.44539233  0.09397049  0.61840659  1
  N  N48  1  0.22270949  0.53913476  0.36766579  1
  N  N49  1  0.11170984  0.42658032  0.12101295  1
  N  N50  1  0.89251357  0.53746345  0.87329081  1
  N  N51  1  0.81131134  0.41101098  0.63062071  1
  N  N52  1  0.55555555  0.53888888  0.34583268  1
  N  N53  1  0.44349019  0.42682353  0.11383062  1
  N  N54  1  0.22002298  0.53746346  0.87329081  1
  N  N55  1  0.11063716  0.42872567  0.61840659  1
  N  N56  1  0.88815575  0.53913476  0.36766579  1
  N  N57  1  0.77968629  0.42682353  0.11383062  1
  N  N58  1  0.55555556  0.53888889  0.86174082  1
  N  N59  1  0.42767766  0.41101099  0.63062071  1
  N  N60  1  0.22270950  0.87148908  0.36766579  1
  N  N61  1  0.11278704  0.76027315  0.11386145  1
  N  N62  1  0.88888889  0.87222223  0.86006042  1
  N  N63  1  0.76015962  0.74349295  0.62751033  1
  N  N64  1  0.55580143  0.87148908  0.36766579  1
  N  N65  1  0.44349020  0.76301962  0.11383062  1
  N  N66  1  0.22002298  0.87584691  0.87329081  1
  N  N67  1  0.14634742  0.74349294  0.62751033  1
  N  N68  1  0.88888889  0.87222222  0.34567808  1
  N  N69  1  0.77693983  0.76027316  0.11386144  1
  N  N70  1  0.55413012  0.87584690  0.87329081  1
  N  N71  1  0.42767765  0.79464468  0.63062071  1
