# generated using pymatgen
data_GdAl17N18
_symmetry_space_group_name_H-M   'P 1'
_cell_length_a   9.61355338
_cell_length_b   9.61355449
_cell_length_c   9.86118356
_cell_angle_alpha   89.99999781
_cell_angle_beta   90.00000017
_cell_angle_gamma   60.00000161
_symmetry_Int_Tables_number   1
_chemical_formula_structural   GdAl17N18
_chemical_formula_sum   'Gd2 Al34 N36'
_cell_volume   789.27367220
_cell_formula_units_Z   2
loop_
 _symmetry_equiv_pos_site_id
 _symmetry_equiv_pos_as_xyz
  1  'x, y, z'
loop_
 _atom_site_type_symbol
 _atom_site_label
 _atom_site_symmetry_multiplicity
 _atom_site_fract_x
 _atom_site_fract_y
 _atom_site_fract_z
 _atom_site_occupancy
  Al  Al0  1  0.11188338  0.09521672  0.32719632  1
  Al  Al1  1  0.22222221  0.20555555  0.07495314  1
  Al  Al2  1  0.77265984  0.10468035  0.83262298  1
  Al  Al3  1  0.89305152  0.20753955  0.57547739  1
  Al  Al4  1  0.44289987  0.09521671  0.32719628  1
  Al  Al5  1  0.55391886  0.20420792  0.07768481  1
  Al  Al6  1  0.11082510  0.09415846  0.82521121  1
  Al  Al7  1  0.22222224  0.20555558  0.57880098  1
  Al  Al8  1  0.77693628  0.09612739  0.32015709  1
  Al  Al9  1  0.89187321  0.20420792  0.07768482  1
  Al  Al10  1  0.44501643  0.09415845  0.82521126  1
  Al  Al11  1  0.54940893  0.20753950  0.57547739  1
  Al  Al12  1  0.11188337  0.42623321  0.32719628  1
  Al  Al13  1  0.22087460  0.53725218  0.07768480  1
  Al  Al14  1  0.78886598  0.42223368  0.83267816  1
  Al  Al15  1  0.89305158  0.53274221  0.57547739  1
  Al  Al16  1  0.44394836  0.42728169  0.31946447  1
  Al  Al17  1  0.55555555  0.53888889  0.07488127  1
  Al  Al18  1  0.11082511  0.42834975  0.82521126  1
  Al  Al19  1  0.22420621  0.53274221  0.57547741  1
  Al  Al20  1  0.77876988  0.42728170  0.31946445  1
  Al  Al21  1  0.89187320  0.53725222  0.07768482  1
  Al  Al22  1  0.43890036  0.42223366  0.83267811  1
  Al  Al23  1  0.11279407  0.76026961  0.32015707  1
  Al  Al24  1  0.22087458  0.87520656  0.07768481  1
  Al  Al25  1  0.77265983  0.75599314  0.83262294  1
  Al  Al26  1  0.44394835  0.76210324  0.31946443  1
  Al  Al27  1  0.55391890  0.87520654  0.07768482  1
  Al  Al28  1  0.12134707  0.75599314  0.83262299  1
  Al  Al29  1  0.22420621  0.87638491  0.57547741  1
  Al  Al30  1  0.77693628  0.76026961  0.32015713  1
  Al  Al31  1  0.88888890  0.87222221  0.07499109  1
  Al  Al32  1  0.43890034  0.77219936  0.83267818  1
  Al  Al33  1  0.54940888  0.87638496  0.57547739  1
  Gd  Gd34  1  0.55555551  0.53888900  0.59199757  1
  Gd  Gd35  1  0.88888896  0.87222220  0.59088371  1
  N  N36  1  0.22222220  0.20555557  0.38427553  1
  N  N37  1  0.11220428  0.09553759  0.13386362  1
  N  N38  1  0.89315869  0.20298969  0.88688239  1
  N  N39  1  0.75938267  0.13123467  0.64005608  1
  N  N40  1  0.55562081  0.20600848  0.37908633  1
  N  N41  1  0.44225810  0.09553760  0.13386358  1
  N  N42  1  0.22222220  0.20555555  0.87927322  1
  N  N43  1  0.11020789  0.09354125  0.63029032  1
  N  N44  1  0.88837065  0.20600850  0.37908633  1
  N  N45  1  0.77713231  0.09573538  0.12668163  1
  N  N46  1  0.55385164  0.20298969  0.88688238  1
  N  N47  1  0.44625086  0.09354126  0.63029036  1
  N  N48  1  0.22267513  0.53895416  0.37908634  1
  N  N49  1  0.11220429  0.42559142  0.13386358  1
  N  N50  1  0.89315869  0.53718497  0.88688239  1
  N  N51  1  0.81281668  0.41025831  0.64290845  1
  N  N52  1  0.55555552  0.53888890  0.36113275  1
  N  N53  1  0.44363955  0.42697287  0.12631698  1
  N  N54  1  0.21965636  0.53718496  0.88688236  1
  N  N55  1  0.11020791  0.42958419  0.63029037  1
  N  N56  1  0.88837067  0.53895413  0.37908634  1
  N  N57  1  0.77938757  0.42697287  0.12631697  1
  N  N58  1  0.55555554  0.53888892  0.87344237  1
  N  N59  1  0.42692502  0.41025834  0.64290841  1
  N  N60  1  0.22267515  0.87170401  0.37908634  1
  N  N61  1  0.11240209  0.76046560  0.12668162  1
  N  N62  1  0.88888892  0.87222221  0.87212317  1
  N  N63  1  0.75938267  0.74271597  0.64005604  1
  N  N64  1  0.55562078  0.87170402  0.37908633  1
  N  N65  1  0.44363954  0.76272090  0.12631695  1
  N  N66  1  0.21965632  0.87649206  0.88688238  1
  N  N67  1  0.14790148  0.74271592  0.64005610  1
  N  N68  1  0.88888889  0.87222221  0.36168232  1
  N  N69  1  0.77713232  0.76046561  0.12668167  1
  N  N70  1  0.55385165  0.87649204  0.88688240  1
  N  N71  1  0.42692493  0.79615011  0.64290850  1
