# generated using pymatgen
data_GdAl17N18
_symmetry_space_group_name_H-M   'P 1'
_cell_length_a   9.51733080
_cell_length_b   9.51733079
_cell_length_c   10.11271896
_cell_angle_alpha   90.00000010
_cell_angle_beta   90.00000019
_cell_angle_gamma   60.00000152
_symmetry_Int_Tables_number   1
_chemical_formula_structural   GdAl17N18
_chemical_formula_sum   'Gd2 Al34 N36'
_cell_volume   793.28438353
_cell_formula_units_Z   2
loop_
 _symmetry_equiv_pos_site_id
 _symmetry_equiv_pos_as_xyz
  1  'x, y, z'
loop_
 _atom_site_type_symbol
 _atom_site_label
 _atom_site_symmetry_multiplicity
 _atom_site_fract_x
 _atom_site_fract_y
 _atom_site_fract_z
 _atom_site_occupancy
  Al  Al0  1  0.11104760  0.09438094  0.40280559  1
  Al  Al1  1  0.22222223  0.20555556  0.15246720  1
  Al  Al2  1  0.77668084  0.09663831  0.90940477  1
  Al  Al3  1  0.89327856  0.20751906  0.65198766  1
  Al  Al4  1  0.44457145  0.09438093  0.40280559  1
  Al  Al5  1  0.55418750  0.20447160  0.15234942  1
  Al  Al6  1  0.11149624  0.09482957  0.90172774  1
  Al  Al7  1  0.22222222  0.20555555  0.65081134  1
  Al  Al8  1  0.77340410  0.10319180  0.39749465  1
  Al  Al9  1  0.89134091  0.20447161  0.15234942  1
  Al  Al10  1  0.44367417  0.09482957  0.90172774  1
  Al  Al11  1  0.54920234  0.20751906  0.65198766  1
  Al  Al12  1  0.11104760  0.42790478  0.40280559  1
  Al  Al13  1  0.22113827  0.53752083  0.15234942  1
  Al  Al14  1  0.77931988  0.42700672  0.90967004  1
  Al  Al15  1  0.89327857  0.53253568  0.65198766  1
  Al  Al16  1  0.43981224  0.42314558  0.39703650  1
  Al  Al17  1  0.55555556  0.53888890  0.15407790  1
  Al  Al18  1  0.11149623  0.42700750  0.90172774  1
  Al  Al19  1  0.22418573  0.53253568  0.65198766  1
  Al  Al20  1  0.78704216  0.42314559  0.39703651  1
  Al  Al21  1  0.89134091  0.53752084  0.15234942  1
  Al  Al22  1  0.44367338  0.42700671  0.90967004  1
  Al  Al23  1  0.11985847  0.75673743  0.39749465  1
  Al  Al24  1  0.22113828  0.87467424  0.15234942  1
  Al  Al25  1  0.77668085  0.76001418  0.90940476  1
  Al  Al26  1  0.43981225  0.77037549  0.39703651  1
  Al  Al27  1  0.55418751  0.87467424  0.15234942  1
  Al  Al28  1  0.11330498  0.76001417  0.90940477  1
  Al  Al29  1  0.22418573  0.87661189  0.65198766  1
  Al  Al30  1  0.77340410  0.75673743  0.39749465  1
  Al  Al31  1  0.88888890  0.87222224  0.15447607  1
  Al  Al32  1  0.44367339  0.76265322  0.90967004  1
  Al  Al33  1  0.54920235  0.87661190  0.65198766  1
  Gd  Gd34  1  0.55555555  0.53888888  0.64291791  1
  Gd  Gd35  1  0.88888889  0.87222222  0.64478638  1
  N  N36  1  0.22222222  0.20555555  0.34420309  1
  N  N37  1  0.11170919  0.09504252  0.09144035  1
  N  N38  1  0.88815517  0.20604293  0.84478663  1
  N  N39  1  0.76016229  0.12967537  0.58494473  1
  N  N40  1  0.55413062  0.20335653  0.33916528  1
  N  N41  1  0.44324828  0.09504252  0.09144035  1
  N  N42  1  0.22222222  0.20555555  0.84169991  1
  N  N43  1  0.11063787  0.09397121  0.59404602  1
  N  N44  1  0.89251284  0.20335654  0.33916529  1
  N  N45  1  0.77693866  0.09612269  0.09859495  1
  N  N46  1  0.55580190  0.20604292  0.84478663  1
  N  N47  1  0.44539090  0.09397120  0.59404602  1
  N  N48  1  0.22002320  0.53746395  0.33916528  1
  N  N49  1  0.11170919  0.42658162  0.09144035  1
  N  N50  1  0.88815517  0.53913524  0.84478663  1
  N  N51  1  0.81130617  0.41101357  0.58183367  1
  N  N52  1  0.55555556  0.53888889  0.35070921  1
  N  N53  1  0.44348904  0.42682237  0.09862487  1
  N  N54  1  0.22270959  0.53913523  0.84478663  1
  N  N55  1  0.11063787  0.42872423  0.59404602  1
  N  N56  1  0.89251284  0.53746395  0.33916529  1
  N  N57  1  0.77968860  0.42682238  0.09862487  1
  N  N58  1  0.55555555  0.53888888  0.86663276  1
  N  N59  1  0.42768024  0.41101358  0.58183366  1
  N  N60  1  0.22002321  0.87584618  0.33916529  1
  N  N61  1  0.11278935  0.76027199  0.09859496  1
  N  N62  1  0.88888889  0.87222222  0.86678883  1
  N  N63  1  0.76016231  0.74349564  0.58494472  1
  N  N64  1  0.55413061  0.87584618  0.33916529  1
  N  N65  1  0.44348904  0.76302193  0.09862487  1
  N  N66  1  0.22270960  0.87148850  0.84478663  1
  N  N67  1  0.14634204  0.74349563  0.58494472  1
  N  N68  1  0.88888890  0.87222223  0.35239066  1
  N  N69  1  0.77693867  0.76027201  0.09859495  1
  N  N70  1  0.55580191  0.87148851  0.84478663  1
  N  N71  1  0.42768024  0.79463950  0.58183367  1
