# generated using pymatgen
data_GdAl17N18
_symmetry_space_group_name_H-M   'P 1'
_cell_length_a   10.04549169
_cell_length_b   10.04549184
_cell_length_c   8.60469162
_cell_angle_alpha   89.99997749
_cell_angle_beta   89.99996699
_cell_angle_gamma   60.00001100
_symmetry_Int_Tables_number   1
_chemical_formula_structural   GdAl17N18
_chemical_formula_sum   'Gd2 Al34 N36'
_cell_volume   751.98364290
_cell_formula_units_Z   2
loop_
 _symmetry_equiv_pos_site_id
 _symmetry_equiv_pos_as_xyz
  1  'x, y, z'
loop_
 _atom_site_type_symbol
 _atom_site_label
 _atom_site_symmetry_multiplicity
 _atom_site_fract_x
 _atom_site_fract_y
 _atom_site_fract_z
 _atom_site_occupancy
  Al  Al0  1  0.11210300  0.09543687  0.34772699  1
  Al  Al1  1  0.22222210  0.20555537  0.09736846  1
  Al  Al2  1  0.77413118  0.10173779  0.86221553  1
  Al  Al3  1  0.89362524  0.20567289  0.59809102  1
  Al  Al4  1  0.44245996  0.09543658  0.34772942  1
  Al  Al5  1  0.55311525  0.20435190  0.10074459  1
  Al  Al6  1  0.11115439  0.09448680  0.85066578  1
  Al  Al7  1  0.22222224  0.20555559  0.60115469  1
  Al  Al8  1  0.77469667  0.10060624  0.33988696  1
  Al  Al9  1  0.89253302  0.20435178  0.10074602  1
  Al  Al10  1  0.44435857  0.09448750  0.85066953  1
  Al  Al11  1  0.55070146  0.20567332  0.59809079  1
  Al  Al12  1  0.11210274  0.42579377  0.34772958  1
  Al  Al13  1  0.22101859  0.53644859  0.10074213  1
  Al  Al14  1  0.78573181  0.42380049  0.86035409  1
  Al  Al15  1  0.89362556  0.53403487  0.59809706  1
  Al  Al16  1  0.44139233  0.42472580  0.34003465  1
  Al  Al17  1  0.55555566  0.53888878  0.10240915  1
  Al  Al18  1  0.11115484  0.42769150  0.85066991  1
  Al  Al19  1  0.22233998  0.53403508  0.59808728  1
  Al  Al20  1  0.78388311  0.42472521  0.34004068  1
  Al  Al21  1  0.89253277  0.53644869  0.10074846  1
  Al  Al22  1  0.44046665  0.42379995  0.86034867  1
  Al  Al23  1  0.11727176  0.75803047  0.33988093  1
  Al  Al24  1  0.22101834  0.87586643  0.10074053  1
  Al  Al25  1  0.77413155  0.75746528  0.86221912  1
  Al  Al26  1  0.44139268  0.76721471  0.34003240  1
  Al  Al27  1  0.55311537  0.87586622  0.10074543  1
  Al  Al28  1  0.11840626  0.75746381  0.86220971  1
  Al  Al29  1  0.22234006  0.87695818  0.59808252  1
  Al  Al30  1  0.77469645  0.75802957  0.33989122  1
  Al  Al31  1  0.88888889  0.87222216  0.10293312  1
  Al  Al32  1  0.44046599  0.76906752  0.86034725  1
  Al  Al33  1  0.55070115  0.87695876  0.59809205  1
  Gd  Gd34  1  0.55555510  0.53888937  0.60424070  1
  Gd  Gd35  1  0.88888936  0.87222216  0.60438667  1
  N  N36  1  0.22222210  0.20555576  0.36262845  1
  N  N37  1  0.11296898  0.09630212  0.10958793  1
  N  N38  1  0.89207493  0.20362486  0.86538812  1
  N  N39  1  0.76241013  0.12517941  0.60983190  1
  N  N40  1  0.55458476  0.20443828  0.35224863  1
  N  N41  1  0.44072870  0.09630233  0.10958517  1
  N  N42  1  0.22222215  0.20555519  0.85519750  1
  N  N43  1  0.11027869  0.09361152  0.60822664  1
  N  N44  1  0.89097704  0.20443717  0.35224765  1
  N  N45  1  0.77586890  0.09826207  0.10643665  1
  N  N46  1  0.55430099  0.20362427  0.86538909  1
  N  N47  1  0.44610935  0.09361208  0.60822594  1
  N  N48  1  0.22110435  0.53791926  0.35225079  1
  N  N49  1  0.11296908  0.42406205  0.10958483  1
  N  N50  1  0.89207419  0.53763451  0.86538557  1
  N  N51  1  0.80710714  0.41311290  0.61099336  1
  N  N52  1  0.55555532  0.53888915  0.33644205  1
  N  N53  1  0.44244276  0.42577613  0.10641985  1
  N  N54  1  0.22029145  0.53763341  0.86539126  1
  N  N55  1  0.11027895  0.42944276  0.60822621  1
  N  N56  1  0.89097770  0.53791804  0.35224544  1
  N  N57  1  0.78178108  0.42577607  0.10641887  1
  N  N58  1  0.55555565  0.53888881  0.87309229  1
  N  N59  1  0.42977943  0.41311293  0.61100180  1
  N  N60  1  0.22110484  0.87430915  0.35225232  1
  N  N61  1  0.11492887  0.75920219  0.10643755  1
  N  N62  1  0.88888905  0.87222211  0.87282339  1
  N  N63  1  0.76241021  0.74574401  0.60982595  1
  N  N64  1  0.55458376  0.87431038  0.35224795  1
  N  N65  1  0.44244268  0.76511449  0.10641942  1
  N  N66  1  0.22029078  0.87540919  0.86539316  1
  N  N67  1  0.14184691  0.74574328  0.60984068  1
  N  N68  1  0.88888907  0.87222226  0.33691765  1
  N  N69  1  0.77586894  0.75920232  0.10643695  1
  N  N70  1  0.55430190  0.87540805  0.86538844  1
  N  N71  1  0.42977901  0.79044143  0.61100502  1
