# generated using pymatgen
data_GdAl17N18
_symmetry_space_group_name_H-M   'P 1'
_cell_length_a   9.51732964
_cell_length_b   9.51732962
_cell_length_c   10.11271772
_cell_angle_alpha   89.99999980
_cell_angle_beta   89.99999961
_cell_angle_gamma   60.00000165
_symmetry_Int_Tables_number   1
_chemical_formula_structural   GdAl17N18
_chemical_formula_sum   'Gd2 Al34 N36'
_cell_volume   793.28409372
_cell_formula_units_Z   2
loop_
 _symmetry_equiv_pos_site_id
 _symmetry_equiv_pos_as_xyz
  1  'x, y, z'
loop_
 _atom_site_type_symbol
 _atom_site_label
 _atom_site_symmetry_multiplicity
 _atom_site_fract_x
 _atom_site_fract_y
 _atom_site_fract_z
 _atom_site_occupancy
  Al  Al0  1  0.11149670  0.09483003  0.30548975  1
  Al  Al1  1  0.22222223  0.20555556  0.05474717  1
  Al  Al2  1  0.77340381  0.10319239  0.80972118  1
  Al  Al3  1  0.89327861  0.20751882  0.55522708  1
  Al  Al4  1  0.44367326  0.09483003  0.30548975  1
  Al  Al5  1  0.55418743  0.20447179  0.05486832  1
  Al  Al6  1  0.11104713  0.09438046  0.80440935  1
  Al  Al7  1  0.22222222  0.20555556  0.55640806  1
  Al  Al8  1  0.77668101  0.09663797  0.29781352  1
  Al  Al9  1  0.89134080  0.20447180  0.05486832  1
  Al  Al10  1  0.44457240  0.09438046  0.80440935  1
  Al  Al11  1  0.54920254  0.20751883  0.55522708  1
  Al  Al12  1  0.11149669  0.42700660  0.30548975  1
  Al  Al13  1  0.22113845  0.53752076  0.05486832  1
  Al  Al14  1  0.78704289  0.42314522  0.81017718  1
  Al  Al15  1  0.89327861  0.53253587  0.55522707  1
  Al  Al16  1  0.44367364  0.42700698  0.29754744  1
  Al  Al17  1  0.55555556  0.53888890  0.05313646  1
  Al  Al18  1  0.11104712  0.42790574  0.80440935  1
  Al  Al19  1  0.22418550  0.53253587  0.55522708  1
  Al  Al20  1  0.77931936  0.42700698  0.29754743  1
  Al  Al21  1  0.89134079  0.53752077  0.05486832  1
  Al  Al22  1  0.43981188  0.42314521  0.81017718  1
  Al  Al23  1  0.11330464  0.76001435  0.29781352  1
  Al  Al24  1  0.22113846  0.87467413  0.05486832  1
  Al  Al25  1  0.77340380  0.75673714  0.80972118  1
  Al  Al26  1  0.44367365  0.76265269  0.29754743  1
  Al  Al27  1  0.55418744  0.87467413  0.05486832  1
  Al  Al28  1  0.11985905  0.75673714  0.80972118  1
  Al  Al29  1  0.22418549  0.87661194  0.55522708  1
  Al  Al30  1  0.77668101  0.76001435  0.29781352  1
  Al  Al31  1  0.88888890  0.87222224  0.05274102  1
  Al  Al32  1  0.43981188  0.77037623  0.81017718  1
  Al  Al33  1  0.54920254  0.87661195  0.55522707  1
  Gd  Gd34  1  0.55555555  0.53888889  0.56429939  1
  Gd  Gd35  1  0.88888889  0.87222222  0.56243202  1
  N  N36  1  0.22222222  0.20555556  0.36551901  1
  N  N37  1  0.11170952  0.09504286  0.11577674  1
  N  N38  1  0.89251266  0.20335685  0.86805144  1
  N  N39  1  0.76016190  0.12967616  0.62227111  1
  N  N40  1  0.55580180  0.20604288  0.36242959  1
  N  N41  1  0.44324763  0.09504285  0.11577674  1
  N  N42  1  0.22222222  0.20555556  0.86301106  1
  N  N43  1  0.11063742  0.09397075  0.61316968  1
  N  N44  1  0.88815532  0.20604289  0.36242960  1
  N  N45  1  0.77693879  0.09612242  0.10862303  1
  N  N46  1  0.55413050  0.20335685  0.86805144  1
  N  N47  1  0.44539182  0.09397075  0.61316969  1
  N  N48  1  0.22270954  0.53913513  0.36242959  1
  N  N49  1  0.11170952  0.42658096  0.11577674  1
  N  N50  1  0.89251266  0.53746382  0.86805144  1
  N  N51  1  0.81130714  0.41101308  0.62538075  1
  N  N52  1  0.55555555  0.53888888  0.34058557  1
  N  N53  1  0.44348938  0.42682272  0.10859248  1
  N  N54  1  0.22002352  0.53746383  0.86805144  1
  N  N55  1  0.11063741  0.42872515  0.61316968  1
  N  N56  1  0.88815532  0.53913514  0.36242959  1
  N  N57  1  0.77968791  0.42682272  0.10859248  1
  N  N58  1  0.55555556  0.53888889  0.85650488  1
  N  N59  1  0.42767976  0.41101309  0.62538075  1
  N  N60  1  0.22270956  0.87148866  0.36242960  1
  N  N61  1  0.11278909  0.76027213  0.10862303  1
  N  N62  1  0.88888889  0.87222223  0.85482556  1
  N  N63  1  0.76016191  0.74349525  0.62227111  1
  N  N64  1  0.55580180  0.87148865  0.36242959  1
  N  N65  1  0.44348939  0.76302124  0.10859248  1
  N  N66  1  0.22002352  0.87584599  0.86805144  1
  N  N67  1  0.14634283  0.74349523  0.62227111  1
  N  N68  1  0.88888889  0.87222222  0.34043002  1
  N  N69  1  0.77693880  0.76027214  0.10862302  1
  N  N70  1  0.55413049  0.87584599  0.86805144  1
  N  N71  1  0.42767975  0.79464048  0.62538075  1
