# generated using pymatgen
data_GdAl17N18
_symmetry_space_group_name_H-M   'P 1'
_cell_length_a   9.90629158
_cell_length_b   9.90629064
_cell_length_c   9.01985516
_cell_angle_alpha   89.99998966
_cell_angle_beta   89.99998495
_cell_angle_gamma   60.00000840
_symmetry_Int_Tables_number   1
_chemical_formula_structural   GdAl17N18
_chemical_formula_sum   'Gd2 Al34 N36'
_cell_volume   766.57103344
_cell_formula_units_Z   2
loop_
 _symmetry_equiv_pos_site_id
 _symmetry_equiv_pos_as_xyz
  1  'x, y, z'
loop_
 _atom_site_type_symbol
 _atom_site_label
 _atom_site_symmetry_multiplicity
 _atom_site_fract_x
 _atom_site_fract_y
 _atom_site_fract_z
 _atom_site_occupancy
  Al  Al0  1  0.11022681  0.09356008  0.37378609  1
  Al  Al1  1  0.22222231  0.20555565  0.12698258  1
  Al  Al2  1  0.77555573  0.09888872  0.88020150  1
  Al  Al3  1  0.89253070  0.20681827  0.62484713  1
  Al  Al4  1  0.44621304  0.09356017  0.37378684  1
  Al  Al5  1  0.55271342  0.20383952  0.11900599  1
  Al  Al6  1  0.11289053  0.09622402  0.87101199  1
  Al  Al7  1  0.22222219  0.20555546  0.61631768  1
  Al  Al8  1  0.77340639  0.10318703  0.35853442  1
  Al  Al9  1  0.89344691  0.20383960  0.11900620  1
  Al  Al10  1  0.44088565  0.09622382  0.87101149  1
  Al  Al11  1  0.55065124  0.20681836  0.62484728  1
  Al  Al12  1  0.11022682  0.42954648  0.37378691  1
  Al  Al13  1  0.22050613  0.53604683  0.11900554  1
  Al  Al14  1  0.78144928  0.42594209  0.88129427  1
  Al  Al15  1  0.89253041  0.53398462  0.62484747  1
  Al  Al16  1  0.43930643  0.42264002  0.36049457  1
  Al  Al17  1  0.55555552  0.53888902  0.11470578  1
  Al  Al18  1  0.11289051  0.42421879  0.87101150  1
  Al  Al19  1  0.22348492  0.53398453  0.62484738  1
  Al  Al20  1  0.78805384  0.42263974  0.36049491  1
  Al  Al21  1  0.89344719  0.53604662  0.11900641  1
  Al  Al22  1  0.44260881  0.42594191  0.88129387  1
  Al  Al23  1  0.11985317  0.75673999  0.35853387  1
  Al  Al24  1  0.22050638  0.87678012  0.11900556  1
  Al  Al25  1  0.77555573  0.75888900  0.88020243  1
  Al  Al26  1  0.43930649  0.77138676  0.36049500  1
  Al  Al27  1  0.55271321  0.87678043  0.11900623  1
  Al  Al28  1  0.11555539  0.75888903  0.88020061  1
  Al  Al29  1  0.22348476  0.87586410  0.62484701  1
  Al  Al30  1  0.77340634  0.75673968  0.35853447  1
  Al  Al31  1  0.88888891  0.87222228  0.11313997  1
  Al  Al32  1  0.44260883  0.76478271  0.88129329  1
  Al  Al33  1  0.55065145  0.87586366  0.62484724  1
  Gd  Gd34  1  0.55555590  0.53888855  0.60636713  1
  Gd  Gd35  1  0.88888847  0.87222228  0.60630902  1
  N  N36  1  0.22222231  0.20555567  0.34384588  1
  N  N37  1  0.11337060  0.09670404  0.08437828  1
  N  N38  1  0.88929121  0.20559355  0.84333499  1
  N  N39  1  0.76102749  0.12794513  0.58107521  1
  N  N40  1  0.55363945  0.20260610  0.33028760  1
  N  N41  1  0.43992540  0.09670395  0.08437766  1
  N  N42  1  0.22222226  0.20555543  0.83105850  1
  N  N43  1  0.10960741  0.09294077  0.58982201  1
  N  N44  1  0.89375432  0.20260599  0.33028757  1
  N  N45  1  0.77615054  0.09769888  0.09369802  1
  N  N46  1  0.55511556  0.20559338  0.84333504  1
  N  N47  1  0.44745201  0.09294064  0.58982264  1
  N  N48  1  0.21927257  0.53697306  0.33028752  1
  N  N49  1  0.11337059  0.42325868  0.08437763  1
  N  N50  1  0.88929094  0.53844901  0.84333494  1
  N  N51  1  0.80989570  0.41171885  0.57866512  1
  N  N52  1  0.55555562  0.53888896  0.33571523  1
  N  N53  1  0.44270614  0.42603940  0.09401864  1
  N  N54  1  0.22226026  0.53844851  0.84333535  1
  N  N55  1  0.10960734  0.43078525  0.58982275  1
  N  N56  1  0.89375465  0.53697268  0.33028753  1
  N  N57  1  0.78125452  0.42603945  0.09401871  1
  N  N58  1  0.55555570  0.53888879  0.86498855  1
  N  N59  1  0.42838564  0.41171896  0.57866555  1
  N  N60  1  0.21927279  0.87708741  0.33028763  1
  N  N61  1  0.11436540  0.75948396  0.09369775  1
  N  N62  1  0.88888873  0.87222224  0.86433295  1
  N  N63  1  0.76102741  0.74436058  0.58107413  1
  N  N64  1  0.55363918  0.87708783  0.33028768  1
  N  N65  1  0.44270616  0.76458782  0.09401817  1
  N  N66  1  0.22226007  0.87262484  0.84333526  1
  N  N67  1  0.14461116  0.74436106  0.58107637  1
  N  N68  1  0.88888874  0.87222234  0.33603038  1
  N  N69  1  0.77615053  0.75948388  0.09369856  1
  N  N70  1  0.55511592  0.87262440  0.84333489  1
  N  N71  1  0.42838579  0.79322849  0.57866617  1
