# generated using pymatgen
data_GdAl17N18
_symmetry_space_group_name_H-M   'P 1'
_cell_length_a   9.61487650
_cell_length_b   9.61487696
_cell_length_c   9.85760697
_cell_angle_alpha   89.99999759
_cell_angle_beta   89.99999503
_cell_angle_gamma   59.99999569
_symmetry_Int_Tables_number   1
_chemical_formula_structural   GdAl17N18
_chemical_formula_sum   'Gd2 Al34 N36'
_cell_volume   789.20449970
_cell_formula_units_Z   2
loop_
 _symmetry_equiv_pos_site_id
 _symmetry_equiv_pos_as_xyz
  1  'x, y, z'
loop_
 _atom_site_type_symbol
 _atom_site_label
 _atom_site_symmetry_multiplicity
 _atom_site_fract_x
 _atom_site_fract_y
 _atom_site_fract_z
 _atom_site_occupancy
  Al  Al0  1  0.11081959  0.09415291  0.38325842  1
  Al  Al1  1  0.22222223  0.20555556  0.13353850  1
  Al  Al2  1  0.77693423  0.09613162  0.88829673  1
  Al  Al3  1  0.89304830  0.20754039  0.63299934  1
  Al  Al4  1  0.44502745  0.09415293  0.38325842  1
  Al  Al5  1  0.55391597  0.20420369  0.13076342  1
  Al  Al6  1  0.11189084  0.09522414  0.88126666  1
  Al  Al7  1  0.22222218  0.20555558  0.62964036  1
  Al  Al8  1  0.77265626  0.10468751  0.37581880  1
  Al  Al9  1  0.89188033  0.20420372  0.13076344  1
  Al  Al10  1  0.44288503  0.09522414  0.88126665  1
  Al  Al11  1  0.54941128  0.20754055  0.63299929  1
  Al  Al12  1  0.11081960  0.42836081  0.38325846  1
  Al  Al13  1  0.22087034  0.53724930  0.13076343  1
  Al  Al14  1  0.77877089  0.42728123  0.88900395  1
  Al  Al15  1  0.89304830  0.53274463  0.63299934  1
  Al  Al16  1  0.43889397  0.42222741  0.37576580  1
  Al  Al17  1  0.55555556  0.53888891  0.13356172  1
  Al  Al18  1  0.11189082  0.42621837  0.88126662  1
  Al  Al19  1  0.22420690  0.53274479  0.63299937  1
  Al  Al20  1  0.78887860  0.42222737  0.37576583  1
  Al  Al21  1  0.89188036  0.53724928  0.13076345  1
  Al  Al22  1  0.44394786  0.42728125  0.88900397  1
  Al  Al23  1  0.12135416  0.75598959  0.37581885  1
  Al  Al24  1  0.22087038  0.87521365  0.13076344  1
  Al  Al25  1  0.77693423  0.76026749  0.88829676  1
  Al  Al26  1  0.43889397  0.77221194  0.37576584  1
  Al  Al27  1  0.55391597  0.87521366  0.13076343  1
  Al  Al28  1  0.11279832  0.76026751  0.88829669  1
  Al  Al29  1  0.22420690  0.87638163  0.63299936  1
  Al  Al30  1  0.77265625  0.75598954  0.37581877  1
  Al  Al31  1  0.88888892  0.87222223  0.13342937  1
  Al  Al32  1  0.44394787  0.76210421  0.88900395  1
  Al  Al33  1  0.54941128  0.87638149  0.63299929  1
  Gd  Gd34  1  0.55555550  0.53888889  0.61641642  1
  Gd  Gd35  1  0.88888893  0.87222216  0.61751963  1
  N  N36  1  0.22222225  0.20555554  0.32927745  1
  N  N37  1  0.11221194  0.09554527  0.07465774  1
  N  N38  1  0.88837552  0.20600945  0.82945076  1
  N  N39  1  0.75938035  0.13123923  0.56846974  1
  N  N40  1  0.55385134  0.20298449  0.32162669  1
  N  N41  1  0.44224285  0.09554524  0.07465770  1
  N  N42  1  0.22222227  0.20555553  0.82422658  1
  N  N43  1  0.11020208  0.09353543  0.57823706  1
  N  N44  1  0.89316410  0.20298453  0.32162667  1
  N  N45  1  0.77713050  0.09573900  0.08183275  1
  N  N46  1  0.55561506  0.20600941  0.82945074  1
  N  N47  1  0.44626260  0.09353536  0.57823709  1
  N  N48  1  0.21965115  0.53718468  0.32162664  1
  N  N49  1  0.11221195  0.42557611  0.07465771  1
  N  N50  1  0.88837550  0.53894839  0.82945076  1
  N  N51  1  0.81282128  0.41025600  0.56561613  1
  N  N52  1  0.55555556  0.53888890  0.33506941  1
  N  N53  1  0.44363802  0.42697129  0.08221148  1
  N  N54  1  0.22267613  0.53894834  0.82945077  1
  N  N55  1  0.11020207  0.42959584  0.57823710  1
  N  N56  1  0.89316413  0.53718466  0.32162667  1
  N  N57  1  0.77939070  0.42697133  0.08221146  1
  N  N58  1  0.55555557  0.53888888  0.84738899  1
  N  N59  1  0.42692288  0.41025581  0.56561611  1
  N  N60  1  0.21965118  0.87649748  0.32162664  1
  N  N61  1  0.11240566  0.76046384  0.08183275  1
  N  N62  1  0.88888885  0.87222225  0.84682630  1
  N  N63  1  0.75938034  0.74271373  0.56846969  1
  N  N64  1  0.55385131  0.87649750  0.32162669  1
  N  N65  1  0.44363803  0.76272403  0.08221145  1
  N  N66  1  0.22267613  0.87170888  0.82945077  1
  N  N67  1  0.14790574  0.74271380  0.56846978  1
  N  N68  1  0.88888884  0.87222226  0.33637725  1
  N  N69  1  0.77713052  0.76046385  0.08183278  1
  N  N70  1  0.55561508  0.87170886  0.82945074  1
  N  N71  1  0.42692286  0.79615463  0.56561615  1
