# generated using pymatgen
data_GdAl17N18
_symmetry_space_group_name_H-M   'P 1'
_cell_length_a   9.69199792
_cell_length_b   9.69199129
_cell_length_c   9.64476610
_cell_angle_alpha   89.99999728
_cell_angle_beta   90.00001092
_cell_angle_gamma   60.00000889
_symmetry_Int_Tables_number   1
_chemical_formula_structural   GdAl17N18
_chemical_formula_sum   'Gd2 Al34 N36'
_cell_volume   784.60071157
_cell_formula_units_Z   2
loop_
 _symmetry_equiv_pos_site_id
 _symmetry_equiv_pos_as_xyz
  1  'x, y, z'
loop_
 _atom_site_type_symbol
 _atom_site_label
 _atom_site_symmetry_multiplicity
 _atom_site_fract_x
 _atom_site_fract_y
 _atom_site_fract_z
 _atom_site_occupancy
  Al  Al0  1  0.11063404  0.09396695  0.38195535  1
  Al  Al1  1  0.22222190  0.20555573  0.13273413  1
  Al  Al2  1  0.77665561  0.09668970  0.88689703  1
  Al  Al3  1  0.89271090  0.20750263  0.63172852  1
  Al  Al4  1  0.44539830  0.09396752  0.38195487  1
  Al  Al5  1  0.55350619  0.20399592  0.12846610  1
  Al  Al6  1  0.11219023  0.09552320  0.87909456  1
  Al  Al7  1  0.22222114  0.20555601  0.62686745  1
  Al  Al8  1  0.77269612  0.10460869  0.37241378  1
  Al  Al9  1  0.89249829  0.20399565  0.12846640  1
  Al  Al10  1  0.44228580  0.09552378  0.87909488  1
  Al  Al11  1  0.54978585  0.20750561  0.63172777  1
  Al  Al12  1  0.11063406  0.42873229  0.38195542  1
  Al  Al13  1  0.22066216  0.53683983  0.12846640  1
  Al  Al14  1  0.77924920  0.42704204  0.88774428  1
  Al  Al15  1  0.89271069  0.53311970  0.63172849  1
  Al  Al16  1  0.43877399  0.42210890  0.37273889  1
  Al  Al17  1  0.55555550  0.53888895  0.12953688  1
  Al  Al18  1  0.11219024  0.42561988  0.87909448  1
  Al  Al19  1  0.22416656  0.53312254  0.63172901  1
  Al  Al20  1  0.78911731  0.42210797  0.37273904  1
  Al  Al21  1  0.89249835  0.53683934  0.12846638  1
  Al  Al22  1  0.44370825  0.42704272  0.88774450  1
  Al  Al23  1  0.12127560  0.75602891  0.37241438  1
  Al  Al24  1  0.22066224  0.87583127  0.12846644  1
  Al  Al25  1  0.77665559  0.75998811  0.88689719  1
  Al  Al26  1  0.43877395  0.77245042  0.37273903  1
  Al  Al27  1  0.55350612  0.87583121  0.12846612  1
  Al  Al28  1  0.11335680  0.75998833  0.88689671  1
  Al  Al29  1  0.22416620  0.87604450  0.63172909  1
  Al  Al30  1  0.77269607  0.75602855  0.37241362  1
  Al  Al31  1  0.88888937  0.87222204  0.12893067  1
  Al  Al32  1  0.44370820  0.76258238  0.88774438  1
  Al  Al33  1  0.54978557  0.87604176  0.63172769  1
  Gd  Gd34  1  0.55555557  0.53888877  0.61313735  1
  Gd  Gd35  1  0.88889075  0.87222135  0.61394717  1
  N  N36  1  0.22222285  0.20555530  0.33252829  1
  N  N37  1  0.11257869  0.09591235  0.07630072  1
  N  N38  1  0.88846220  0.20600297  0.83223593  1
  N  N39  1  0.75959105  0.13081639  0.57046887  1
  N  N40  1  0.55368200  0.20272763  0.32317180  1
  N  N41  1  0.44150953  0.09591190  0.07630045  1
  N  N42  1  0.22222290  0.20555524  0.82522227  1
  N  N43  1  0.10995292  0.09328593  0.58077484  1
  N  N44  1  0.89358966  0.20272802  0.32317141  1
  N  N45  1  0.77685433  0.09629055  0.08425993  1
  N  N46  1  0.55553476  0.20600246  0.83223570  1
  N  N47  1  0.44676187  0.09328573  0.58077487  1
  N  N48  1  0.21939489  0.53701490  0.32317116  1
  N  N49  1  0.11257867  0.42484233  0.07630058  1
  N  N50  1  0.88846215  0.53886829  0.83223590  1
  N  N51  1  0.81249628  0.41041871  0.56787171  1
  N  N52  1  0.55555586  0.53888876  0.33564876  1
  N  N53  1  0.44336597  0.42669839  0.08473668  1
  N  N54  1  0.22266997  0.53886747  0.83223593  1
  N  N55  1  0.10995284  0.43009459  0.58077498  1
  N  N56  1  0.89358974  0.53701559  0.32317147  1
  N  N57  1  0.77993549  0.42669896  0.08473668  1
  N  N58  1  0.55555579  0.53888877  0.85087838  1
  N  N59  1  0.42708917  0.41041432  0.56787181  1
  N  N60  1  0.21939498  0.87692342  0.32317114  1
  N  N61  1  0.11295674  0.76018828  0.08425994  1
  N  N62  1  0.88888819  0.87222253  0.85015182  1
  N  N63  1  0.75959104  0.74292575  0.57046871  1
  N  N64  1  0.55368197  0.87692365  0.32317186  1
  N  N65  1  0.44336602  0.76326898  0.08473656  1
  N  N66  1  0.22266998  0.87179590  0.83223594  1
  N  N67  1  0.14748150  0.74292586  0.57046927  1
  N  N68  1  0.88888821  0.87222255  0.33662708  1
  N  N69  1  0.77685435  0.76018845  0.08426003  1
  N  N70  1  0.55553487  0.87179608  0.83223569  1
  N  N71  1  0.42708975  0.79582973  0.56787196  1
