# generated using pymatgen
data_GdAl17N18
_symmetry_space_group_name_H-M   'P 1'
_cell_length_a   9.51746522
_cell_length_b   9.51746519
_cell_length_c   10.11238793
_cell_angle_alpha   89.99999984
_cell_angle_beta   89.99999962
_cell_angle_gamma   60.00000179
_symmetry_Int_Tables_number   1
_chemical_formula_structural   GdAl17N18
_chemical_formula_sum   'Gd2 Al34 N36'
_cell_volume   793.28082492
_cell_formula_units_Z   2
loop_
 _symmetry_equiv_pos_site_id
 _symmetry_equiv_pos_as_xyz
  1  'x, y, z'
loop_
 _atom_site_type_symbol
 _atom_site_label
 _atom_site_symmetry_multiplicity
 _atom_site_fract_x
 _atom_site_fract_y
 _atom_site_fract_z
 _atom_site_occupancy
  Al  Al0  1  0.11149802  0.09483135  0.31652327  1
  Al  Al1  1  0.22222223  0.20555556  0.06577929  1
  Al  Al2  1  0.77339692  0.10320617  0.82075784  1
  Al  Al3  1  0.89328008  0.20751951  0.56625696  1
  Al  Al4  1  0.44367062  0.09483135  0.31652327  1
  Al  Al5  1  0.55418918  0.20447131  0.06591348  1
  Al  Al6  1  0.11104611  0.09437944  0.81544606  1
  Al  Al7  1  0.22222222  0.20555556  0.56744431  1
  Al  Al8  1  0.77668568  0.09662865  0.30885974  1
  Al  Al9  1  0.89133952  0.20447132  0.06591348  1
  Al  Al10  1  0.44457444  0.09437944  0.81544606  1
  Al  Al11  1  0.54920037  0.20751952  0.56625696  1
  Al  Al12  1  0.11149802  0.42700395  0.31652327  1
  Al  Al13  1  0.22113798  0.53752251  0.06591348  1
  Al  Al14  1  0.78705582  0.42313876  0.82121673  1
  Al  Al15  1  0.89328009  0.53253370  0.56625696  1
  Al  Al16  1  0.44367807  0.42701140  0.30859172  1
  Al  Al17  1  0.55555556  0.53888890  0.06416064  1
  Al  Al18  1  0.11104610  0.42790778  0.81544606  1
  Al  Al19  1  0.22418619  0.53253370  0.56625696  1
  Al  Al20  1  0.77931050  0.42701141  0.30859172  1
  Al  Al21  1  0.89133952  0.53752252  0.06591348  1
  Al  Al22  1  0.43980542  0.42313875  0.82121673  1
  Al  Al23  1  0.11329532  0.76001901  0.30885974  1
  Al  Al24  1  0.22113798  0.87467286  0.06591348  1
  Al  Al25  1  0.77339691  0.75673024  0.82075784  1
  Al  Al26  1  0.44367808  0.76264384  0.30859172  1
  Al  Al27  1  0.55418919  0.87467286  0.06591348  1
  Al  Al28  1  0.11987284  0.75673025  0.82075784  1
  Al  Al29  1  0.22418618  0.87661342  0.56625696  1
  Al  Al30  1  0.77668568  0.76001901  0.30885974  1
  Al  Al31  1  0.88888890  0.87222224  0.06376193  1
  Al  Al32  1  0.43980542  0.77038915  0.82121673  1
  Al  Al33  1  0.54920037  0.87661343  0.56625696  1
  Gd  Gd34  1  0.55555556  0.53888889  0.57537766  1
  Gd  Gd35  1  0.88888888  0.87222221  0.57351292  1
  N  N36  1  0.22222223  0.20555556  0.37655104  1
  N  N37  1  0.11171107  0.09504440  0.12680776  1
  N  N38  1  0.89251400  0.20335582  0.87909096  1
  N  N39  1  0.76015312  0.12969373  0.63330233  1
  N  N40  1  0.55580039  0.20604255  0.37345675  1
  N  N41  1  0.44324454  0.09504440  0.12680776  1
  N  N42  1  0.22222222  0.20555556  0.87403847  1
  N  N43  1  0.11063569  0.09396903  0.62420052  1
  N  N44  1  0.88815706  0.20604257  0.37345675  1
  N  N45  1  0.77694357  0.09611287  0.11966040  1
  N  N46  1  0.55413019  0.20335581  0.87909096  1
  N  N47  1  0.44539527  0.09396902  0.62420053  1
  N  N48  1  0.22270922  0.53913372  0.37345675  1
  N  N49  1  0.11171107  0.42657787  0.12680776  1
  N  N50  1  0.89251399  0.53746352  0.87909096  1
  N  N51  1  0.81132269  0.41100531  0.63641528  1
  N  N52  1  0.55555555  0.53888888  0.35165307  1
  N  N53  1  0.44349342  0.42682676  0.11962850  1
  N  N54  1  0.22002248  0.53746352  0.87909096  1
  N  N55  1  0.11063569  0.42872860  0.62420052  1
  N  N56  1  0.88815705  0.53913372  0.37345675  1
  N  N57  1  0.77967982  0.42682676  0.11962850  1
  N  N58  1  0.55555556  0.53888889  0.86752185  1
  N  N59  1  0.42767199  0.41100532  0.63641528  1
  N  N60  1  0.22270923  0.87149039  0.37345675  1
  N  N61  1  0.11277953  0.76027691  0.11966040  1
  N  N62  1  0.88888889  0.87222223  0.86583766  1
  N  N63  1  0.76015312  0.74348646  0.63330233  1
  N  N64  1  0.55580039  0.87149039  0.37345675  1
  N  N65  1  0.44349343  0.76301316  0.11962850  1
  N  N66  1  0.22002249  0.87584733  0.87909096  1
  N  N67  1  0.14636040  0.74348645  0.63330233  1
  N  N68  1  0.88888889  0.87222222  0.35150139  1
  N  N69  1  0.77694358  0.76027691  0.11966040  1
  N  N70  1  0.55413018  0.87584733  0.87909096  1
  N  N71  1  0.42767197  0.79465603  0.63641528  1
