# generated using pymatgen
data_GdAl17N18
_symmetry_space_group_name_H-M   'P 1'
_cell_length_a   9.51730402
_cell_length_b   9.51730401
_cell_length_c   10.11278766
_cell_angle_alpha   89.99999977
_cell_angle_beta   89.99999964
_cell_angle_gamma   60.00000160
_symmetry_Int_Tables_number   1
_chemical_formula_structural   GdAl17N18
_chemical_formula_sum   'Gd2 Al34 N36'
_cell_volume   793.28530922
_cell_formula_units_Z   2
loop_
 _symmetry_equiv_pos_site_id
 _symmetry_equiv_pos_as_xyz
  1  'x, y, z'
loop_
 _atom_site_type_symbol
 _atom_site_label
 _atom_site_symmetry_multiplicity
 _atom_site_fract_x
 _atom_site_fract_y
 _atom_site_fract_z
 _atom_site_occupancy
  Al  Al0  1  0.11149593  0.09482926  0.30070750  1
  Al  Al1  1  0.22222223  0.20555556  0.04996878  1
  Al  Al2  1  0.77340550  0.10318900  0.80493803  1
  Al  Al3  1  0.89327841  0.20751890  0.55044802  1
  Al  Al4  1  0.44367481  0.09482925  0.30070749  1
  Al  Al5  1  0.55418725  0.20447170  0.05008306  1
  Al  Al6  1  0.11104784  0.09438118  0.79962914  1
  Al  Al7  1  0.22222222  0.20555556  0.55162312  1
  Al  Al8  1  0.77667988  0.09664023  0.29302711  1
  Al  Al9  1  0.89134106  0.20447171  0.05008307  1
  Al  Al10  1  0.44457098  0.09438117  0.79962915  1
  Al  Al11  1  0.54920266  0.20751890  0.55044802  1
  Al  Al12  1  0.11149592  0.42700814  0.30070750  1
  Al  Al13  1  0.22113837  0.53752058  0.05008306  1
  Al  Al14  1  0.78703945  0.42314694  0.80539648  1
  Al  Al15  1  0.89327842  0.53253599  0.55044801  1
  Al  Al16  1  0.44367243  0.42700576  0.29276248  1
  Al  Al17  1  0.55555556  0.53888890  0.04835774  1
  Al  Al18  1  0.11104784  0.42790431  0.79962915  1
  Al  Al19  1  0.22418557  0.53253599  0.55044802  1
  Al  Al20  1  0.77932179  0.42700577  0.29276248  1
  Al  Al21  1  0.89134106  0.53752059  0.05008307  1
  Al  Al22  1  0.43981360  0.42314693  0.80539648  1
  Al  Al23  1  0.11330690  0.76001322  0.29302711  1
  Al  Al24  1  0.22113838  0.87467440  0.05008307  1
  Al  Al25  1  0.77340549  0.75673883  0.80493803  1
  Al  Al26  1  0.44367244  0.76265512  0.29276248  1
  Al  Al27  1  0.55418726  0.87467439  0.05008307  1
  Al  Al28  1  0.11985567  0.75673883  0.80493803  1
  Al  Al29  1  0.22418556  0.87661175  0.55044802  1
  Al  Al30  1  0.77667989  0.76001322  0.29302712  1
  Al  Al31  1  0.88888890  0.87222224  0.04795948  1
  Al  Al32  1  0.43981361  0.77037279  0.80539648  1
  Al  Al33  1  0.54920266  0.87661176  0.55044801  1
  Gd  Gd34  1  0.55555555  0.53888889  0.55950653  1
  Gd  Gd35  1  0.88888889  0.87222222  0.55763719  1
  N  N36  1  0.22222222  0.20555556  0.36073536  1
  N  N37  1  0.11170880  0.09504213  0.11099518  1
  N  N38  1  0.89251237  0.20335677  0.86326793  1
  N  N39  1  0.76016419  0.12967158  0.61748941  1
  N  N40  1  0.55580223  0.20604299  0.35764936  1
  N  N41  1  0.44324908  0.09504213  0.11099518  1
  N  N42  1  0.22222222  0.20555556  0.85823339  1
  N  N43  1  0.11063827  0.09397161  0.60838942  1
  N  N44  1  0.88815478  0.20604300  0.35764936  1
  N  N45  1  0.77693776  0.09612449  0.10383860  1
  N  N46  1  0.55413088  0.20335676  0.86326793  1
  N  N47  1  0.44539010  0.09397160  0.60838943  1
  N  N48  1  0.22270966  0.53913556  0.35764936  1
  N  N49  1  0.11170880  0.42658241  0.11099518  1
  N  N50  1  0.89251236  0.53746420  0.86326793  1
  N  N51  1  0.81130268  0.41101531  0.62060034  1
  N  N52  1  0.55555555  0.53888888  0.33579417  1
  N  N53  1  0.44348823  0.42682156  0.10380913  1
  N  N54  1  0.22002343  0.53746421  0.86326793  1
  N  N55  1  0.11063827  0.42872344  0.60838943  1
  N  N56  1  0.88815477  0.53913557  0.35764936  1
  N  N57  1  0.77969022  0.42682157  0.10380913  1
  N  N58  1  0.55555556  0.53888889  0.85172810  1
  N  N59  1  0.42768199  0.41101532  0.62060035  1
  N  N60  1  0.22270967  0.87148811  0.35764936  1
  N  N61  1  0.11279115  0.76027110  0.10383860  1
  N  N62  1  0.88888890  0.87222223  0.85004689  1
  N  N63  1  0.76016421  0.74349754  0.61748941  1
  N  N64  1  0.55580223  0.87148811  0.35764935  1
  N  N65  1  0.44348823  0.76302355  0.10380913  1
  N  N66  1  0.22002343  0.87584570  0.86326793  1
  N  N67  1  0.14633825  0.74349753  0.61748941  1
  N  N68  1  0.88888889  0.87222222  0.33563714  1
  N  N69  1  0.77693777  0.76027110  0.10383860  1
  N  N70  1  0.55413087  0.87584570  0.86326793  1
  N  N71  1  0.42768198  0.79463602  0.62060034  1
