# generated using pymatgen
data_GdAl17N18
_symmetry_space_group_name_H-M   'P 1'
_cell_length_a   9.98602523
_cell_length_b   9.98602498
_cell_length_c   8.78177099
_cell_angle_alpha   89.99998391
_cell_angle_beta   89.99997443
_cell_angle_gamma   60.00000652
_symmetry_Int_Tables_number   1
_chemical_formula_structural   GdAl17N18
_chemical_formula_sum   'Gd2 Al34 N36'
_cell_volume   758.39956384
_cell_formula_units_Z   2
loop_
 _symmetry_equiv_pos_site_id
 _symmetry_equiv_pos_as_xyz
  1  'x, y, z'
loop_
 _atom_site_type_symbol
 _atom_site_label
 _atom_site_symmetry_multiplicity
 _atom_site_fract_x
 _atom_site_fract_y
 _atom_site_fract_z
 _atom_site_occupancy
  Al  Al0  1  0.11046741  0.09380094  0.36704317  1
  Al  Al1  1  0.22222232  0.20555570  0.12119583  1
  Al  Al2  1  0.77516970  0.09966080  0.87478535  1
  Al  Al3  1  0.89305449  0.20622312  0.61920790  1
  Al  Al4  1  0.44573161  0.09380086  0.36704475  1
  Al  Al5  1  0.55281728  0.20405847  0.11359174  1
  Al  Al6  1  0.11275641  0.09608988  0.86678049  1
  Al  Al7  1  0.22222217  0.20555544  0.61188199  1
  Al  Al8  1  0.77376849  0.10246274  0.35182063  1
  Al  Al9  1  0.89312401  0.20405859  0.11359235  1
  Al  Al10  1  0.44115395  0.09608968  0.86678035  1
  Al  Al11  1  0.55072277  0.20622291  0.61920802  1
  Al  Al12  1  0.11046732  0.42906516  0.36704491  1
  Al  Al13  1  0.22072509  0.53615064  0.11359060  1
  Al  Al14  1  0.78248551  0.42542397  0.87582122  1
  Al  Al15  1  0.89305415  0.53405610  0.61920948  1
  Al  Al16  1  0.43981007  0.42314363  0.35435721  1
  Al  Al17  1  0.55555548  0.53888906  0.10985007  1
  Al  Al18  1  0.11275645  0.42448695  0.86678037  1
  Al  Al19  1  0.22288960  0.53405581  0.61920738  1
  Al  Al20  1  0.78704715  0.42314316  0.35435882  1
  Al  Al21  1  0.89312439  0.53615051  0.11359312  1
  Al  Al22  1  0.44209061  0.42542359  0.87581919  1
  Al  Al23  1  0.11912827  0.75710235  0.35181802  1
  Al  Al24  1  0.22072540  0.87645725  0.11359034  1
  Al  Al25  1  0.77516982  0.75850311  0.87478758  1
  Al  Al26  1  0.43981027  0.77037936  0.35435730  1
  Al  Al27  1  0.55281711  0.87645760  0.11359225  1
  Al  Al28  1  0.11632775  0.75850287  0.87478255  1
  Al  Al29  1  0.22288939  0.87638815  0.61920605  1
  Al  Al30  1  0.77376833  0.75710158  0.35182199  1
  Al  Al31  1  0.88888886  0.87222229  0.10844737  1
  Al  Al32  1  0.44209057  0.76581932  0.87581808  1
  Al  Al33  1  0.55072314  0.87638753  0.61920827  1
  Gd  Gd34  1  0.55555613  0.53888841  0.60481328  1
  Gd  Gd35  1  0.88888834  0.87222233  0.60449808  1
  N  N36  1  0.22222231  0.20555577  0.34847122  1
  N  N37  1  0.11332126  0.09665484  0.09059081  1
  N  N38  1  0.89009738  0.20511208  0.84946895  1
  N  N39  1  0.76178048  0.12643929  0.58927192  1
  N  N40  1  0.55396593  0.20298810  0.33558819  1
  N  N41  1  0.44002396  0.09665465  0.09058960  1
  N  N42  1  0.22222228  0.20555538  0.83682921  1
  N  N43  1  0.10984174  0.09317538  0.59439698  1
  N  N44  1  0.89304577  0.20298783  0.33558793  1
  N  N45  1  0.77601630  0.09796737  0.09796178  1
  N  N46  1  0.55479110  0.20511153  0.84946927  1
  N  N47  1  0.44698320  0.09317503  0.59439760  1
  N  N48  1  0.21965443  0.53729980  0.33558864  1
  N  N49  1  0.11332122  0.42335725  0.09058952  1
  N  N50  1  0.89009694  0.53812463  0.84946846  1
  N  N51  1  0.80841582  0.41245889  0.58676881  1
  N  N52  1  0.55555564  0.53888898  0.33547421  1
  N  N53  1  0.44258381  0.42591704  0.09815768  1
  N  N54  1  0.22177862  0.53812362  0.84947012  1
  N  N55  1  0.10984160  0.43031641  0.59439781  1
  N  N56  1  0.89304633  0.53729915  0.33558736  1
  N  N57  1  0.78149925  0.42591712  0.09815761  1
  N  N58  1  0.55555577  0.53888873  0.86937026  1
  N  N59  1  0.42912580  0.41245905  0.58677140  1
  N  N60  1  0.21965477  0.87637862  0.33558910  1
  N  N61  1  0.11463383  0.75934972  0.09796171  1
  N  N62  1  0.88888864  0.87222224  0.86872252  1
  N  N63  1  0.76178041  0.74511333  0.58926896  1
  N  N64  1  0.55396549  0.87637940  0.33558808  1
  N  N65  1  0.44258387  0.76483251  0.09815711  1
  N  N66  1  0.22177830  0.87343146  0.84947024  1
  N  N67  1  0.14310502  0.74511408  0.58927596  1
  N  N68  1  0.88888870  0.87222237  0.33562040  1
  N  N69  1  0.77601629  0.75934960  0.09796235  1
  N  N70  1  0.55479181  0.87343063  0.84946889  1
  N  N71  1  0.42912608  0.79174819  0.58677269  1
