# generated using pymatgen
data_GdAl17N18
_symmetry_space_group_name_H-M   'P 1'
_cell_length_a   10.01884446
_cell_length_b   10.01884481
_cell_length_c   8.68388881
_cell_angle_alpha   89.99998056
_cell_angle_beta   89.99997119
_cell_angle_gamma   60.00001259
_symmetry_Int_Tables_number   1
_chemical_formula_structural   GdAl17N18
_chemical_formula_sum   'Gd2 Al34 N36'
_cell_volume   754.88400758
_cell_formula_units_Z   2
loop_
 _symmetry_equiv_pos_site_id
 _symmetry_equiv_pos_as_xyz
  1  'x, y, z'
loop_
 _atom_site_type_symbol
 _atom_site_label
 _atom_site_symmetry_multiplicity
 _atom_site_fract_x
 _atom_site_fract_y
 _atom_site_fract_z
 _atom_site_occupancy
  Al  Al0  1  0.11247553  0.09580895  0.34437233  1
  Al  Al1  1  0.22222207  0.20555534  0.09180495  1
  Al  Al2  1  0.77393728  0.10212559  0.85946734  1
  Al  Al3  1  0.89334759  0.20592029  0.59317497  1
  Al  Al4  1  0.44171522  0.09580901  0.34437306  1
  Al  Al5  1  0.55295180  0.20420962  0.09767009  1
  Al  Al6  1  0.11077198  0.09410481  0.84570933  1
  Al  Al7  1  0.22222226  0.20555563  0.59868510  1
  Al  Al8  1  0.77495859  0.10008239  0.33660806  1
  Al  Al9  1  0.89283881  0.20420946  0.09767103  1
  Al  Al10  1  0.44512305  0.09410524  0.84571181  1
  Al  Al11  1  0.55073168  0.20592071  0.59317504  1
  Al  Al12  1  0.11247543  0.42504894  0.34437311  1
  Al  Al13  1  0.22087633  0.53628512  0.09766849  1
  Al  Al14  1  0.78644617  0.42344341  0.85713388  1
  Al  Al15  1  0.89334801  0.53406500  0.59317827  1
  Al  Al16  1  0.44177983  0.42511342  0.33610517  1
  Al  Al17  1  0.55555567  0.53888874  0.10059054  1
  Al  Al18  1  0.11077230  0.42845610  0.84571209  1
  Al  Al19  1  0.22258736  0.53406534  0.59317336  1
  Al  Al20  1  0.78310734  0.42511296  0.33610871  1
  Al  Al21  1  0.89283849  0.53628525  0.09767238  1
  Al  Al22  1  0.44010981  0.42344300  0.85713085  1
  Al  Al23  1  0.11674849  0.75829220  0.33660397  1
  Al  Al24  1  0.22087599  0.87617224  0.09766774  1
  Al  Al25  1  0.77393758  0.75727114  0.85946959  1
  Al  Al26  1  0.44177996  0.76643974  0.33610345  1
  Al  Al27  1  0.55295196  0.87617196  0.09767070  1
  Al  Al28  1  0.11879369  0.75727001  0.85946347  1
  Al  Al29  1  0.22258749  0.87668050  0.59317072  1
  Al  Al30  1  0.77495843  0.75829173  0.33661123  1
  Al  Al31  1  0.88888889  0.87222213  0.10153987  1
  Al  Al32  1  0.44010931  0.76978119  0.85713036  1
  Al  Al33  1  0.55073123  0.87668123  0.59317569  1
  Gd  Gd34  1  0.55555502  0.53888949  0.60406052  1
  Gd  Gd35  1  0.88888948  0.87222213  0.60429966  1
  N  N36  1  0.22222211  0.20555573  0.36754039  1
  N  N37  1  0.11315393  0.09648701  0.11412466  1
  N  N38  1  0.89259890  0.20328002  0.86948972  1
  N  N39  1  0.76212622  0.12574722  0.61483070  1
  N  N40  1  0.55470616  0.20479472  0.35585350  1
  N  N41  1  0.44035885  0.09648727  0.11412285  1
  N  N42  1  0.22222211  0.20555525  0.85789683  1
  N  N43  1  0.11005814  0.09339098  0.61142387  1
  N  N44  1  0.89049914  0.20479391  0.35585293  1
  N  N45  1  0.77594326  0.09811335  0.10846700  1
  N  N46  1  0.55412162  0.20327977  0.86949020  1
  N  N47  1  0.44655041  0.09339156  0.61142410  1
  N  N48  1  0.22146089  0.53804046  0.35585479  1
  N  N49  1  0.11315404  0.42369221  0.11412265  1
  N  N50  1  0.89259827  0.53745517  0.86948838  1
  N  N51  1  0.80770489  0.41281401  0.61677000  1
  N  N52  1  0.55555533  0.53888912  0.33760566  1
  N  N53  1  0.44251376  0.42584715  0.10841111  1
  N  N54  1  0.21994683  0.53745429  0.86949131  1
  N  N55  1  0.11005841  0.42988386  0.61142436  1
  N  N56  1  0.89049970  0.53803933  0.35585189  1
  N  N57  1  0.78163902  0.42584707  0.10841069  1
  N  N58  1  0.55555558  0.53888886  0.87310337  1
  N  N59  1  0.42948054  0.41281402  0.61677472  1
  N  N60  1  0.22146128  0.87383150  0.35585538  1
  N  N61  1  0.11478021  0.75927651  0.10846730  1
  N  N62  1  0.88888910  0.87222210  0.87289375  1
  N  N63  1  0.76212629  0.74546012  0.61482646  1
  N  N64  1  0.55470529  0.87383254  0.35585305  1
  N  N65  1  0.44251366  0.76497244  0.10841054  1
  N  N66  1  0.21994624  0.87593288  0.86949233  1
  N  N67  1  0.14241490  0.74545930  0.61483660  1
  N  N68  1  0.88888912  0.87222221  0.33815478  1
  N  N69  1  0.77594329  0.75927667  0.10846751  1
  N  N70  1  0.55412230  0.87593198  0.86948989  1
  N  N71  1  0.42948005  0.79103933  0.61677694  1
