# generated using pymatgen
data_GdAl17N18
_symmetry_space_group_name_H-M   'P 1'
_cell_length_a   9.96767814
_cell_length_b   9.96767794
_cell_length_c   8.83648448
_cell_angle_alpha   89.99998545
_cell_angle_beta   89.99997648
_cell_angle_gamma   60.00000640
_symmetry_Int_Tables_number   1
_chemical_formula_structural   GdAl17N18
_chemical_formula_sum   'Gd2 Al34 N36'
_cell_volume   760.32309400
_cell_formula_units_Z   2
loop_
 _symmetry_equiv_pos_site_id
 _symmetry_equiv_pos_as_xyz
  1  'x, y, z'
loop_
 _atom_site_type_symbol
 _atom_site_label
 _atom_site_symmetry_multiplicity
 _atom_site_fract_x
 _atom_site_fract_y
 _atom_site_fract_z
 _atom_site_occupancy
  Al  Al0  1  0.11037133  0.09370475  0.36893665  1
  Al  Al1  1  0.22222232  0.20555569  0.12290086  1
  Al  Al2  1  0.77526695  0.09946629  0.87627689  1
  Al  Al3  1  0.89289692  0.20638062  0.62084138  1
  Al  Al4  1  0.44592386  0.09370475  0.36893794  1
  Al  Al5  1  0.55276297  0.20398851  0.11498398  1
  Al  Al6  1  0.11282952  0.09616303  0.86789126  1
  Al  Al7  1  0.22222218  0.20555544  0.61293613  1
  Al  Al8  1  0.77367913  0.10264147  0.35343262  1
  Al  Al9  1  0.89324831  0.20398861  0.11498445  1
  Al  Al10  1  0.44100771  0.09616280  0.86789091  1
  Al  Al11  1  0.55072281  0.20638047  0.62084155  1
  Al  Al12  1  0.11037128  0.42925737  0.36893807  1
  Al  Al13  1  0.22065512  0.53609635  0.11498309  1
  Al  Al14  1  0.78220668  0.42556339  0.87737008  1
  Al  Al15  1  0.89289657  0.53405616  0.62084247  1
  Al  Al16  1  0.43966992  0.42300349  0.35588093  1
  Al  Al17  1  0.55555548  0.53888906  0.11093355  1
  Al  Al18  1  0.11282953  0.42434074  0.86789093  1
  Al  Al19  1  0.22304718  0.53405589  0.62084124  1
  Al  Al20  1  0.78732726  0.42300308  0.35588201  1
  Al  Al21  1  0.89324867  0.53609619  0.11498500  1
  Al  Al22  1  0.44223008  0.42556307  0.87736868  1
  Al  Al23  1  0.11930719  0.75701291  0.35343073  1
  Al  Al24  1  0.22065542  0.87658153  0.11498295  1
  Al  Al25  1  0.77526703  0.75860031  0.87627869  1
  Al  Al26  1  0.43967006  0.77065971  0.35588118  1
  Al  Al27  1  0.55276278  0.87658188  0.11498441  1
  Al  Al28  1  0.11613312  0.75860017  0.87627477  1
  Al  Al29  1  0.22304698  0.87623050  0.62084029  1
  Al  Al30  1  0.77367901  0.75701229  0.35343351  1
  Al  Al31  1  0.88888888  0.87222229  0.10945371  1
  Al  Al32  1  0.44223007  0.76554034  0.87736774  1
  Al  Al33  1  0.55072314  0.87622994  0.62084167  1
  Gd  Gd34  1  0.55555608  0.53888843  0.60510212  1
  Gd  Gd35  1  0.88888834  0.87222233  0.60482956  1
  N  N36  1  0.22222230  0.20555575  0.34737753  1
  N  N37  1  0.11336489  0.09669843  0.08885171  1
  N  N38  1  0.88987155  0.20525243  0.84789587  1
  N  N39  1  0.76159713  0.12680596  0.58703327  1
  N  N40  1  0.55386687  0.20286576  0.33409221  1
  N  N41  1  0.43993674  0.09669827  0.08885070  1
  N  N42  1  0.22222227  0.20555540  0.83513172  1
  N  N43  1  0.10975727  0.09309081  0.59321602  1
  N  N44  1  0.89326719  0.20286555  0.33409206  1
  N  N45  1  0.77604754  0.09790490  0.09694244  1
  N  N46  1  0.55487651  0.20525201  0.84789608  1
  N  N47  1  0.44715220  0.09309053  0.59321670  1
  N  N48  1  0.21953213  0.53720066  0.33409245  1
  N  N49  1  0.11336486  0.42327002  0.08885063  1
  N  N50  1  0.88987115  0.53821002  0.84789557  1
  N  N51  1  0.80878430  0.41227462  0.58451325  1
  N  N52  1  0.55555563  0.53888898  0.33553375  1
  N  N53  1  0.44261221  0.42594545  0.09716511  1
  N  N54  1  0.22191903  0.53820917  0.84789673  1
  N  N55  1  0.10975715  0.43048542  0.59321688  1
  N  N56  1  0.89326768  0.53720009  0.33409172  1
  N  N57  1  0.78144243  0.42594552  0.09716512  1
  N  N58  1  0.55555575  0.53888874  0.86845749  1
  N  N59  1  0.42894145  0.41227482  0.58451498  1
  N  N60  1  0.21953244  0.87660011  0.33409276  1
  N  N61  1  0.11457137  0.75938096  0.09694226  1
  N  N62  1  0.88888866  0.87222224  0.86780781  1
  N  N63  1  0.76159705  0.74493004  0.58703094  1
  N  N64  1  0.55386648  0.87660078  0.33409219  1
  N  N65  1  0.44261226  0.76477570  0.09716454  1
  N  N66  1  0.22191875  0.87320548  0.84789674  1
  N  N67  1  0.14347178  0.74493072  0.58703630  1
  N  N68  1  0.88888871  0.87222236  0.33570925  1
  N  N69  1  0.77604753  0.75938085  0.09694303  1
  N  N70  1  0.55487711  0.87320476  0.84789578  1
  N  N71  1  0.42894170  0.79211677  0.58451605  1
