# generated using pymatgen
data_GdAl17N18
_symmetry_space_group_name_H-M   'P 1'
_cell_length_a   9.69061452
_cell_length_b   9.69061426
_cell_length_c   9.64864696
_cell_angle_alpha   89.99999622
_cell_angle_beta   89.99999247
_cell_angle_gamma   60.00000704
_symmetry_Int_Tables_number   1
_chemical_formula_structural   GdAl17N18
_chemical_formula_sum   'Gd2 Al34 N36'
_cell_volume   784.69286456
_cell_formula_units_Z   2
loop_
 _symmetry_equiv_pos_site_id
 _symmetry_equiv_pos_as_xyz
  1  'x, y, z'
loop_
 _atom_site_type_symbol
 _atom_site_label
 _atom_site_symmetry_multiplicity
 _atom_site_fract_x
 _atom_site_fract_y
 _atom_site_fract_z
 _atom_site_occupancy
  Al  Al0  1  0.11217969  0.09551302  0.32935356  1
  Al  Al1  1  0.22222219  0.20555553  0.07576272  1
  Al  Al2  1  0.77269203  0.10461601  0.83601260  1
  Al  Al3  1  0.89271827  0.20749563  0.57673758  1
  Al  Al4  1  0.44230720  0.09551304  0.32935344  1
  Al  Al5  1  0.55350758  0.20400559  0.07997317  1
  Al  Al6  1  0.11064351  0.09397689  0.82651064  1
  Al  Al7  1  0.22222219  0.20555562  0.58154964  1
  Al  Al8  1  0.77666383  0.09667228  0.32154732  1
  Al  Al9  1  0.89248684  0.20400556  0.07997318  1
  Al  Al10  1  0.44537957  0.09397689  0.82651078  1
  Al  Al11  1  0.54978613  0.20749560  0.57673763  1
  Al  Al12  1  0.11217968  0.42564060  0.32935345  1
  Al  Al13  1  0.22067227  0.53684089  0.07997311  1
  Al  Al14  1  0.78911785  0.42210774  0.83567640  1
  Al  Al15  1  0.89271839  0.53311937  0.57673759  1
  Al  Al16  1  0.44371296  0.42704635  0.32073339  1
  Al  Al17  1  0.55555555  0.53888887  0.07887487  1
  Al  Al18  1  0.11064353  0.42871290  0.82651077  1
  Al  Al19  1  0.22416224  0.53311945  0.57673762  1
  Al  Al20  1  0.77924062  0.42704632  0.32073335  1
  Al  Al21  1  0.89248680  0.53684096  0.07997318  1
  Al  Al22  1  0.43877444  0.42210773  0.83567631  1
  Al  Al23  1  0.11333900  0.75999713  0.32154729  1
  Al  Al24  1  0.22067220  0.87582019  0.07997313  1
  Al  Al25  1  0.77269202  0.75602529  0.83601248  1
  Al  Al26  1  0.44371295  0.76257397  0.32073326  1
  Al  Al27  1  0.55350766  0.87582014  0.07997319  1
  Al  Al28  1  0.12128277  0.75602529  0.83601259  1
  Al  Al29  1  0.22416227  0.87605163  0.57673760  1
  Al  Al30  1  0.77666382  0.75999713  0.32154745  1
  Al  Al31  1  0.88888890  0.87222218  0.07943814  1
  Al  Al32  1  0.43877440  0.77245124  0.83567648  1
  Al  Al33  1  0.54978604  0.87605172  0.57673762  1
  Gd  Gd34  1  0.55555552  0.53888905  0.59529905  1
  Gd  Gd35  1  0.88888914  0.87222214  0.59447752  1
  N  N36  1  0.22222221  0.20555559  0.38327245  1
  N  N37  1  0.11256806  0.09590138  0.13222551  1
  N  N38  1  0.89358432  0.20273814  0.88534434  1
  N  N39  1  0.75958712  0.13082567  0.63807157  1
  N  N40  1  0.55554554  0.20599689  0.37631181  1
  N  N41  1  0.44153048  0.09590141  0.13222541  1
  N  N42  1  0.22222221  0.20555554  0.87604886  1
  N  N43  1  0.10996009  0.09329349  0.62776487  1
  N  N44  1  0.88845747  0.20599693  0.37631181  1
  N  N45  1  0.77686009  0.09627975  0.12425874  1
  N  N46  1  0.55367758  0.20273814  0.88534430  1
  N  N47  1  0.44674641  0.09329350  0.62776500  1
  N  N48  1  0.22266354  0.53887890  0.37631184  1
  N  N49  1  0.11256808  0.42486383  0.13222540  1
  N  N50  1  0.89358428  0.53701094  0.88534434  1
  N  N51  1  0.81250530  0.41041399  0.64064925  1
  N  N52  1  0.55555552  0.53888891  0.35769816  1
  N  N53  1  0.44337187  0.42670518  0.12381576  1
  N  N54  1  0.21940486  0.53701085  0.88534431  1
  N  N55  1  0.10996014  0.43007973  0.62776502  1
  N  N56  1  0.88845752  0.53887883  0.37631183  1
  N  N57  1  0.77992291  0.42670518  0.12381573  1
  N  N58  1  0.55555557  0.53888891  0.87284319  1
  N  N59  1  0.42708080  0.41041395  0.64064915  1
  N  N60  1  0.22266359  0.87179083  0.37631182  1
  N  N61  1  0.11294648  0.76019338  0.12425869  1
  N  N62  1  0.88888893  0.87222220  0.87185442  1
  N  N63  1  0.75958712  0.74292053  0.63807144  1
  N  N64  1  0.55554546  0.87179089  0.37631181  1
  N  N65  1  0.44337185  0.76325625  0.12381565  1
  N  N66  1  0.21940477  0.87691772  0.88534434  1
  N  N67  1  0.14749243  0.74292045  0.63807161  1
  N  N68  1  0.88888887  0.87222222  0.35840042  1
  N  N69  1  0.77686010  0.76019341  0.12425887  1
  N  N70  1  0.55367764  0.87691766  0.88534434  1
  N  N71  1  0.42708067  0.79583879  0.64064934  1
