# generated using pymatgen
data_GdAl17N18
_symmetry_space_group_name_H-M   'P 1'
_cell_length_a   9.51729322
_cell_length_b   9.51729320
_cell_length_c   10.11281284
_cell_angle_alpha   90.00000007
_cell_angle_beta   90.00000012
_cell_angle_gamma   60.00000132
_symmetry_Int_Tables_number   1
_chemical_formula_structural   GdAl17N18
_chemical_formula_sum   'Gd2 Al34 N36'
_cell_volume   793.28548107
_cell_formula_units_Z   2
loop_
 _symmetry_equiv_pos_site_id
 _symmetry_equiv_pos_as_xyz
  1  'x, y, z'
loop_
 _atom_site_type_symbol
 _atom_site_label
 _atom_site_symmetry_multiplicity
 _atom_site_fract_x
 _atom_site_fract_y
 _atom_site_fract_z
 _atom_site_occupancy
  Al  Al0  1  0.11104798  0.09438132  0.41110744  1
  Al  Al1  1  0.22222222  0.20555556  0.16076740  1
  Al  Al2  1  0.77667947  0.09664105  0.91771054  1
  Al  Al3  1  0.89327825  0.20751888  0.66028787  1
  Al  Al4  1  0.44457068  0.09438131  0.41110743  1
  Al  Al5  1  0.55418709  0.20447171  0.16065449  1
  Al  Al6  1  0.11149576  0.09482909  0.91002913  1
  Al  Al7  1  0.22222222  0.20555555  0.65911396  1
  Al  Al8  1  0.77340611  0.10318778  0.40579827  1
  Al  Al9  1  0.89134121  0.20447172  0.16065450  1
  Al  Al10  1  0.44367513  0.09482909  0.91002913  1
  Al  Al11  1  0.54920284  0.20751888  0.66028787  1
  Al  Al12  1  0.11104798  0.42790402  0.41110743  1
  Al  Al13  1  0.22113838  0.53752042  0.16065449  1
  Al  Al14  1  0.77932258  0.42700537  0.91797496  1
  Al  Al15  1  0.89327826  0.53253618  0.66028788  1
  Al  Al16  1  0.43981417  0.42314751  0.40533992  1
  Al  Al17  1  0.55555556  0.53888889  0.16237741  1
  Al  Al18  1  0.11149575  0.42700847  0.91002913  1
  Al  Al19  1  0.22418555  0.53253617  0.66028787  1
  Al  Al20  1  0.78703830  0.42314752  0.40533992  1
  Al  Al21  1  0.89134121  0.53752043  0.16065449  1
  Al  Al22  1  0.44367203  0.42700536  0.91797496  1
  Al  Al23  1  0.11985445  0.75673944  0.40579827  1
  Al  Al24  1  0.22113839  0.87467454  0.16065450  1
  Al  Al25  1  0.77667948  0.76001281  0.91771054  1
  Al  Al26  1  0.43981418  0.77037163  0.40533992  1
  Al  Al27  1  0.55418710  0.87467454  0.16065449  1
  Al  Al28  1  0.11330772  0.76001280  0.91771054  1
  Al  Al29  1  0.22418555  0.87661158  0.66028787  1
  Al  Al30  1  0.77340610  0.75673944  0.40579827  1
  Al  Al31  1  0.88888890  0.87222224  0.16277564  1
  Al  Al32  1  0.44367204  0.76265591  0.91797496  1
  Al  Al33  1  0.54920284  0.87661159  0.66028788  1
  Gd  Gd34  1  0.55555555  0.53888888  0.65123345  1
  Gd  Gd35  1  0.88888889  0.87222222  0.65310308  1
  N  N36  1  0.22222222  0.20555555  0.35250232  1
  N  N37  1  0.11170864  0.09504197  0.09974118  1
  N  N38  1  0.88815461  0.20604303  0.85308651  1
  N  N39  1  0.76016495  0.12967006  0.59324653  1
  N  N40  1  0.55413088  0.20335679  0.34746897  1
  N  N41  1  0.44324938  0.09504197  0.09974118  1
  N  N42  1  0.22222222  0.20555555  0.85000134  1
  N  N43  1  0.11063847  0.09397180  0.60234672  1
  N  N44  1  0.89251233  0.20335680  0.34746897  1
  N  N45  1  0.77693733  0.09612534  0.10689829  1
  N  N46  1  0.55580235  0.20604302  0.85308651  1
  N  N47  1  0.44538971  0.09397180  0.60234672  1
  N  N48  1  0.22002346  0.53746421  0.34746897  1
  N  N49  1  0.11170864  0.42658272  0.09974118  1
  N  N50  1  0.88815461  0.53913569  0.85308651  1
  N  N51  1  0.81130132  0.41101600  0.59013578  1
  N  N52  1  0.55555556  0.53888889  0.35900650  1
  N  N53  1  0.44348784  0.42682117  0.10692760  1
  N  N54  1  0.22270969  0.53913568  0.85308651  1
  N  N55  1  0.11063846  0.42872304  0.60234672  1
  N  N56  1  0.89251232  0.53746420  0.34746897  1
  N  N57  1  0.77969099  0.42682118  0.10692760  1
  N  N58  1  0.55555555  0.53888888  0.87494519  1
  N  N59  1  0.42768267  0.41101600  0.59013577  1
  N  N60  1  0.22002347  0.87584566  0.34746897  1
  N  N61  1  0.11279201  0.76027066  0.10689829  1
  N  N62  1  0.88888889  0.87222222  0.87510255  1
  N  N63  1  0.76016497  0.74349830  0.59324652  1
  N  N64  1  0.55413087  0.87584566  0.34746897  1
  N  N65  1  0.44348785  0.76302432  0.10692760  1
  N  N66  1  0.22270970  0.87148795  0.85308651  1
  N  N67  1  0.14633673  0.74349828  0.59324653  1
  N  N68  1  0.88888890  0.87222223  0.36068747  1
  N  N69  1  0.77693734  0.76027068  0.10689829  1
  N  N70  1  0.55580236  0.87148795  0.85308651  1
  N  N71  1  0.42768266  0.79463465  0.59013578  1
