# generated using pymatgen
data_GdAl17N18
_symmetry_space_group_name_H-M   'P 1'
_cell_length_a   9.51733651
_cell_length_b   9.51733649
_cell_length_c   10.11270758
_cell_angle_alpha   89.99999984
_cell_angle_beta   89.99999963
_cell_angle_gamma   60.00000165
_symmetry_Int_Tables_number   1
_chemical_formula_structural   GdAl17N18
_chemical_formula_sum   'Gd2 Al34 N36'
_cell_volume   793.28444443
_cell_formula_units_Z   2
loop_
 _symmetry_equiv_pos_site_id
 _symmetry_equiv_pos_as_xyz
  1  'x, y, z'
loop_
 _atom_site_type_symbol
 _atom_site_label
 _atom_site_symmetry_multiplicity
 _atom_site_fract_x
 _atom_site_fract_y
 _atom_site_fract_z
 _atom_site_occupancy
  Al  Al0  1  0.11149668  0.09483001  0.30675795  1
  Al  Al1  1  0.22222223  0.20555556  0.05601622  1
  Al  Al2  1  0.77340342  0.10319317  0.81098705  1
  Al  Al3  1  0.89327895  0.20751884  0.55649493  1
  Al  Al4  1  0.44367331  0.09483000  0.30675794  1
  Al  Al5  1  0.55418772  0.20447178  0.05613671  1
  Al  Al6  1  0.11104714  0.09438048  0.80567825  1
  Al  Al7  1  0.22222222  0.20555556  0.55767605  1
  Al  Al8  1  0.77668126  0.09663748  0.29908148  1
  Al  Al9  1  0.89134052  0.20447179  0.05613671  1
  Al  Al10  1  0.44457237  0.09438047  0.80567826  1
  Al  Al11  1  0.54920218  0.20751884  0.55649493  1
  Al  Al12  1  0.11149667  0.42700664  0.30675794  1
  Al  Al13  1  0.22113845  0.53752105  0.05613671  1
  Al  Al14  1  0.78704351  0.42314491  0.81144462  1
  Al  Al15  1  0.89327896  0.53253551  0.55649492  1
  Al  Al16  1  0.44367382  0.42700716  0.29881571  1
  Al  Al17  1  0.55555556  0.53888890  0.05440234  1
  Al  Al18  1  0.11104714  0.42790570  0.80567826  1
  Al  Al19  1  0.22418551  0.53253551  0.55649493  1
  Al  Al20  1  0.77931900  0.42700716  0.29881571  1
  Al  Al21  1  0.89134051  0.53752106  0.05613671  1
  Al  Al22  1  0.43981157  0.42314490  0.81144462  1
  Al  Al23  1  0.11330414  0.76001460  0.29908148  1
  Al  Al24  1  0.22113845  0.87467385  0.05613671  1
  Al  Al25  1  0.77340341  0.75673674  0.81098704  1
  Al  Al26  1  0.44367383  0.76265234  0.29881571  1
  Al  Al27  1  0.55418773  0.87467385  0.05613671  1
  Al  Al28  1  0.11985984  0.75673675  0.81098705  1
  Al  Al29  1  0.22418550  0.87661228  0.55649493  1
  Al  Al30  1  0.77668126  0.76001460  0.29908148  1
  Al  Al31  1  0.88888890  0.87222224  0.05400552  1
  Al  Al32  1  0.43981157  0.77037685  0.81144462  1
  Al  Al33  1  0.54920218  0.87661229  0.55649492  1
  Gd  Gd34  1  0.55555555  0.53888889  0.56556808  1
  Gd  Gd35  1  0.88888889  0.87222222  0.56370017  1
  N  N36  1  0.22222223  0.20555556  0.36678678  1
  N  N37  1  0.11170945  0.09504278  0.11704462  1
  N  N38  1  0.89251241  0.20335682  0.86931909  1
  N  N39  1  0.76016155  0.12967686  0.62353722  1
  N  N40  1  0.55580175  0.20604284  0.36369701  1
  N  N41  1  0.44324778  0.09504278  0.11704461  1
  N  N42  1  0.22222222  0.20555556  0.86427942  1
  N  N43  1  0.11063742  0.09397075  0.61443768  1
  N  N44  1  0.88815540  0.20604286  0.36369701  1
  N  N45  1  0.77693918  0.09612166  0.10989047  1
  N  N46  1  0.55413078  0.20335682  0.86931909  1
  N  N47  1  0.44539181  0.09397075  0.61443768  1
  N  N48  1  0.22270951  0.53913508  0.36369701  1
  N  N49  1  0.11170944  0.42658112  0.11704461  1
  N  N50  1  0.89251240  0.53746410  0.86931909  1
  N  N51  1  0.81130760  0.41101285  0.62664798  1
  N  N52  1  0.55555555  0.53888888  0.34185410  1
  N  N53  1  0.44348964  0.42682297  0.10986013  1
  N  N54  1  0.22002349  0.53746411  0.86931909  1
  N  N55  1  0.11063742  0.42872514  0.61443768  1
  N  N56  1  0.88815540  0.53913509  0.36369701  1
  N  N57  1  0.77968740  0.42682298  0.10986014  1
  N  N58  1  0.55555556  0.53888889  0.85777065  1
  N  N59  1  0.42767953  0.41101286  0.62664798  1
  N  N60  1  0.22270952  0.87148874  0.36369701  1
  N  N61  1  0.11278832  0.76027251  0.10989047  1
  N  N62  1  0.88888889  0.87222223  0.85608997  1
  N  N63  1  0.76016157  0.74349490  0.62353722  1
  N  N64  1  0.55580175  0.87148873  0.36369701  1
  N  N65  1  0.44348964  0.76302073  0.10986014  1
  N  N66  1  0.22002349  0.87584574  0.86931909  1
  N  N67  1  0.14634352  0.74349489  0.62353722  1
  N  N68  1  0.88888889  0.87222222  0.34169839  1
  N  N69  1  0.77693918  0.76027252  0.10989047  1
  N  N70  1  0.55413077  0.87584574  0.86931909  1
  N  N71  1  0.42767952  0.79464093  0.62664798  1
