# generated using pymatgen
data_GdAl17N18
_symmetry_space_group_name_H-M   'P 1'
_cell_length_a   9.51731291
_cell_length_b   9.51731292
_cell_length_c   10.11274328
_cell_angle_alpha   89.99999995
_cell_angle_beta   89.99999976
_cell_angle_gamma   60.00000122
_symmetry_Int_Tables_number   1
_chemical_formula_structural   GdAl17N18
_chemical_formula_sum   'Gd2 Al34 N36'
_cell_volume   793.28330853
_cell_formula_units_Z   2
loop_
 _symmetry_equiv_pos_site_id
 _symmetry_equiv_pos_as_xyz
  1  'x, y, z'
loop_
 _atom_site_type_symbol
 _atom_site_label
 _atom_site_symmetry_multiplicity
 _atom_site_fract_x
 _atom_site_fract_y
 _atom_site_fract_z
 _atom_site_occupancy
  Al  Al0  1  0.11104832  0.09438168  0.41331843  1
  Al  Al1  1  0.22222222  0.20555556  0.16297377  1
  Al  Al2  1  0.77667853  0.09664295  0.91990513  1
  Al  Al3  1  0.89327674  0.20752228  0.66249152  1
  Al  Al4  1  0.44456994  0.09438167  0.41331842  1
  Al  Al5  1  0.55418597  0.20446970  0.16285755  1
  Al  Al6  1  0.11149615  0.09482946  0.91222917  1
  Al  Al7  1  0.22222220  0.20555556  0.66132487  1
  Al  Al8  1  0.77340427  0.10319141  0.40800369  1
  Al  Al9  1  0.89134433  0.20446972  0.16285756  1
  Al  Al10  1  0.44367439  0.09482947  0.91222917  1
  Al  Al11  1  0.54920093  0.20752226  0.66249152  1
  Al  Al12  1  0.11104832  0.42790330  0.41331842  1
  Al  Al13  1  0.22113638  0.53751929  0.16285755  1
  Al  Al14  1  0.77932644  0.42700346  0.92018604  1
  Al  Al15  1  0.89327675  0.53253429  0.66249152  1
  Al  Al16  1  0.43981676  0.42315010  0.40754505  1
  Al  Al17  1  0.55555557  0.53888889  0.16457826  1
  Al  Al18  1  0.11149614  0.42700771  0.91222917  1
  Al  Al19  1  0.22418893  0.53253426  0.66249151  1
  Al  Al20  1  0.78703308  0.42315012  0.40754506  1
  Al  Al21  1  0.89134434  0.53751931  0.16285756  1
  Al  Al22  1  0.44367013  0.42700344  0.92018605  1
  Al  Al23  1  0.11985808  0.75673762  0.40800369  1
  Al  Al24  1  0.22113640  0.87467766  0.16285755  1
  Al  Al25  1  0.77667854  0.76001186  0.91990513  1
  Al  Al26  1  0.43981677  0.77036644  0.40754505  1
  Al  Al27  1  0.55418598  0.87467767  0.16285755  1
  Al  Al28  1  0.11330966  0.76001184  0.91990513  1
  Al  Al29  1  0.22418894  0.87661010  0.66249151  1
  Al  Al30  1  0.77340428  0.75673763  0.40800369  1
  Al  Al31  1  0.88888892  0.87222223  0.16497458  1
  Al  Al32  1  0.44367015  0.76265975  0.92018605  1
  Al  Al33  1  0.54920094  0.87661011  0.66249152  1
  Gd  Gd34  1  0.55555551  0.53888890  0.65345802  1
  Gd  Gd35  1  0.88888890  0.87222221  0.65529208  1
  N  N36  1  0.22222220  0.20555556  0.35471471  1
  N  N37  1  0.11170903  0.09504236  0.10194423  1
  N  N38  1  0.88815320  0.20604601  0.85528731  1
  N  N39  1  0.76016284  0.12967426  0.59545095  1
  N  N40  1  0.55412901  0.20335601  0.34967638  1
  N  N41  1  0.44324859  0.09504237  0.10194423  1
  N  N42  1  0.22222223  0.20555555  0.85220532  1
  N  N43  1  0.11063973  0.09397310  0.60455529  1
  N  N44  1  0.89251493  0.20335603  0.34967639  1
  N  N45  1  0.77693696  0.09612610  0.10909713  1
  N  N46  1  0.55580082  0.20604599  0.85528731  1
  N  N47  1  0.44538711  0.09397310  0.60455529  1
  N  N48  1  0.22002267  0.53746235  0.34967638  1
  N  N49  1  0.11170904  0.42658193  0.10194423  1
  N  N50  1  0.88815320  0.53913415  0.85528731  1
  N  N51  1  0.81129375  0.41101978  0.59233874  1
  N  N52  1  0.55555554  0.53888889  0.36120546  1
  N  N53  1  0.44348602  0.42681933  0.10913730  1
  N  N54  1  0.22271269  0.53913412  0.85528731  1
  N  N55  1  0.11063973  0.42872047  0.60455529  1
  N  N56  1  0.89251493  0.53746236  0.34967639  1
  N  N57  1  0.77969467  0.42681934  0.10913730  1
  N  N58  1  0.55555557  0.53888888  0.87716986  1
  N  N59  1  0.42768642  0.41101975  0.59233871  1
  N  N60  1  0.22002268  0.87584828  0.34967638  1
  N  N61  1  0.11279279  0.76027027  0.10909712  1
  N  N62  1  0.88888892  0.87222222  0.87729315  1
  N  N63  1  0.76016287  0.74349622  0.59545095  1
  N  N64  1  0.55412901  0.87584829  0.34967638  1
  N  N65  1  0.44348602  0.76302799  0.10913730  1
  N  N66  1  0.22271270  0.87148651  0.85528731  1
  N  N67  1  0.14634095  0.74349617  0.59545095  1
  N  N68  1  0.88888890  0.87222223  0.36289708  1
  N  N69  1  0.77693697  0.76027030  0.10909713  1
  N  N70  1  0.55580083  0.87148652  0.85528731  1
  N  N71  1  0.42768643  0.79462713  0.59233872  1
