# generated using pymatgen
data_GdAl17N18
_symmetry_space_group_name_H-M   'P 1'
_cell_length_a   9.51722351
_cell_length_b   9.51722320
_cell_length_c   10.11298358
_cell_angle_alpha   89.99999767
_cell_angle_beta   89.99999738
_cell_angle_gamma   60.00000779
_symmetry_Int_Tables_number   1
_chemical_formula_structural   GdAl17N18
_chemical_formula_sum   'Gd2 Al34 N36'
_cell_volume   793.28728107
_cell_formula_units_Z   2
loop_
 _symmetry_equiv_pos_site_id
 _symmetry_equiv_pos_as_xyz
  1  'x, y, z'
loop_
 _atom_site_type_symbol
 _atom_site_label
 _atom_site_symmetry_multiplicity
 _atom_site_fract_x
 _atom_site_fract_y
 _atom_site_fract_z
 _atom_site_occupancy
  Al  Al0  1  0.11149593  0.09482921  0.29626207  1
  Al  Al1  1  0.22222194  0.20555560  0.04553025  1
  Al  Al2  1  0.77340992  0.10318028  0.80047840  1
  Al  Al3  1  0.89327928  0.20751641  0.54599703  1
  Al  Al4  1  0.44367430  0.09482945  0.29626215  1
  Al  Al5  1  0.55418556  0.20447258  0.04562463  1
  Al  Al6  1  0.11104846  0.09438157  0.79518311  1
  Al  Al7  1  0.22222184  0.20555564  0.54718419  1
  Al  Al8  1  0.77667695  0.09664559  0.28856270  1
  Al  Al9  1  0.89134158  0.20447254  0.04562460  1
  Al  Al10  1  0.44456971  0.09438191  0.79518305  1
  Al  Al11  1  0.54920394  0.20751630  0.54599707  1
  Al  Al12  1  0.11149600  0.42700792  0.29626209  1
  Al  Al13  1  0.22113942  0.53751894  0.04562466  1
  Al  Al14  1  0.78703093  0.42315137  0.80093865  1
  Al  Al15  1  0.89327939  0.53253767  0.54599702  1
  Al  Al16  1  0.44366834  0.42700168  0.28830441  1
  Al  Al17  1  0.55555575  0.53888884  0.04391712  1
  Al  Al18  1  0.11104859  0.42790324  0.79518310  1
  Al  Al19  1  0.22418296  0.53253735  0.54599703  1
  Al  Al20  1  0.77933019  0.42700151  0.28830439  1
  Al  Al21  1  0.89134168  0.53751918  0.04562461  1
  Al  Al22  1  0.43981837  0.42315127  0.80093871  1
  Al  Al23  1  0.11331208  0.76001051  0.28856274  1
  Al  Al24  1  0.22113942  0.87467485  0.04562464  1
  Al  Al25  1  0.77341007  0.75674335  0.80047841  1
  Al  Al26  1  0.44366831  0.76266327  0.28830441  1
  Al  Al27  1  0.55418566  0.87467518  0.04562463  1
  Al  Al28  1  0.11984750  0.75674295  0.80047835  1
  Al  Al29  1  0.22418300  0.87661287  0.54599703  1
  Al  Al30  1  0.77667699  0.76001058  0.28856273  1
  Al  Al31  1  0.88888902  0.87222218  0.04350955  1
  Al  Al32  1  0.43981841  0.77036399  0.80093868  1
  Al  Al33  1  0.54920407  0.87661305  0.54599705  1
  Gd  Gd34  1  0.55555534  0.53888901  0.55502032  1
  Gd  Gd35  1  0.88888914  0.87222222  0.55314521  1
  N  N36  1  0.22222195  0.20555556  0.35629913  1
  N  N37  1  0.11170740  0.09504072  0.10654954  1
  N  N38  1  0.89250983  0.20335876  0.85881068  1
  N  N39  1  0.76016955  0.12966050  0.61303421  1
  N  N40  1  0.55580312  0.20604241  0.35320267  1
  N  N41  1  0.44325127  0.09504100  0.10654961  1
  N  N42  1  0.22222211  0.20555559  0.85379632  1
  N  N43  1  0.11063896  0.09397254  0.60394868  1
  N  N44  1  0.88815421  0.20604223  0.35320263  1
  N  N45  1  0.77693462  0.09613040  0.09937901  1
  N  N46  1  0.55413154  0.20335872  0.85881072  1
  N  N47  1  0.44538781  0.09397274  0.60394863  1
  N  N48  1  0.22270903  0.53913663  0.35320264  1
  N  N49  1  0.11170749  0.42658495  0.10654956  1
  N  N50  1  0.89250996  0.53746494  0.85881069  1
  N  N51  1  0.81129055  0.41102142  0.61614615  1
  N  N52  1  0.55555573  0.53888879  0.33131813  1
  N  N53  1  0.44348531  0.42681846  0.09935614  1
  N  N54  1  0.22002586  0.53746463  0.85881076  1
  N  N55  1  0.11063906  0.42872159  0.60394867  1
  N  N56  1  0.88815427  0.53913671  0.35320263  1
  N  N57  1  0.77969648  0.42681843  0.09935610  1
  N  N58  1  0.55555593  0.53888888  0.84728657  1
  N  N59  1  0.42768796  0.41102121  0.61614629  1
  N  N60  1  0.22270898  0.87148750  0.35320265  1
  N  N61  1  0.11279717  0.76026801  0.09937907  1
  N  N62  1  0.88888934  0.87222217  0.84560024  1
  N  N63  1  0.76016974  0.74350337  0.61303419  1
  N  N64  1  0.55580314  0.87148771  0.35320267  1
  N  N65  1  0.44348530  0.76302961  0.09935614  1
  N  N66  1  0.22002586  0.87584293  0.85881074  1
  N  N67  1  0.14632743  0.74350288  0.61303417  1
  N  N68  1  0.88888867  0.87222225  0.33115315  1
  N  N69  1  0.77693470  0.76026824  0.09937901  1
  N  N70  1  0.55413165  0.87584330  0.85881071  1
  N  N71  1  0.42768797  0.79462418  0.61614626  1
