# generated using pymatgen
data_GdAl17N18
_symmetry_space_group_name_H-M   'P 1'
_cell_length_a   9.85978328
_cell_length_b   9.85978712
_cell_length_c   9.15809180
_cell_angle_alpha   89.99999215
_cell_angle_beta   89.99999450
_cell_angle_gamma   60.00000794
_symmetry_Int_Tables_number   1
_chemical_formula_structural   GdAl17N18
_chemical_formula_sum   'Gd2 Al34 N36'
_cell_volume   771.02873908
_cell_formula_units_Z   2
loop_
 _symmetry_equiv_pos_site_id
 _symmetry_equiv_pos_as_xyz
  1  'x, y, z'
loop_
 _atom_site_type_symbol
 _atom_site_label
 _atom_site_symmetry_multiplicity
 _atom_site_fract_x
 _atom_site_fract_y
 _atom_site_fract_z
 _atom_site_occupancy
  Al  Al0  1  0.11278645  0.09611975  0.33551979  1
  Al  Al1  1  0.22222217  0.20555545  0.07962266  1
  Al  Al2  1  0.77322013  0.10355967  0.84639898  1
  Al  Al3  1  0.89238017  0.20706476  0.58155855  1
  Al  Al4  1  0.44109378  0.09611977  0.33551943  1
  Al  Al5  1  0.55276320  0.20379829  0.08687861  1
  Al  Al6  1  0.11026487  0.09359832  0.83204459  1
  Al  Al7  1  0.22222241  0.20555559  0.58958340  1
  Al  Al8  1  0.77577550  0.09844866  0.32604831  1
  Al  Al9  1  0.89343851  0.20379825  0.08687878  1
  Al  Al10  1  0.44613691  0.09359823  0.83204501  1
  Al  Al11  1  0.55055506  0.20706420  0.58155855  1
  Al  Al12  1  0.11278647  0.42442708  0.33551936  1
  Al  Al13  1  0.22046504  0.53609645  0.08687846  1
  Al  Al14  1  0.78845334  0.42243998  0.84485002  1
  Al  Al15  1  0.89238051  0.53388822  0.58155874  1
  Al  Al16  1  0.44285727  0.42619052  0.32510700  1
  Al  Al17  1  0.55555558  0.53888879  0.09068571  1
  Al  Al18  1  0.11026493  0.42947005  0.83204519  1
  Al  Al19  1  0.22373180  0.53388790  0.58155886  1
  Al  Al20  1  0.78095212  0.42619053  0.32510705  1
  Al  Al21  1  0.89343834  0.53609672  0.08687883  1
  Al  Al22  1  0.43910685  0.42243973  0.84484978  1
  Al  Al23  1  0.11511533  0.75910890  0.32604784  1
  Al  Al24  1  0.22046480  0.87677202  0.08687851  1
  Al  Al25  1  0.77322017  0.75655359  0.84639874  1
  Al  Al26  1  0.44285726  0.76428542  0.32510649  1
  Al  Al27  1  0.55276340  0.87677186  0.08687873  1
  Al  Al28  1  0.12022664  0.75655335  0.84639898  1
  Al  Al29  1  0.22373195  0.87571352  0.58155865  1
  Al  Al30  1  0.77577548  0.75910894  0.32604893  1
  Al  Al31  1  0.88888876  0.87222217  0.09206096  1
  Al  Al32  1  0.43910674  0.77178694  0.84485027  1
  Al  Al33  1  0.55055485  0.87571430  0.58155852  1
  Gd  Gd34  1  0.55555534  0.53888929  0.60088862  1
  Gd  Gd35  1  0.88888900  0.87222230  0.60070954  1
  N  N36  1  0.22222209  0.20555571  0.37940112  1
  N  N37  1  0.11325710  0.09659034  0.12665239  1
  N  N38  1  0.89394568  0.20252021  0.88028201  1
  N  N39  1  0.76065198  0.12869618  0.63084184  1
  N  N40  1  0.55529019  0.20575839  0.36814582  1
  N  N41  1  0.44015237  0.09659047  0.12665192  1
  N  N42  1  0.22222207  0.20555551  0.86737194  1
  N  N43  1  0.10960793  0.09294131  0.62087700  1
  N  N44  1  0.88895133  0.20575828  0.36814582  1
  N  N45  1  0.77624252  0.09751498  0.11703526  1
  N  N46  1  0.55353426  0.20252027  0.88028205  1
  N  N47  1  0.44745056  0.09294143  0.62087749  1
  N  N48  1  0.22242482  0.53862381  0.36814601  1
  N  N49  1  0.11325715  0.42348577  0.12665190  1
  N  N50  1  0.89394547  0.53686769  0.88028199  1
  N  N51  1  0.81060835  0.41136239  0.63310179  1
  N  N52  1  0.55555543  0.53888901  0.34647279  1
  N  N53  1  0.44278780  0.42612119  0.11672072  1
  N  N54  1  0.21918699  0.53686749  0.88028188  1
  N  N55  1  0.10960804  0.43078398  0.62087760  1
  N  N56  1  0.88895156  0.53862337  0.36814587  1
  N  N57  1  0.78109099  0.42612110  0.11672069  1
  N  N58  1  0.55555552  0.53888890  0.87269049  1
  N  N59  1  0.42802857  0.41136307  0.63310182  1
  N  N60  1  0.22242497  0.87228450  0.36814591  1
  N  N61  1  0.11418183  0.75957568  0.11703506  1
  N  N62  1  0.88888907  0.87222211  0.87221091  1
  N  N63  1  0.76065201  0.74398522  0.63084118  1
  N  N64  1  0.55528988  0.87228478  0.36814575  1
  N  N65  1  0.44278775  0.76442429  0.11672026  1
  N  N66  1  0.21918671  0.87727916  0.88028197  1
  N  N67  1  0.14536347  0.74398494  0.63084236  1
  N  N68  1  0.88888904  0.87222217  0.34710321  1
  N  N69  1  0.77624253  0.75957571  0.11703574  1
  N  N70  1  0.55353448  0.87727891  0.88028213  1
  N  N71  1  0.42802827  0.79394206  0.63310241  1
