# generated using pymatgen
data_GdAl17N18
_symmetry_space_group_name_H-M   'P 1'
_cell_length_a   9.51742521
_cell_length_b   9.51742519
_cell_length_c   10.11248034
_cell_angle_alpha   89.99999981
_cell_angle_beta   89.99999964
_cell_angle_gamma   60.00000171
_symmetry_Int_Tables_number   1
_chemical_formula_structural   GdAl17N18
_chemical_formula_sum   'Gd2 Al34 N36'
_cell_volume   793.28140490
_cell_formula_units_Z   2
loop_
 _symmetry_equiv_pos_site_id
 _symmetry_equiv_pos_as_xyz
  1  'x, y, z'
loop_
 _atom_site_type_symbol
 _atom_site_label
 _atom_site_symmetry_multiplicity
 _atom_site_fract_x
 _atom_site_fract_y
 _atom_site_fract_z
 _atom_site_occupancy
  Al  Al0  1  0.11149794  0.09483127  0.31352935  1
  Al  Al1  1  0.22222223  0.20555556  0.06278368  1
  Al  Al2  1  0.77339873  0.10320254  0.81776229  1
  Al  Al3  1  0.89327966  0.20751917  0.56326241  1
  Al  Al4  1  0.44367078  0.09483127  0.31352935  1
  Al  Al5  1  0.55418861  0.20447156  0.06291643  1
  Al  Al6  1  0.11104610  0.09437943  0.81244956  1
  Al  Al7  1  0.22222222  0.20555556  0.56445086  1
  Al  Al8  1  0.77668442  0.09663116  0.30586284  1
  Al  Al9  1  0.89133984  0.20447157  0.06291643  1
  Al  Al10  1  0.44457447  0.09437942  0.81244956  1
  Al  Al11  1  0.54920113  0.20751918  0.56326241  1
  Al  Al12  1  0.11149793  0.42700412  0.31352935  1
  Al  Al13  1  0.22113823  0.53752194  0.06291643  1
  Al  Al14  1  0.78705256  0.42314039  0.81821883  1
  Al  Al15  1  0.89327967  0.53253446  0.56326240  1
  Al  Al16  1  0.44367696  0.42701029  0.30559481  1
  Al  Al17  1  0.55555556  0.53888890  0.06116775  1
  Al  Al18  1  0.11104609  0.42790780  0.81244956  1
  Al  Al19  1  0.22418584  0.53253447  0.56326241  1
  Al  Al20  1  0.77931273  0.42701030  0.30559481  1
  Al  Al21  1  0.89133984  0.53752195  0.06291643  1
  Al  Al22  1  0.43980705  0.42314038  0.81821883  1
  Al  Al23  1  0.11329783  0.76001775  0.30586284  1
  Al  Al24  1  0.22113824  0.87467318  0.06291643  1
  Al  Al25  1  0.77339872  0.75673206  0.81776228  1
  Al  Al26  1  0.44367696  0.76264607  0.30559481  1
  Al  Al27  1  0.55418862  0.87467317  0.06291643  1
  Al  Al28  1  0.11986921  0.75673206  0.81776229  1
  Al  Al29  1  0.22418584  0.87661299  0.56326241  1
  Al  Al30  1  0.77668442  0.76001775  0.30586284  1
  Al  Al31  1  0.88888890  0.87222224  0.06077191  1
  Al  Al32  1  0.43980705  0.77038589  0.81821883  1
  Al  Al33  1  0.54920113  0.87661300  0.56326240  1
  Gd  Gd34  1  0.55555555  0.53888889  0.57237105  1
  Gd  Gd35  1  0.88888889  0.87222222  0.57050627  1
  N  N36  1  0.22222223  0.20555556  0.37355848  1
  N  N37  1  0.11171084  0.09504418  0.12381431  1
  N  N38  1  0.89251352  0.20335631  0.87609493  1
  N  N39  1  0.76015539  0.12968919  0.63030826  1
  N  N40  1  0.55580070  0.20604262  0.37046397  1
  N  N41  1  0.44324498  0.09504418  0.12381431  1
  N  N42  1  0.22222222  0.20555556  0.87104417  1
  N  N43  1  0.11063589  0.09396923  0.62120630  1
  N  N44  1  0.88815668  0.20604263  0.37046397  1
  N  N45  1  0.77694225  0.09611551  0.11666586  1
  N  N46  1  0.55413017  0.20335631  0.87609493  1
  N  N47  1  0.44539487  0.09396922  0.62120630  1
  N  N48  1  0.22270928  0.53913404  0.37046397  1
  N  N49  1  0.11171084  0.42657832  0.12381431  1
  N  N50  1  0.89251352  0.53746350  0.87609493  1
  N  N51  1  0.81131889  0.41100721  0.63341928  1
  N  N52  1  0.55555555  0.53888888  0.34865009  1
  N  N53  1  0.44349247  0.42682580  0.11663391  1
  N  N54  1  0.22002298  0.53746350  0.87609493  1
  N  N55  1  0.11063589  0.42872820  0.62120630  1
  N  N56  1  0.88815667  0.53913404  0.37046397  1
  N  N57  1  0.77968174  0.42682581  0.11663391  1
  N  N58  1  0.55555556  0.53888889  0.86453074  1
  N  N59  1  0.42767389  0.41100722  0.63341929  1
  N  N60  1  0.22270930  0.87149001  0.37046397  1
  N  N61  1  0.11278218  0.76027558  0.11666586  1
  N  N62  1  0.88888889  0.87222223  0.86284951  1
  N  N63  1  0.76015540  0.74348873  0.63030826  1
  N  N64  1  0.55580071  0.87149001  0.37046397  1
  N  N65  1  0.44349247  0.76301508  0.11663391  1
  N  N66  1  0.22002298  0.87584686  0.87609494  1
  N  N67  1  0.14635586  0.74348872  0.63030826  1
  N  N68  1  0.88888889  0.87222222  0.34849764  1
  N  N69  1  0.77694226  0.76027559  0.11666586  1
  N  N70  1  0.55413016  0.87584685  0.87609493  1
  N  N71  1  0.42767388  0.79465222  0.63341928  1
