# generated using pymatgen
data_GdAl17N18
_symmetry_space_group_name_H-M   'P 1'
_cell_length_a   9.51742365
_cell_length_b   9.51742366
_cell_length_c   10.11249136
_cell_angle_alpha   90.00000010
_cell_angle_beta   90.00000000
_cell_angle_gamma   60.00000150
_symmetry_Int_Tables_number   1
_chemical_formula_structural   GdAl17N18
_chemical_formula_sum   'Gd2 Al34 N36'
_cell_volume   793.28200981
_cell_formula_units_Z   2
loop_
 _symmetry_equiv_pos_site_id
 _symmetry_equiv_pos_as_xyz
  1  'x, y, z'
loop_
 _atom_site_type_symbol
 _atom_site_label
 _atom_site_symmetry_multiplicity
 _atom_site_fract_x
 _atom_site_fract_y
 _atom_site_fract_z
 _atom_site_occupancy
  Al  Al0  1  0.11104648  0.09437981  0.39601598  1
  Al  Al1  1  0.22222223  0.20555556  0.14568106  1
  Al  Al2  1  0.77668423  0.09663153  0.90260612  1
  Al  Al3  1  0.89327975  0.20751931  0.64520331  1
  Al  Al4  1  0.44457370  0.09437981  0.39601598  1
  Al  Al5  1  0.55418873  0.20447144  0.14555176  1
  Al  Al6  1  0.11149754  0.09483088  0.89493810  1
  Al  Al7  1  0.22222222  0.20555555  0.64401821  1
  Al  Al8  1  0.77339902  0.10320196  0.39070581  1
  Al  Al9  1  0.89133984  0.20447145  0.14555176  1
  Al  Al10  1  0.44367156  0.09483087  0.89493811  1
  Al  Al11  1  0.54920090  0.20751931  0.64520331  1
  Al  Al12  1  0.11104647  0.42790703  0.39601598  1
  Al  Al13  1  0.22113811  0.53752206  0.14555176  1
  Al  Al14  1  0.77931330  0.42701001  0.90287330  1
  Al  Al15  1  0.89327976  0.53253424  0.64520331  1
  Al  Al16  1  0.43980743  0.42314077  0.39024695  1
  Al  Al17  1  0.55555556  0.53888890  0.14729880  1
  Al  Al18  1  0.11149754  0.42700489  0.89493811  1
  Al  Al19  1  0.22418598  0.53253424  0.64520331  1
  Al  Al20  1  0.78705178  0.42314077  0.39024695  1
  Al  Al21  1  0.89133984  0.53752207  0.14555176  1
  Al  Al22  1  0.44367667  0.42701000  0.90287329  1
  Al  Al23  1  0.11986863  0.75673235  0.39070581  1
  Al  Al24  1  0.22113812  0.87467317  0.14555176  1
  Al  Al25  1  0.77668424  0.76001757  0.90260612  1
  Al  Al26  1  0.43980744  0.77038512  0.39024695  1
  Al  Al27  1  0.55418874  0.87467317  0.14555176  1
  Al  Al28  1  0.11329819  0.76001757  0.90260612  1
  Al  Al29  1  0.22418598  0.87661308  0.64520331  1
  Al  Al30  1  0.77339902  0.75673235  0.39070581  1
  Al  Al31  1  0.88888890  0.87222224  0.14769728  1
  Al  Al32  1  0.44367668  0.76264663  0.90287330  1
  Al  Al33  1  0.54920091  0.87661309  0.64520331  1
  Gd  Gd34  1  0.55555555  0.53888888  0.63609845  1
  Gd  Gd35  1  0.88888889  0.87222222  0.63796436  1
  N  N36  1  0.22222222  0.20555556  0.33742073  1
  N  N37  1  0.11171050  0.09504384  0.08465297  1
  N  N38  1  0.88815649  0.20604267  0.83800295  1
  N  N39  1  0.76015588  0.12968820  0.57815936  1
  N  N40  1  0.55413044  0.20335612  0.33237277  1
  N  N41  1  0.44324565  0.09504384  0.08465297  1
  N  N42  1  0.22222222  0.20555555  0.83491015  1
  N  N43  1  0.11063629  0.09396962  0.58726010  1
  N  N44  1  0.89251343  0.20335613  0.33237277  1
  N  N45  1  0.77694216  0.09611568  0.09180283  1
  N  N46  1  0.55580084  0.20604266  0.83800296  1
  N  N47  1  0.44539407  0.09396962  0.58726011  1
  N  N48  1  0.22002279  0.53746377  0.33237277  1
  N  N49  1  0.11171051  0.42657899  0.08465297  1
  N  N50  1  0.88815649  0.53913418  0.83800295  1
  N  N51  1  0.81131768  0.41100782  0.57504689  1
  N  N52  1  0.55555556  0.53888889  0.34393523  1
  N  N53  1  0.44349218  0.42682552  0.09183412  1
  N  N54  1  0.22270933  0.53913417  0.83800296  1
  N  N55  1  0.11063628  0.42872741  0.58726010  1
  N  N56  1  0.89251343  0.53746377  0.33237277  1
  N  N57  1  0.77968231  0.42682552  0.09183413  1
  N  N58  1  0.55555555  0.53888888  0.85981964  1
  N  N59  1  0.42767449  0.41100782  0.57504688  1
  N  N60  1  0.22002280  0.87584676  0.33237277  1
  N  N61  1  0.11278235  0.76027549  0.09180283  1
  N  N62  1  0.88888889  0.87222222  0.85997270  1
  N  N63  1  0.76015590  0.74348923  0.57815935  1
  N  N64  1  0.55413043  0.87584676  0.33237277  1
  N  N65  1  0.44349219  0.76301564  0.09183413  1
  N  N66  1  0.22270934  0.87148982  0.83800296  1
  N  N67  1  0.14635487  0.74348921  0.57815936  1
  N  N68  1  0.88888890  0.87222223  0.34561866  1
  N  N69  1  0.77694217  0.76027551  0.09180282  1
  N  N70  1  0.55580085  0.87148982  0.83800295  1
  N  N71  1  0.42767448  0.79465101  0.57504689  1
