# generated using pymatgen
data_GdAl17N18
_symmetry_space_group_name_H-M   'P 1'
_cell_length_a   9.51730193
_cell_length_b   9.51730191
_cell_length_c   10.11279300
_cell_angle_alpha   89.99999976
_cell_angle_beta   89.99999963
_cell_angle_gamma   60.00000158
_symmetry_Int_Tables_number   1
_chemical_formula_structural   GdAl17N18
_chemical_formula_sum   'Gd2 Al34 N36'
_cell_volume   793.28537932
_cell_formula_units_Z   2
loop_
 _symmetry_equiv_pos_site_id
 _symmetry_equiv_pos_as_xyz
  1  'x, y, z'
loop_
 _atom_site_type_symbol
 _atom_site_label
 _atom_site_symmetry_multiplicity
 _atom_site_fract_x
 _atom_site_fract_y
 _atom_site_fract_z
 _atom_site_occupancy
  Al  Al0  1  0.11149608  0.09482942  0.29957520  1
  Al  Al1  1  0.22222223  0.20555556  0.04883545  1
  Al  Al2  1  0.77340543  0.10318915  0.80380352  1
  Al  Al3  1  0.89327856  0.20751876  0.54931430  1
  Al  Al4  1  0.44367449  0.09482941  0.29957519  1
  Al  Al5  1  0.55418730  0.20447181  0.04895049  1
  Al  Al6  1  0.11104766  0.09438099  0.79849581  1
  Al  Al7  1  0.22222222  0.20555556  0.55049153  1
  Al  Al8  1  0.77667990  0.09664019  0.29189458  1
  Al  Al9  1  0.89134090  0.20447182  0.04895049  1
  Al  Al10  1  0.44457135  0.09438098  0.79849581  1
  Al  Al11  1  0.54920265  0.20751876  0.54931430  1
  Al  Al12  1  0.11149608  0.42700783  0.29957519  1
  Al  Al13  1  0.22113848  0.53752063  0.04895049  1
  Al  Al14  1  0.78703962  0.42314685  0.80426162  1
  Al  Al15  1  0.89327857  0.53253598  0.54931429  1
  Al  Al16  1  0.44367247  0.42700580  0.29162977  1
  Al  Al17  1  0.55555556  0.53888890  0.04722304  1
  Al  Al18  1  0.11104765  0.42790468  0.79849581  1
  Al  Al19  1  0.22418543  0.53253598  0.54931430  1
  Al  Al20  1  0.77932170  0.42700581  0.29162977  1
  Al  Al21  1  0.89134090  0.53752064  0.04895049  1
  Al  Al22  1  0.43981351  0.42314685  0.80426162  1
  Al  Al23  1  0.11330686  0.76001324  0.29189458  1
  Al  Al24  1  0.22113849  0.87467424  0.04895049  1
  Al  Al25  1  0.77340542  0.75673875  0.80380352  1
  Al  Al26  1  0.44367248  0.76265504  0.29162977  1
  Al  Al27  1  0.55418731  0.87467424  0.04895049  1
  Al  Al28  1  0.11985582  0.75673876  0.80380352  1
  Al  Al29  1  0.22418542  0.87661190  0.54931430  1
  Al  Al30  1  0.77667991  0.76001324  0.29189458  1
  Al  Al31  1  0.88888890  0.87222224  0.04682556  1
  Al  Al32  1  0.43981352  0.77037296  0.80426162  1
  Al  Al33  1  0.54920265  0.87661191  0.54931429  1
  Gd  Gd34  1  0.55555555  0.53888889  0.55837261  1
  Gd  Gd35  1  0.88888889  0.87222222  0.55650341  1
  N  N36  1  0.22222222  0.20555556  0.35960357  1
  N  N37  1  0.11170885  0.09504218  0.10986259  1
  N  N38  1  0.89251207  0.20335696  0.86213465  1
  N  N39  1  0.76016417  0.12967163  0.61635521  1
  N  N40  1  0.55580221  0.20604296  0.35651626  1
  N  N41  1  0.44324898  0.09504218  0.10986259  1
  N  N42  1  0.22222222  0.20555556  0.85709975  1
  N  N43  1  0.11063812  0.09397145  0.60725621  1
  N  N44  1  0.88815483  0.20604297  0.35651626  1
  N  N45  1  0.77693783  0.09612435  0.10270597  1
  N  N46  1  0.55413098  0.20335696  0.86213465  1
  N  N47  1  0.44539041  0.09397145  0.60725621  1
  N  N48  1  0.22270963  0.53913554  0.35651626  1
  N  N49  1  0.11170885  0.42658231  0.10986259  1
  N  N50  1  0.89251207  0.53746430  0.86213465  1
  N  N51  1  0.81130279  0.41101526  0.61946592  1
  N  N52  1  0.55555555  0.53888888  0.33466104  1
  N  N53  1  0.44348837  0.42682170  0.10267635  1
  N  N54  1  0.22002363  0.53746431  0.86213465  1
  N  N55  1  0.11063811  0.42872375  0.60725621  1
  N  N56  1  0.88815482  0.53913555  0.35651626  1
  N  N57  1  0.77968994  0.42682171  0.10267636  1
  N  N58  1  0.55555556  0.53888889  0.85059341  1
  N  N59  1  0.42768194  0.41101527  0.61946592  1
  N  N60  1  0.22270964  0.87148816  0.35651626  1
  N  N61  1  0.11279101  0.76027117  0.10270597  1
  N  N62  1  0.88888890  0.87222223  0.84891278  1
  N  N63  1  0.76016418  0.74349751  0.61635521  1
  N  N64  1  0.55580221  0.87148816  0.35651626  1
  N  N65  1  0.44348837  0.76302327  0.10267636  1
  N  N66  1  0.22002363  0.87584541  0.86213465  1
  N  N67  1  0.14633831  0.74349750  0.61635521  1
  N  N68  1  0.88888889  0.87222222  0.33450402  1
  N  N69  1  0.77693784  0.76027117  0.10270597  1
  N  N70  1  0.55413097  0.87584540  0.86213465  1
  N  N71  1  0.42768192  0.79463613  0.61946592  1
