# generated using pymatgen
data_GdAl17N18
_symmetry_space_group_name_H-M   'P 1'
_cell_length_a   9.51754698
_cell_length_b   9.51754697
_cell_length_c   10.11216621
_cell_angle_alpha   90.00000004
_cell_angle_beta   90.00000003
_cell_angle_gamma   60.00000099
_symmetry_Int_Tables_number   1
_chemical_formula_structural   GdAl17N18
_chemical_formula_sum   'Gd2 Al34 N36'
_cell_volume   793.27705658
_cell_formula_units_Z   2
loop_
 _symmetry_equiv_pos_site_id
 _symmetry_equiv_pos_as_xyz
  1  'x, y, z'
loop_
 _atom_site_type_symbol
 _atom_site_label
 _atom_site_symmetry_multiplicity
 _atom_site_fract_x
 _atom_site_fract_y
 _atom_site_fract_z
 _atom_site_occupancy
  Al  Al0  1  0.11149922  0.09483255  0.31981912  1
  Al  Al1  1  0.22222223  0.20555556  0.06907028  1
  Al  Al2  1  0.77339332  0.10321336  0.82405833  1
  Al  Al3  1  0.89328039  0.20751966  0.56954884  1
  Al  Al4  1  0.44366823  0.09483254  0.31981912  1
  Al  Al5  1  0.55418960  0.20447119  0.06921593  1
  Al  Al6  1  0.11104512  0.09437846  0.81874026  1
  Al  Al7  1  0.22222222  0.20555556  0.57074366  1
  Al  Al8  1  0.77668805  0.09662390  0.31216411  1
  Al  Al9  1  0.89133922  0.20447120  0.06921593  1
  Al  Al10  1  0.44457641  0.09437845  0.81874026  1
  Al  Al11  1  0.54919991  0.20751966  0.56954884  1
  Al  Al12  1  0.11149921  0.42700156  0.31981912  1
  Al  Al13  1  0.22113785  0.53752294  0.06921593  1
  Al  Al14  1  0.78706309  0.42313512  0.82451427  1
  Al  Al15  1  0.89328040  0.53253325  0.56954883  1
  Al  Al16  1  0.44368054  0.42701387  0.31189381  1
  Al  Al17  1  0.55555556  0.53888890  0.06745282  1
  Al  Al18  1  0.11104512  0.42790975  0.81874026  1
  Al  Al19  1  0.22418633  0.53253325  0.56954884  1
  Al  Al20  1  0.77930557  0.42701388  0.31189381  1
  Al  Al21  1  0.89133922  0.53752295  0.06921593  1
  Al  Al22  1  0.43980178  0.42313511  0.82451427  1
  Al  Al23  1  0.11329057  0.76002138  0.31216411  1
  Al  Al24  1  0.22113786  0.87467256  0.06921593  1
  Al  Al25  1  0.77339331  0.75672665  0.82405833  1
  Al  Al26  1  0.44368055  0.76263890  0.31189381  1
  Al  Al27  1  0.55418961  0.87467255  0.06921593  1
  Al  Al28  1  0.11988002  0.75672666  0.82405834  1
  Al  Al29  1  0.22418632  0.87661373  0.56954884  1
  Al  Al30  1  0.77668805  0.76002138  0.31216411  1
  Al  Al31  1  0.88888890  0.87222223  0.06705708  1
  Al  Al32  1  0.43980178  0.77039642  0.82451427  1
  Al  Al33  1  0.54919991  0.87661374  0.56954883  1
  Gd  Gd34  1  0.55555555  0.53888889  0.57869947  1
  Gd  Gd35  1  0.88888888  0.87222222  0.57683776  1
  N  N36  1  0.22222223  0.20555556  0.37984749  1
  N  N37  1  0.11171235  0.09504568  0.13010195  1
  N  N38  1  0.89251515  0.20335548  0.88238993  1
  N  N39  1  0.76014823  0.12970350  0.63659845  1
  N  N40  1  0.55579955  0.20604235  0.37674871  1
  N  N41  1  0.44324198  0.09504568  0.13010194  1
  N  N42  1  0.22222222  0.20555556  0.87732725  1
  N  N43  1  0.11063429  0.09396763  0.62749310  1
  N  N44  1  0.88815810  0.20604237  0.37674871  1
  N  N45  1  0.77694573  0.09610855  0.12295977  1
  N  N46  1  0.55412939  0.20335547  0.88238993  1
  N  N47  1  0.44539807  0.09396762  0.62749311  1
  N  N48  1  0.22270902  0.53913288  0.37674871  1
  N  N49  1  0.11171235  0.42657532  0.13010194  1
  N  N50  1  0.89251514  0.53746271  0.88238993  1
  N  N51  1  0.81133201  0.41100064  0.63971013  1
  N  N52  1  0.55555555  0.53888888  0.35496855  1
  N  N53  1  0.44349559  0.42682893  0.12292622  1
  N  N54  1  0.22002214  0.53746272  0.88238993  1
  N  N55  1  0.11063428  0.42873140  0.62749311  1
  N  N56  1  0.88815809  0.53913288  0.37674871  1
  N  N57  1  0.77967549  0.42682893  0.12292622  1
  N  N58  1  0.55555556  0.53888889  0.87080879  1
  N  N59  1  0.42766732  0.41100066  0.63971013  1
  N  N60  1  0.22270903  0.87149143  0.37674871  1
  N  N61  1  0.11277522  0.76027906  0.12295977  1
  N  N62  1  0.88888889  0.87222223  0.86912633  1
  N  N63  1  0.76014824  0.74348158  0.63659845  1
  N  N64  1  0.55579955  0.87149142  0.37674871  1
  N  N65  1  0.44349560  0.76300882  0.12292622  1
  N  N66  1  0.22002214  0.87584848  0.88238993  1
  N  N67  1  0.14637016  0.74348157  0.63659845  1
  N  N68  1  0.88888889  0.87222222  0.35481956  1
  N  N69  1  0.77694574  0.76027907  0.12295977  1
  N  N70  1  0.55412938  0.87584848  0.88238993  1
  N  N71  1  0.42766731  0.79466535  0.63971013  1
