# generated using pymatgen
data_GdAl17N18
_symmetry_space_group_name_H-M   'P 1'
_cell_length_a   9.96716312
_cell_length_b   9.96716345
_cell_length_c   8.83802035
_cell_angle_alpha   89.99998551
_cell_angle_beta   89.99997784
_cell_angle_gamma   60.00001170
_symmetry_Int_Tables_number   1
_chemical_formula_structural   GdAl17N18
_chemical_formula_sum   'Gd2 Al34 N36'
_cell_volume   760.37674492
_cell_formula_units_Z   2
loop_
 _symmetry_equiv_pos_site_id
 _symmetry_equiv_pos_as_xyz
  1  'x, y, z'
loop_
 _atom_site_type_symbol
 _atom_site_label
 _atom_site_symmetry_multiplicity
 _atom_site_fract_x
 _atom_site_fract_y
 _atom_site_fract_z
 _atom_site_occupancy
  Al  Al0  1  0.11279540  0.09612859  0.34065723  1
  Al  Al1  1  0.22222209  0.20555538  0.08579934  1
  Al  Al2  1  0.77367132  0.10265747  0.85492029  1
  Al  Al3  1  0.89287259  0.20637869  0.58765653  1
  Al  Al4  1  0.44107570  0.09612881  0.34065693  1
  Al  Al5  1  0.55274724  0.20399098  0.09341711  1
  Al  Al6  1  0.11040057  0.09373382  0.83952133  1
  Al  Al7  1  0.22222226  0.20555567  0.59544629  1
  Al  Al8  1  0.77527206  0.09945554  0.33201621  1
  Al  Al9  1  0.89326198  0.20399083  0.09341755  1
  Al  Al10  1  0.44586554  0.09373395  0.83952265  1
  Al  Al11  1  0.55074842  0.20637884  0.58765677  1
  Al  Al12  1  0.11279541  0.42440931  0.34065692  1
  Al  Al13  1  0.22065771  0.53608053  0.09341633  1
  Al  Al14  1  0.78733843  0.42299738  0.85254652  1
  Al  Al15  1  0.89287302  0.53408163  0.58765768  1
  Al  Al16  1  0.44223251  0.42556612  0.33110336  1
  Al  Al17  1  0.55555564  0.53888873  0.09753484  1
  Al  Al18  1  0.11040074  0.42919872  0.83952281  1
  Al  Al19  1  0.22304554  0.53408194  0.58765647  1
  Al  Al20  1  0.78220147  0.42556583  0.33110457  1
  Al  Al21  1  0.89326169  0.53608070  0.09341802  1
  Al  Al22  1  0.43966402  0.42299713  0.85254548  1
  Al  Al23  1  0.11612207  0.75860548  0.33201431  1
  Al  Al24  1  0.22065735  0.87659543  0.09341619  1
  Al  Al25  1  0.77367151  0.75700490  0.85492101  1
  Al  Al26  1  0.44223252  0.76553449  0.33110228  1
  Al  Al27  1  0.55274745  0.87659516  0.09341745  1
  Al  Al28  1  0.11932500  0.75700425  0.85491868  1
  Al  Al29  1  0.22304569  0.87620570  0.58765547  1
  Al  Al30  1  0.77527197  0.75860536  0.33201799  1
  Al  Al31  1  0.88888886  0.87222212  0.09884437  1
  Al  Al32  1  0.43966373  0.77067262  0.85254577  1
  Al  Al33  1  0.55074801  0.87620634  0.58765691  1
  Gd  Gd34  1  0.55555514  0.53888944  0.60337009  1
  Gd  Gd35  1  0.88888944  0.87222213  0.60357499  1
  N  N36  1  0.22222215  0.20555570  0.37329341  1
  N  N37  1  0.11334365  0.09667681  0.11974551  1
  N  N38  1  0.89330275  0.20286923  0.87441187  1
  N  N39  1  0.76159786  0.12680406  0.62170371  1
  N  N40  1  0.55493406  0.20524516  0.36068746  1
  N  N41  1  0.43997934  0.09667703  0.11974450  1
  N  N42  1  0.22222212  0.20555535  0.86125076  1
  N  N43  1  0.10976837  0.09310151  0.61525401  1
  N  N44  1  0.88982067  0.20524477  0.36068724  1
  N  N45  1  0.77604289  0.09791409  0.11149311  1
  N  N46  1  0.55382833  0.20286918  0.87441197  1
  N  N47  1  0.44712976  0.09310187  0.61525470  1
  N  N48  1  0.22191151  0.53826799  0.36068801  1
  N  N49  1  0.11334375  0.42331272  0.11974440  1
  N  N50  1  0.89330232  0.53716183  0.87441149  1
  N  N51  1  0.80878451  0.41227427  0.62402411  1
  N  N52  1  0.55555539  0.53888906  0.34005502  1
  N  N53  1  0.44260679  0.42594019  0.11136584  1
  N  N54  1  0.21953611  0.53716125  0.87441218  1
  N  N55  1  0.10976858  0.43046322  0.61525490  1
  N  N56  1  0.88982110  0.53826718  0.36068702  1
  N  N57  1  0.78145295  0.42594010  0.11136580  1
  N  N58  1  0.55555555  0.53888887  0.87295955  1
  N  N59  1  0.42894089  0.41227426  0.62402558  1
  N  N60  1  0.22191179  0.87315345  0.36068800  1
  N  N61  1  0.11458094  0.75937614  0.11149295  1
  N  N62  1  0.88888910  0.87222211  0.87272310  1
  N  N63  1  0.76159792  0.74493157  0.62170153  1
  N  N64  1  0.55493345  0.87315416  0.36068722  1
  N  N65  1  0.44260671  0.76478635  0.11136521  1
  N  N66  1  0.21953565  0.87663647  0.87441254  1
  N  N67  1  0.14347158  0.74493092  0.62170636  1
  N  N68  1  0.88888909  0.87222218  0.34063827  1
  N  N69  1  0.77604292  0.75937626  0.11149374  1
  N  N70  1  0.55382875  0.87663590  0.87441195  1
  N  N71  1  0.42894050  0.79211869  0.62402681  1
