# generated using pymatgen
data_Sc2Al34N35
_symmetry_space_group_name_H-M   'P 1'
_cell_length_a   9.52135935
_cell_length_b   9.52808914
_cell_length_c   9.75026594
_cell_angle_alpha   90.02513732
_cell_angle_beta   89.99999312
_cell_angle_gamma   60.02330616
_symmetry_Int_Tables_number   1
_chemical_formula_structural   Sc2Al34N35
_chemical_formula_sum   'Sc2 Al34 N35'
_cell_volume   766.22047111
_cell_formula_units_Z   1
loop_
 _symmetry_equiv_pos_site_id
 _symmetry_equiv_pos_as_xyz
  1  'x, y, z'
loop_
 _atom_site_type_symbol
 _atom_site_label
 _atom_site_symmetry_multiplicity
 _atom_site_fract_x
 _atom_site_fract_y
 _atom_site_fract_z
 _atom_site_occupancy
  Al  Al0  1  0.10891539  0.09902930  0.37410373  1
  Al  Al1  1  0.22281557  0.21120743  0.07852227  1
  Al  Al2  1  0.77353408  0.09470377  0.82731594  1
  Al  Al3  1  0.87809041  0.21067921  0.57438194  1
  Al  Al4  1  0.44749621  0.09219300  0.32615546  1
  Al  Al5  1  0.55596074  0.20493852  0.07663604  1
  Al  Al6  1  0.22809037  0.21067927  0.57438192  1
  Al  Al7  1  0.77717086  0.09219298  0.32615545  1
  Al  Al8  1  0.88283698  0.21120740  0.07852224  1
  Al  Al9  1  0.44862217  0.09470386  0.82731596  1
  Al  Al10  1  0.55558606  0.20568790  0.57594630  1
  Al  Al11  1  0.11004174  0.43003546  0.32614348  1
  Al  Al12  1  0.22244419  0.53576750  0.07553420  1
  Al  Al13  1  0.77324612  0.43234111  0.82688654  1
  Al  Al14  1  0.88871594  0.53942811  0.57676729  1
  Al  Al15  1  0.44505735  0.42674535  0.32625048  1
  Al  Al16  1  0.55864824  0.53576754  0.07553421  1
  Al  Al17  1  0.11127280  0.43234112  0.82688654  1
  Al  Al18  1  0.22396785  0.53712968  0.57753097  1
  Al  Al19  1  0.77678286  0.43003542  0.32614346  1
  Al  Al20  1  0.88878294  0.53929407  0.07668134  1
  Al  Al21  1  0.44489124  0.42707759  0.82777586  1
  Al  Al22  1  0.55576247  0.53712965  0.57753096  1
  Al  Al23  1  0.10664955  0.75532344  0.32915135  1
  Al  Al24  1  0.77832056  0.76021887  0.82653587  1
  Al  Al25  1  0.88775428  0.87194774  0.57802139  1
  Al  Al26  1  0.45488708  0.75532343  0.32915135  1
  Al  Al27  1  0.56008615  0.86967304  0.07510473  1
  Al  Al28  1  0.11214125  0.75816959  0.82626052  1
  Al  Al29  1  0.22676908  0.86332179  0.57205158  1
  Al  Al30  1  0.77794775  0.76096449  0.32654708  1
  Al  Al31  1  0.88710082  0.86967294  0.07510474  1
  Al  Al32  1  0.44654919  0.75816958  0.82626052  1
  Al  Al33  1  0.55715789  0.87194780  0.57802141  1
  Sc  Sc34  1  0.10939662  0.09806693  0.82431667  1
  Sc  Sc35  1  0.21807263  0.88071462  0.10026019  1
  N  N36  1  0.22534280  0.20828071  0.37832336  1
  N  N37  1  0.86902940  0.21578211  0.88471587  1
  N  N38  1  0.77699289  0.09415427  0.63158129  1
  N  N39  1  0.55598748  0.20488495  0.38054773  1
  N  N40  1  0.44533116  0.09144000  0.13165429  1
  N  N41  1  0.23204838  0.21578217  0.88471590  1
  N  N42  1  0.11128719  0.09428578  0.59984866  1
  N  N43  1  0.88323642  0.20828067  0.37832332  1
  N  N44  1  0.78008900  0.09143994  0.13165427  1
  N  N45  1  0.55569698  0.20546597  0.88239300  1
  N  N46  1  0.44571295  0.09415432  0.63158130  1
  N  N47  1  0.22411288  0.53614044  0.38318672  1
  N  N48  1  0.10962804  0.42830888  0.13238034  1
  N  N49  1  0.88923313  0.53839363  0.88106679  1
  N  N50  1  0.77773781  0.42837308  0.63146054  1
  N  N51  1  0.55660660  0.53614045  0.38318671  1
  N  N52  1  0.44501261  0.42683490  0.13059742  1
  N  N53  1  0.22268250  0.53943305  0.88063977  1
  N  N54  1  0.11074921  0.42837314  0.63146053  1
  N  N55  1  0.88891850  0.53902287  0.38164725  1
  N  N56  1  0.77892319  0.42830884  0.13238034  1
  N  N57  1  0.55474435  0.53943307  0.88063977  1
  N  N58  1  0.44521079  0.42643854  0.63218074  1
  N  N59  1  0.22346298  0.86993397  0.36732107  1
  N  N60  1  0.10194543  0.75033236  0.13627597  1
  N  N61  1  0.88925509  0.87200852  0.87954430  1
  N  N62  1  0.77835100  0.76015806  0.63206243  1
  N  N63  1  0.55714644  0.87250928  0.38364619  1
  N  N64  1  0.46458231  0.75033241  0.13627596  1
  N  N65  1  0.22928084  0.85829816  0.88248101  1
  N  N66  1  0.11156949  0.76039170  0.62868169  1
  N  N67  1  0.88720416  0.87250926  0.38364618  1
  N  N68  1  0.77816935  0.76052134  0.13109101  1
  N  N69  1  0.55559620  0.87200859  0.87954427  1
  N  N70  1  0.44489889  0.76039170  0.62868172  1
