# generated using pymatgen
data_Sc2Al34N35
_symmetry_space_group_name_H-M   'P 1'
_cell_length_a   9.46237220
_cell_length_b   9.47268819
_cell_length_c   9.90545366
_cell_angle_alpha   90.03916778
_cell_angle_beta   89.99999491
_cell_angle_gamma   60.03597716
_symmetry_Int_Tables_number   1
_chemical_formula_structural   Sc2Al34N35
_chemical_formula_sum   'Sc2 Al34 N35'
_cell_volume   769.19325309
_cell_formula_units_Z   1
loop_
 _symmetry_equiv_pos_site_id
 _symmetry_equiv_pos_as_xyz
  1  'x, y, z'
loop_
 _atom_site_type_symbol
 _atom_site_label
 _atom_site_symmetry_multiplicity
 _atom_site_fract_x
 _atom_site_fract_y
 _atom_site_fract_z
 _atom_site_occupancy
  Al  Al0  1  0.10910615  0.09864779  0.37518918  1
  Al  Al1  1  0.22172548  0.21126666  0.07597861  1
  Al  Al2  1  0.77356438  0.09464188  0.82627625  1
  Al  Al3  1  0.87762904  0.21089219  0.57317369  1
  Al  Al4  1  0.44712696  0.09238253  0.32463303  1
  Al  Al5  1  0.55592772  0.20500458  0.07537551  1
  Al  Al6  1  0.22833883  0.21089223  0.57317367  1
  Al  Al7  1  0.77735058  0.09238253  0.32463302  1
  Al  Al8  1  0.88386788  0.21126665  0.07597859  1
  Al  Al9  1  0.44865381  0.09464195  0.82627627  1
  Al  Al10  1  0.55572708  0.20540588  0.57479257  1
  Al  Al11  1  0.11019844  0.42974450  0.32465149  1
  Al  Al12  1  0.22265548  0.53569346  0.07453283  1
  Al  Al13  1  0.77323144  0.43249837  0.82582540  1
  Al  Al14  1  0.88873475  0.53939047  0.57542566  1
  Al  Al15  1  0.44510719  0.42664565  0.32539109  1
  Al  Al16  1  0.55851102  0.53569348  0.07453283  1
  Al  Al17  1  0.11113023  0.43249840  0.82582540  1
  Al  Al18  1  0.22368780  0.53730493  0.57625722  1
  Al  Al19  1  0.77691708  0.42974448  0.32465148  1
  Al  Al20  1  0.88866022  0.53953952  0.07558286  1
  Al  Al21  1  0.44486701  0.42712603  0.82639166  1
  Al  Al22  1  0.55586727  0.53730490  0.57625722  1
  Al  Al23  1  0.10695837  0.75529045  0.32734525  1
  Al  Al24  1  0.77823055  0.76039891  0.82518530  1
  Al  Al25  1  0.88797100  0.87192204  0.57657023  1
  Al  Al26  1  0.45461125  0.75529045  0.32734525  1
  Al  Al27  1  0.56002458  0.86971789  0.07412662  1
  Al  Al28  1  0.11214970  0.75808701  0.82539928  1
  Al  Al29  1  0.22727348  0.86231308  0.57013598  1
  Al  Al30  1  0.77793124  0.76099753  0.32558328  1
  Al  Al31  1  0.88711757  0.86971784  0.07412663  1
  Al  Al32  1  0.44662335  0.75808698  0.82539929  1
  Al  Al33  1  0.55696692  0.87192208  0.57657025  1
  Sc  Sc34  1  0.10973349  0.09739318  0.82023250  1
  Sc  Sc35  1  0.21730464  0.88225069  0.09724836  1
  N  N36  1  0.22567520  0.20872668  0.38039811  1
  N  N37  1  0.86979473  0.21553748  0.88541923  1
  N  N38  1  0.77711354  0.09395337  0.63329825  1
  N  N39  1  0.55611782  0.20462431  0.38195741  1
  N  N40  1  0.44449666  0.09172587  0.13270026  1
  N  N41  1  0.23152774  0.21553754  0.88541926  1
  N  N42  1  0.11149727  0.09386565  0.59904031  1
  N  N43  1  0.88245809  0.20872666  0.38039810  1
  N  N44  1  0.78063761  0.09172584  0.13270024  1
  N  N45  1  0.55560456  0.20565088  0.88384861  1
  N  N46  1  0.44579321  0.09395340  0.63329827  1
  N  N47  1  0.22387826  0.53630723  0.38452743  1
  N  N48  1  0.10968450  0.42803336  0.13355175  1
  N  N49  1  0.88903858  0.53878277  0.88263587  1
  N  N50  1  0.77778557  0.42841749  0.63315741  1
  N  N51  1  0.55667442  0.53630724  0.38452742  1
  N  N52  1  0.44510801  0.42664407  0.13238325  1
  N  N53  1  0.22279610  0.53936119  0.88235298  1
  N  N54  1  0.11065702  0.42841753  0.63315740  1
  N  N55  1  0.88900284  0.53885422  0.38291532  1
  N  N56  1  0.77914222  0.42803333  0.13355175  1
  N  N57  1  0.55470266  0.53936118  0.88235298  1
  N  N58  1  0.44520865  0.42644279  0.63336889  1
  N  N59  1  0.22394668  0.86896660  0.36929699  1
  N  N60  1  0.10219280  0.75046197  0.13759372  1
  N  N61  1  0.88918811  0.87202076  0.88129094  1
  N  N62  1  0.77830798  0.76024413  0.63324860  1
  N  N63  1  0.55676144  0.87262079  0.38481228  1
  N  N64  1  0.46420534  0.75046200  0.13759370  1
  N  N65  1  0.22916369  0.85853253  0.88398369  1
  N  N66  1  0.11158291  0.76037070  0.63066297  1
  N  N67  1  0.88747770  0.87262077  0.38481226  1
  N  N68  1  0.77808139  0.76069731  0.13284458  1
  N  N69  1  0.55565102  0.87202080  0.88129094  1
  N  N70  1  0.44490651  0.76037068  0.63066299  1
