# generated using pymatgen
data_Sc2Al34N35
_symmetry_space_group_name_H-M   'P 1'
_cell_length_a   9.42445995
_cell_length_b   9.43319293
_cell_length_c   9.99338458
_cell_angle_alpha   90.12941962
_cell_angle_beta   90.00001527
_cell_angle_gamma   60.03060442
_symmetry_Int_Tables_number   1
_chemical_formula_structural   Sc2Al34N35
_chemical_formula_sum   'Sc2 Al34 N35'
_cell_volume   769.64560943
_cell_formula_units_Z   1
loop_
 _symmetry_equiv_pos_site_id
 _symmetry_equiv_pos_as_xyz
  1  'x, y, z'
loop_
 _atom_site_type_symbol
 _atom_site_label
 _atom_site_symmetry_multiplicity
 _atom_site_fract_x
 _atom_site_fract_y
 _atom_site_fract_z
 _atom_site_occupancy
  Al  Al0  1  0.11083603  0.09515839  0.39549929  1
  Al  Al1  1  0.22282175  0.21111185  0.13980761  1
  Al  Al2  1  0.77400730  0.09446721  0.88541777  1
  Al  Al3  1  0.88042821  0.20978506  0.63323782  1
  Al  Al4  1  0.44694882  0.09236016  0.38543810  1
  Al  Al5  1  0.55561121  0.20560807  0.13600930  1
  Al  Al6  1  0.22661716  0.20978507  0.63323781  1
  Al  Al7  1  0.77752148  0.09236017  0.38543812  1
  Al  Al8  1  0.88289684  0.21111185  0.13980763  1
  Al  Al9  1  0.44835607  0.09446725  0.88541775  1
  Al  Al10  1  0.55592633  0.20497782  0.63604465  1
  Al  Al11  1  0.10981657  0.42951931  0.38572141  1
  Al  Al12  1  0.22313177  0.53554855  0.13639305  1
  Al  Al13  1  0.77231398  0.43261501  0.88519772  1
  Al  Al14  1  0.88894164  0.53894708  0.63545800  1
  Al  Al15  1  0.44508002  0.42667036  0.38615238  1
  Al  Al16  1  0.55815009  0.53554855  0.13639303  1
  Al  Al17  1  0.11190145  0.43261510  0.88519772  1
  Al  Al18  1  0.22308307  0.53766556  0.63572333  1
  Al  Al19  1  0.77749451  0.42951931  0.38572142  1
  Al  Al20  1  0.88854007  0.53975024  0.13546558  1
  Al  Al21  1  0.44475771  0.42731506  0.88462852  1
  Al  Al22  1  0.55608177  0.53766552  0.63572337  1
  Al  Al23  1  0.11043044  0.75917888  0.38931526  1
  Al  Al24  1  0.77777978  0.76127090  0.88511414  1
  Al  Al25  1  0.88801990  0.87220878  0.63565386  1
  Al  Al26  1  0.44722113  0.75917883  0.38931526  1
  Al  Al27  1  0.56030988  0.86924372  0.13672999  1
  Al  Al28  1  0.10937169  0.75560363  0.88372100  1
  Al  Al29  1  0.22526190  0.86630656  0.63614583  1
  Al  Al30  1  0.77833188  0.76016669  0.38659876  1
  Al  Al31  1  0.88727688  0.86924372  0.13673000  1
  Al  Al32  1  0.45185511  0.75560358  0.88372100  1
  Al  Al33  1  0.55660175  0.87220876  0.63565385  1
  Sc  Sc34  1  0.10653009  0.10377038  0.87176174  1
  Sc  Sc35  1  0.21859949  0.87963138  0.13192572  1
  N  N36  1  0.22156813  0.20395692  0.32968706  1
  N  N37  1  0.86509007  0.21780413  0.82191793  1
  N  N38  1  0.77708491  0.09313645  0.57527712  1
  N  N39  1  0.55602709  0.20477617  0.32602421  1
  N  N40  1  0.44334177  0.09243441  0.07812348  1
  N  N41  1  0.23393632  0.21780419  0.82191790  1
  N  N42  1  0.11055228  0.09572593  0.59007576  1
  N  N43  1  0.89130536  0.20395693  0.32968707  1
  N  N44  1  0.78105432  0.09243440  0.07812351  1
  N  N45  1  0.55585689  0.20511663  0.82764692  1
  N  N46  1  0.44660911  0.09313644  0.57527713  1
  N  N47  1  0.22295214  0.53801761  0.32722564  1
  N  N48  1  0.11058539  0.42609865  0.07697612  1
  N  N49  1  0.88930608  0.53821826  0.82751627  1
  N  N50  1  0.77723018  0.42934271  0.57530861  1
  N  N51  1  0.55586059  0.53801760  0.32722564  1
  N  N52  1  0.44520905  0.42641232  0.07687413  1
  N  N53  1  0.22361469  0.53811738  0.82595001  1
  N  N54  1  0.11025752  0.42934270  0.57530859  1
  N  N55  1  0.88898989  0.53885055  0.32612226  1
  N  N56  1  0.78014641  0.42609865  0.07697614  1
  N  N57  1  0.55509833  0.53811740  0.82595005  1
  N  N58  1  0.44512003  0.42659035  0.57714739  1
  N  N59  1  0.22184722  0.87313595  0.34104957  1
  N  N60  1  0.10403671  0.75189598  0.07377259  1
  N  N61  1  0.88777081  0.87312519  0.82664093  1
  N  N62  1  0.77824585  0.76033872  0.57734069  1
  N  N63  1  0.55638241  0.87080579  0.32750302  1
  N  N64  1  0.46089774  0.75189603  0.07377264  1
  N  N65  1  0.23030275  0.85622487  0.83120785  1
  N  N66  1  0.11054177  0.75968179  0.57961654  1
  N  N67  1  0.88964214  0.87080580  0.32750303  1
  N  N68  1  0.77828533  0.76025980  0.07627984  1
  N  N69  1  0.55593435  0.87312521  0.82664095  1
  N  N70  1  0.44660688  0.75968178  0.57961655  1
