# generated using pymatgen
data_Sc2Al34N35
_symmetry_space_group_name_H-M   'P 1'
_cell_length_a   9.57485089
_cell_length_b   9.58118556
_cell_length_c   9.58402274
_cell_angle_alpha   90.08854969
_cell_angle_beta   90.00000914
_cell_angle_gamma   60.02193640
_symmetry_Int_Tables_number   1
_chemical_formula_structural   Sc2Al34N35
_chemical_formula_sum   'Sc2 Al34 N35'
_cell_volume   761.59661147
_cell_formula_units_Z   1
loop_
 _symmetry_equiv_pos_site_id
 _symmetry_equiv_pos_as_xyz
  1  'x, y, z'
loop_
 _atom_site_type_symbol
 _atom_site_label
 _atom_site_symmetry_multiplicity
 _atom_site_fract_x
 _atom_site_fract_y
 _atom_site_fract_z
 _atom_site_occupancy
  Al  Al0  1  0.11069314  0.09547299  0.39017309  1
  Al  Al1  1  0.22159977  0.20964897  0.12927500  1
  Al  Al2  1  0.77358489  0.09369308  0.88143774  1
  Al  Al3  1  0.87631302  0.21169599  0.62778906  1
  Al  Al4  1  0.44617887  0.09294138  0.37721363  1
  Al  Al5  1  0.55521161  0.20643619  0.13010342  1
  Al  Al6  1  0.22885038  0.21169591  0.62778908  1
  Al  Al7  1  0.77773906  0.09294139  0.37721361  1
  Al  Al8  1  0.88561069  0.20964898  0.12927501  1
  Al  Al9  1  0.44958126  0.09369304  0.88143771  1
  Al  Al10  1  0.55618255  0.20449427  0.62997898  1
  Al  Al11  1  0.10976009  0.42906957  0.37793553  1
  Al  Al12  1  0.22368785  0.53507725  0.13156368  1
  Al  Al13  1  0.77208393  0.43309205  0.88116866  1
  Al  Al14  1  0.88931736  0.53822477  0.62940159  1
  Al  Al15  1  0.44512280  0.42661375  0.38105897  1
  Al  Al16  1  0.55809432  0.53507719  0.13156369  1
  Al  Al17  1  0.11168337  0.43309201  0.88116864  1
  Al  Al18  1  0.22288174  0.53766504  0.62882609  1
  Al  Al19  1  0.77802968  0.42906959  0.37793551  1
  Al  Al20  1  0.88814318  0.54057313  0.12970260  1
  Al  Al21  1  0.44486240  0.42713451  0.87795333  1
  Al  Al22  1  0.55631267  0.53766504  0.62882607  1
  Al  Al23  1  0.11060937  0.76022499  0.38085790  1
  Al  Al24  1  0.77787059  0.76111818  0.87778210  1
  Al  Al25  1  0.88802344  0.87271869  0.62871546  1
  Al  Al26  1  0.44602499  0.76022498  0.38085792  1
  Al  Al27  1  0.56115857  0.86900472  0.13150744  1
  Al  Al28  1  0.10846466  0.75424658  0.87843318  1
  Al  Al29  1  0.22670579  0.86344783  0.62984445  1
  Al  Al30  1  0.77840611  0.76004715  0.38197878  1
  Al  Al31  1  0.88669617  0.86900474  0.13150743  1
  Al  Al32  1  0.45414815  0.75424651  0.87843317  1
  Al  Al33  1  0.55611736  0.87271868  0.62871546  1
  Sc  Sc34  1  0.10667750  0.10350408  0.84961444  1
  Sc  Sc35  1  0.21867751  0.87950469  0.11520515  1
  N  N36  1  0.22055303  0.20356797  0.32861544  1
  N  N37  1  0.86291255  0.21855055  0.82590234  1
  N  N38  1  0.77674271  0.09358528  0.57495758  1
  N  N39  1  0.55560984  0.20563977  0.32715733  1
  N  N40  1  0.44461515  0.09208964  0.08068642  1
  N  N41  1  0.23539627  0.21855046  0.82590238  1
  N  N42  1  0.11033920  0.09618076  0.59601351  1
  N  N43  1  0.89273845  0.20356798  0.32861546  1
  N  N44  1  0.78015439  0.09208969  0.08068644  1
  N  N45  1  0.55625330  0.20435277  0.82889456  1
  N  N46  1  0.44653120  0.09358527  0.57495761  1
  N  N47  1  0.22345109  0.53795480  0.32938646  1
  N  N48  1  0.11032806  0.42741651  0.07969507  1
  N  N49  1  0.88973947  0.53738058  0.82861136  1
  N  N50  1  0.77730159  0.42928938  0.57534891  1
  N  N51  1  0.55545361  0.53795480  0.32938647  1
  N  N52  1  0.44493821  0.42698278  0.07741459  1
  N  N53  1  0.22335677  0.53781162  0.82639289  1
  N  N54  1  0.11026835  0.42928932  0.57534895  1
  N  N55  1  0.88857911  0.53970131  0.32752604  1
  N  N56  1  0.77911467  0.42741654  0.07969511  1
  N  N57  1  0.55569112  0.53781158  0.82639286  1
  N  N58  1  0.44526888  0.42632150  0.57912577  1
  N  N59  1  0.22059874  0.87566200  0.33751150  1
  N  N60  1  0.10307560  0.75079921  0.07646868  1
  N  N61  1  0.88782249  0.87335548  0.82699087  1
  N  N62  1  0.77837829  0.76010273  0.57972617  1
  N  N63  1  0.55713198  0.87073655  0.32944237  1
  N  N64  1  0.46298458  0.75079910  0.07646866  1
  N  N65  1  0.23114223  0.85457511  0.83790291  1
  N  N66  1  0.11080647  0.76000021  0.57975325  1
  N  N67  1  0.88899099  0.87073656  0.32944237  1
  N  N68  1  0.77820856  0.76044216  0.07629856  1
  N  N69  1  0.55568157  0.87335543  0.82699087  1
  N  N70  1  0.44605257  0.76000023  0.57975325  1
