# generated using pymatgen
data_Sc2Al34N35
_symmetry_space_group_name_H-M   'P 1'
_cell_length_a   9.62912480
_cell_length_b   9.63410071
_cell_length_c   9.42617209
_cell_angle_alpha   90.08632827
_cell_angle_beta   90.00000864
_cell_angle_gamma   60.01714970
_symmetry_Int_Tables_number   1
_chemical_formula_structural   Sc2Al34N35
_chemical_formula_sum   'Sc2 Al34 N35'
_cell_volume   757.42277836
_cell_formula_units_Z   1
loop_
 _symmetry_equiv_pos_site_id
 _symmetry_equiv_pos_as_xyz
  1  'x, y, z'
loop_
 _atom_site_type_symbol
 _atom_site_label
 _atom_site_symmetry_multiplicity
 _atom_site_fract_x
 _atom_site_fract_y
 _atom_site_fract_z
 _atom_site_occupancy
  Al  Al0  1  0.11040824  0.09604280  0.38877889  1
  Al  Al1  1  0.22166456  0.20936157  0.12638048  1
  Al  Al2  1  0.77352137  0.09345407  0.88029826  1
  Al  Al3  1  0.87621244  0.21174016  0.62654716  1
  Al  Al4  1  0.44594144  0.09307957  0.37491873  1
  Al  Al5  1  0.55509557  0.20666826  0.12849995  1
  Al  Al6  1  0.22890677  0.21174004  0.62654732  1
  Al  Al7  1  0.77783832  0.09307958  0.37491867  1
  Al  Al8  1  0.88583337  0.20936155  0.12638057  1
  Al  Al9  1  0.44988367  0.09345402  0.88029821  1
  Al  Al10  1  0.55623125  0.20439681  0.62811180  1
  Al  Al11  1  0.10982179  0.42880323  0.37575337  1
  Al  Al12  1  0.22380748  0.53509329  0.13010110  1
  Al  Al13  1  0.77209787  0.43326989  0.87996958  1
  Al  Al14  1  0.88947143  0.53791670  0.62757678  1
  Al  Al15  1  0.44514296  0.42657346  0.37969309  1
  Al  Al16  1  0.55795862  0.53509329  0.13010115  1
  Al  Al17  1  0.11149168  0.43326973  0.87996956  1
  Al  Al18  1  0.22285118  0.53758193  0.62690913  1
  Al  Al19  1  0.77823436  0.42880324  0.37575335  1
  Al  Al20  1  0.88804265  0.54077426  0.12816396  1
  Al  Al21  1  0.44485677  0.42714573  0.87601405  1
  Al  Al22  1  0.55642636  0.53758197  0.62690906  1
  Al  Al23  1  0.11040172  0.76015564  0.37893019  1
  Al  Al24  1  0.77788745  0.76108437  0.87554207  1
  Al  Al25  1  0.88799440  0.87291783  0.62680414  1
  Al  Al26  1  0.44630197  0.76015566  0.37893021  1
  Al  Al27  1  0.56134338  0.86894195  0.12996936  1
  Al  Al28  1  0.10849353  0.75437855  0.87657403  1
  Al  Al29  1  0.22655037  0.86375873  0.62665654  1
  Al  Al30  1  0.77843835  0.75998266  0.38081914  1
  Al  Al31  1  0.88657408  0.86894190  0.12996938  1
  Al  Al32  1  0.45398730  0.75437861  0.87657404  1
  Al  Al33  1  0.55594723  0.87291786  0.62680417  1
  Sc  Sc34  1  0.10683502  0.10318942  0.84802143  1
  Sc  Sc35  1  0.21897106  0.87891754  0.11289337  1
  N  N36  1  0.22038793  0.20341137  0.32944259  1
  N  N37  1  0.86354842  0.21815079  0.82899411  1
  N  N38  1  0.77679734  0.09382642  0.57638622  1
  N  N39  1  0.55552058  0.20581831  0.32899493  1
  N  N40  1  0.44506313  0.09202008  0.08293504  1
  N  N41  1  0.23515995  0.21815061  0.82899416  1
  N  N42  1  0.11008940  0.09668027  0.59698273  1
  N  N43  1  0.89306014  0.20341140  0.32944260  1
  N  N44  1  0.77977602  0.09202012  0.08293503  1
  N  N45  1  0.55631427  0.20423105  0.83064355  1
  N  N46  1  0.44623547  0.09382642  0.57638621  1
  N  N47  1  0.22359480  0.53784497  0.33143188  1
  N  N48  1  0.11024354  0.42778510  0.08195299  1
  N  N49  1  0.88983117  0.53719711  0.83028136  1
  N  N50  1  0.77744615  0.42899611  0.57686642  1
  N  N51  1  0.55541976  0.53784496  0.33143188  1
  N  N52  1  0.44485627  0.42714674  0.07897641  1
  N  N53  1  0.22327595  0.53776134  0.82805770  1
  N  N54  1  0.11041704  0.42899612  0.57686639  1
  N  N55  1  0.88850763  0.53984428  0.32948220  1
  N  N56  1  0.77883062  0.42778507  0.08195297  1
  N  N57  1  0.55582231  0.53776119  0.82805767  1
  N  N58  1  0.44528963  0.42628007  0.58117985  1
  N  N59  1  0.22041853  0.87602238  0.33982767  1
  N  N60  1  0.10306999  0.75091899  0.07874731  1
  N  N61  1  0.88783973  0.87344413  0.82859194  1
  N  N62  1  0.77840507  0.76004922  0.58198435  1
  N  N63  1  0.55736797  0.87068078  0.33146966  1
  N  N64  1  0.46287034  0.75091884  0.07874730  1
  N  N65  1  0.23089905  0.85506137  0.83989123  1
  N  N66  1  0.11074136  0.75997769  0.58147914  1
  N  N67  1  0.88881076  0.87068078  0.33146964  1
  N  N68  1  0.77822368  0.76041192  0.07766032  1
  N  N69  1  0.55557575  0.87344400  0.82859194  1
  N  N70  1  0.44614019  0.75997768  0.58147915  1
