# generated using pymatgen
data_Sc2Al34N35
_symmetry_space_group_name_H-M   'P 1'
_cell_length_a   9.42126102
_cell_length_b   9.42977610
_cell_length_c   10.00162632
_cell_angle_alpha   90.13516584
_cell_angle_beta   90.00000113
_cell_angle_gamma   60.02986694
_symmetry_Int_Tables_number   1
_chemical_formula_structural   Sc2Al34N35
_chemical_formula_sum   'Sc2 Al34 N35'
_cell_volume   769.73403378
_cell_formula_units_Z   1
loop_
 _symmetry_equiv_pos_site_id
 _symmetry_equiv_pos_as_xyz
  1  'x, y, z'
loop_
 _atom_site_type_symbol
 _atom_site_label
 _atom_site_symmetry_multiplicity
 _atom_site_fract_x
 _atom_site_fract_y
 _atom_site_fract_z
 _atom_site_occupancy
  Al  Al0  1  0.11080322  0.09518159  0.39959057  1
  Al  Al1  1  0.22289419  0.21116571  0.14412261  1
  Al  Al2  1  0.77400052  0.09450479  0.88951358  1
  Al  Al3  1  0.88065207  0.20967600  0.63743942  1
  Al  Al4  1  0.44694336  0.09234218  0.38968820  1
  Al  Al5  1  0.55559629  0.20559544  0.14018257  1
  Al  Al6  1  0.22645994  0.20967598  0.63743943  1
  Al  Al7  1  0.77750247  0.09234220  0.38968820  1
  Al  Al8  1  0.88272815  0.21116570  0.14412262  1
  Al  Al9  1  0.44828274  0.09450479  0.88951357  1
  Al  Al10  1  0.55588792  0.20501218  0.64019440  1
  Al  Al11  1  0.10981081  0.42950673  0.38995895  1
  Al  Al12  1  0.22307701  0.53558423  0.14051833  1
  Al  Al13  1  0.77230633  0.43261794  0.88929175  1
  Al  Al14  1  0.88891005  0.53896788  0.63962086  1
  Al  Al15  1  0.44505637  0.42667524  0.39029341  1
  Al  Al16  1  0.55812676  0.53558423  0.14051832  1
  Al  Al17  1  0.11186375  0.43261796  0.88929174  1
  Al  Al18  1  0.22306881  0.53766852  0.63991918  1
  Al  Al19  1  0.77747044  0.42950674  0.38995895  1
  Al  Al20  1  0.88853430  0.53971941  0.13964120  1
  Al  Al21  1  0.44472251  0.42734299  0.88882144  1
  Al  Al22  1  0.55605066  0.53766851  0.63991920  1
  Al  Al23  1  0.11038516  0.75912293  0.39360442  1
  Al  Al24  1  0.77774922  0.76128958  0.88931701  1
  Al  Al25  1  0.88798539  0.87221094  0.63985987  1
  Al  Al26  1  0.44727995  0.75912290  0.39360442  1
  Al  Al27  1  0.56026155  0.86925615  0.14087068  1
  Al  Al28  1  0.10938065  0.75571798  0.88783343  1
  Al  Al29  1  0.22512093  0.86654615  0.64025827  1
  Al  Al30  1  0.77831131  0.76016540  0.39073362  1
  Al  Al31  1  0.88727034  0.86925615  0.14087068  1
  Al  Al32  1  0.45168938  0.75571797  0.88783344  1
  Al  Al33  1  0.55659167  0.87221093  0.63985987  1
  Sc  Sc34  1  0.10648652  0.10381495  0.87702007  1
  Sc  Sc35  1  0.21862584  0.87953631  0.13656891  1
  N  N36  1  0.22160018  0.20395910  0.33376405  1
  N  N37  1  0.86533067  0.21769456  0.82596184  1
  N  N38  1  0.77708923  0.09314736  0.57939250  1
  N  N39  1  0.55602519  0.20473763  0.33008646  1
  N  N40  1  0.44330374  0.09245113  0.08212541  1
  N  N41  1  0.23376281  0.21769455  0.82596185  1
  N  N42  1  0.11051674  0.09575453  0.59374289  1
  N  N43  1  0.89122876  0.20395911  0.33376406  1
  N  N44  1  0.78103317  0.09245113  0.08212542  1
  N  N45  1  0.55581089  0.20516626  0.83167805  1
  N  N46  1  0.44655143  0.09314735  0.57939250  1
  N  N47  1  0.22291169  0.53800796  0.33124829  1
  N  N48  1  0.11056914  0.42605651  0.08097213  1
  N  N49  1  0.88926089  0.53826624  0.83155561  1
  N  N50  1  0.77722079  0.42931375  0.57941429  1
  N  N51  1  0.55586835  0.53800795  0.33124829  1
  N  N52  1  0.44518808  0.42641185  0.08094447  1
  N  N53  1  0.22359978  0.53814178  0.83002495  1
  N  N54  1  0.11025345  0.42931374  0.57941430  1
  N  N55  1  0.88899373  0.53880054  0.33018213  1
  N  N56  1  0.78016237  0.42605651  0.08097214  1
  N  N57  1  0.55504647  0.53814177  0.83002498  1
  N  N58  1  0.44508660  0.42661479  0.58116647  1
  N  N59  1  0.22189085  0.87300633  0.34536360  1
  N  N60  1  0.10404914  0.75196560  0.07777173  1
  N  N61  1  0.88773413  0.87313102  0.83071786  1
  N  N62  1  0.77821722  0.76035357  0.58135905  1
  N  N63  1  0.55634114  0.87079994  0.33153561  1
  N  N64  1  0.46077327  0.75196562  0.07777176  1
  N  N65  1  0.23014781  0.85649240  0.83507210  1
  N  N66  1  0.11050024  0.75968388  0.58373523  1
  N  N67  1  0.88964693  0.87079995  0.33153561  1
  N  N68  1  0.77827235  0.76024336  0.08036214  1
  N  N69  1  0.55592287  0.87313102  0.83071787  1
  N  N70  1  0.44660390  0.75968386  0.58373523  1
