# generated using pymatgen
data_Sc2Al34N35
_symmetry_space_group_name_H-M   'P 1'
_cell_length_a   9.42166843
_cell_length_b   9.43627185
_cell_length_c   10.00629434
_cell_angle_alpha   90.06019603
_cell_angle_beta   90.00000058
_cell_angle_gamma   60.05117532
_symmetry_Int_Tables_number   1
_chemical_formula_structural   Sc2Al34N35
_chemical_formula_sum   'Sc2 Al34 N35'
_cell_volume   770.82460821
_cell_formula_units_Z   1
loop_
 _symmetry_equiv_pos_site_id
 _symmetry_equiv_pos_as_xyz
  1  'x, y, z'
loop_
 _atom_site_type_symbol
 _atom_site_label
 _atom_site_symmetry_multiplicity
 _atom_site_fract_x
 _atom_site_fract_y
 _atom_site_fract_z
 _atom_site_occupancy
  Al  Al0  1  0.10950319  0.09788504  0.37455550  1
  Al  Al1  1  0.22057115  0.21135180  0.07123989  1
  Al  Al2  1  0.77364948  0.09460003  0.82268846  1
  Al  Al3  1  0.87698582  0.21117894  0.56927129  1
  Al  Al4  1  0.44682508  0.09247648  0.32053068  1
  Al  Al5  1  0.55591380  0.20506376  0.07159258  1
  Al  Al6  1  0.22872672  0.21117896  0.56927129  1
  Al  Al7  1  0.77758982  0.09247650  0.32053069  1
  Al  Al8  1  0.88496847  0.21135179  0.07123991  1
  Al  Al9  1  0.44864196  0.09460002  0.82268847  1
  Al  Al10  1  0.55588965  0.20511210  0.57105127  1
  Al  Al11  1  0.11027661  0.42948729  0.32063057  1
  Al  Al12  1  0.22281289  0.53572060  0.07103387  1
  Al  Al13  1  0.77326141  0.43259648  0.82220983  1
  Al  Al14  1  0.88876061  0.53937012  0.57158257  1
  Al  Al15  1  0.44520540  0.42648052  0.32186396  1
  Al  Al16  1  0.55835792  0.53572054  0.07103387  1
  Al  Al17  1  0.11103350  0.43259651  0.82220982  1
  Al  Al18  1  0.22355066  0.53727774  0.57234336  1
  Al  Al19  1  0.77712744  0.42948728  0.32063059  1
  Al  Al20  1  0.88849640  0.53989857  0.07188317  1
  Al  Al21  1  0.44487828  0.42713481  0.82257968  1
  Al  Al22  1  0.55606296  0.53727770  0.57234337  1
  Al  Al23  1  0.10744707  0.75537297  0.32324668  1
  Al  Al24  1  0.77814283  0.76060577  0.82136762  1
  Al  Al25  1  0.88812687  0.87185832  0.57254531  1
  Al  Al26  1  0.45407140  0.75537294  0.32324667  1
  Al  Al27  1  0.55983786  0.86987281  0.07059437  1
  Al  Al28  1  0.11202788  0.75784961  0.82165970  1
  Al  Al29  1  0.22788467  0.86112218  0.56646954  1
  Al  Al30  1  0.77792747  0.76103644  0.32200379  1
  Al  Al31  1  0.88718078  0.86987284  0.07059438  1
  Al  Al32  1  0.44701402  0.75784954  0.82165971  1
  Al  Al33  1  0.55690623  0.87185831  0.57254532  1
  Sc  Sc34  1  0.10983405  0.09722334  0.81382574  1
  Sc  Sc35  1  0.21669184  0.88350778  0.09092113  1
  N  N36  1  0.22587368  0.20897656  0.37850544  1
  N  N37  1  0.87053589  0.21533110  0.88255829  1
  N  N38  1  0.77727177  0.09373058  0.63130208  1
  N  N39  1  0.55627197  0.20434742  0.37969329  1
  N  N40  1  0.44370002  0.09206908  0.13011780  1
  N  N41  1  0.23102442  0.21533111  0.88255827  1
  N  N42  1  0.11164971  0.09359208  0.59468489  1
  N  N43  1  0.88204116  0.20897656  0.37850545  1
  N  N44  1  0.78112226  0.09206911  0.13011780  1
  N  N45  1  0.55555357  0.20578428  0.88167091  1
  N  N46  1  0.44588913  0.09373054  0.63130209  1
  N  N47  1  0.22372885  0.53636840  0.38216837  1
  N  N48  1  0.10963733  0.42795775  0.13111486  1
  N  N49  1  0.88886386  0.53916366  0.88050313  1
  N  N50  1  0.77788862  0.42838420  0.63114555  1
  N  N51  1  0.55679408  0.53636839  0.38216839  1
  N  N52  1  0.44520125  0.42648889  0.13044034  1
  N  N53  1  0.22288437  0.53930234  0.88043029  1
  N  N54  1  0.11061855  0.42838423  0.63114554  1
  N  N55  1  0.88905590  0.53877953  0.38062369  1
  N  N56  1  0.77929636  0.42795771  0.13111488  1
  N  N57  1  0.55470470  0.53930228  0.88043029  1
  N  N58  1  0.44526404  0.42636329  0.63100579  1
  N  N59  1  0.22445530  0.86798085  0.36840191  1
  N  N60  1  0.10260506  0.75084472  0.13526935  1
  N  N61  1  0.88915482  0.87206862  0.87934661  1
  N  N62  1  0.77829313  0.76030518  0.63088880  1
  N  N63  1  0.55643721  0.87269979  0.38234210  1
  N  N64  1  0.46344174  0.75084466  0.13526936  1
  N  N65  1  0.22899657  0.85889835  0.88050452  1
  N  N66  1  0.11150896  0.76008284  0.62877881  1
  N  N67  1  0.88775439  0.87269979  0.38234209  1
  N  N68  1  0.77795664  0.76097818  0.13086604  1
  N  N69  1  0.55566799  0.87206861  0.87934662  1
  N  N70  1  0.44529970  0.76008280  0.62877882  1
