# generated using pymatgen
data_Sc2Al34N35
_symmetry_space_group_name_H-M   'P 1'
_cell_length_a   9.51892453
_cell_length_b   9.52673441
_cell_length_c   9.74169559
_cell_angle_alpha   90.09142131
_cell_angle_beta   90.00000847
_cell_angle_gamma   60.02717495
_symmetry_Int_Tables_number   1
_chemical_formula_structural   Sc2Al34N35
_chemical_formula_sum   'Sc2 Al34 N35'
_cell_volume   765.27098895
_cell_formula_units_Z   1
loop_
 _symmetry_equiv_pos_site_id
 _symmetry_equiv_pos_as_xyz
  1  'x, y, z'
loop_
 _atom_site_type_symbol
 _atom_site_label
 _atom_site_symmetry_multiplicity
 _atom_site_fract_x
 _atom_site_fract_y
 _atom_site_fract_z
 _atom_site_occupancy
  Al  Al0  1  0.11088572  0.09508784  0.39143286  1
  Al  Al1  1  0.22167229  0.21002164  0.13211318  1
  Al  Al2  1  0.77368897  0.09394258  0.88228445  1
  Al  Al3  1  0.87684567  0.21145545  0.62879647  1
  Al  Al4  1  0.44645759  0.09278067  0.37933420  1
  Al  Al5  1  0.55535246  0.20615446  0.13148541  1
  Al  Al6  1  0.22855830  0.21145538  0.62879649  1
  Al  Al7  1  0.77762105  0.09278069  0.37933419  1
  Al  Al8  1  0.88516547  0.21002166  0.13211319  1
  Al  Al9  1  0.44922773  0.09394253  0.88228444  1
  Al  Al10  1  0.55612076  0.20461786  0.63157384  1
  Al  Al11  1  0.10971172  0.42934878  0.37992364  1
  Al  Al12  1  0.22355884  0.53510446  0.13270947  1
  Al  Al13  1  0.77210441  0.43289531  0.88206299  1
  Al  Al14  1  0.88916433  0.53853078  0.63094697  1
  Al  Al15  1  0.44510584  0.42664765  0.38218762  1
  Al  Al16  1  0.55819609  0.53510442  0.13270948  1
  Al  Al17  1  0.11185963  0.43289528  0.88206297  1
  Al  Al18  1  0.22292668  0.53772595  0.63054482  1
  Al  Al19  1  0.77779882  0.42934880  0.37992362  1
  Al  Al20  1  0.88826520  0.54032906  0.13101984  1
  Al  Al21  1  0.44485671  0.42714588  0.87964048  1
  Al  Al22  1  0.55620678  0.53772594  0.63054481  1
  Al  Al23  1  0.11071121  0.76012517  0.38273067  1
  Al  Al24  1  0.77785486  0.76114965  0.87975541  1
  Al  Al25  1  0.88806221  0.87250408  0.63041746  1
  Al  Al26  1  0.44602298  0.76012515  0.38273068  1
  Al  Al27  1  0.56091440  0.86908943  0.13275536  1
  Al  Al28  1  0.10859267  0.75431327  0.87989321  1
  Al  Al29  1  0.22667956  0.86350032  0.63212612  1
  Al  Al30  1  0.77837219  0.76011499  0.38290967  1
  Al  Al31  1  0.88685564  0.86908946  0.13275536  1
  Al  Al32  1  0.45395347  0.75431320  0.87989321  1
  Al  Al33  1  0.55629317  0.87250406  0.63041746  1
  Sc  Sc34  1  0.10659670  0.10366575  0.85257907  1
  Sc  Sc35  1  0.21842422  0.88001113  0.11856268  1
  N  N36  1  0.22078812  0.20374897  0.32798130  1
  N  N37  1  0.86259524  0.21880039  0.82300501  1
  N  N38  1  0.77673621  0.09335159  0.57375943  1
  N  N39  1  0.55571761  0.20542423  0.32551574  1
  N  N40  1  0.44411872  0.09218421  0.07862645  1
  N  N41  1  0.23546377  0.21880030  0.82300503  1
  N  N42  1  0.11053151  0.09579618  0.59443321  1
  N  N43  1  0.89232234  0.20374898  0.32798130  1
  N  N44  1  0.78055626  0.09218426  0.07862646  1
  N  N45  1  0.55617053  0.20451833  0.82733783  1
  N  N46  1  0.44677143  0.09335156  0.57375945  1
  N  N47  1  0.22330092  0.53804107  0.32747411  1
  N  N48  1  0.11042761  0.42698735  0.07760680  1
  N  N49  1  0.88963604  0.53758744  0.82710968  1
  N  N50  1  0.77717906  0.42952854  0.57404255  1
  N  N51  1  0.55551749  0.53804107  0.32747410  1
  N  N52  1  0.44504106  0.42677707  0.07603679  1
  N  N53  1  0.22343641  0.53788662  0.82497343  1
  N  N54  1  0.11015170  0.42952849  0.57404257  1
  N  N55  1  0.88866875  0.53952199  0.32577477  1
  N  N56  1  0.77944428  0.42698738  0.07760683  1
  N  N57  1  0.55553645  0.53788657  0.82497343  1
  N  N58  1  0.44524134  0.42637655  0.57725948  1
  N  N59  1  0.22085829  0.87514290  0.33624516  1
  N  N60  1  0.10323136  0.75085922  0.07437449  1
  N  N61  1  0.88782560  0.87325682  0.82561708  1
  N  N62  1  0.77834531  0.76016870  0.57766634  1
  N  N63  1  0.55688105  0.87080329  0.32757652  1
  N  N64  1  0.46276880  0.75085912  0.07437449  1
  N  N65  1  0.23130535  0.85424887  0.83525656  1
  N  N66  1  0.11081610  0.75995464  0.57827591  1
  N  N67  1  0.88917516  0.87080331  0.32757652  1
  N  N68  1  0.77820593  0.76044747  0.07512141  1
  N  N69  1  0.55577712  0.87325675  0.82561707  1
  N  N70  1  0.44608852  0.75995465  0.57827591  1
