# generated using pymatgen
data_Sc2Al34N35
_symmetry_space_group_name_H-M   'P 1'
_cell_length_a   9.86893382
_cell_length_b   9.86927001
_cell_length_c   8.69961918
_cell_angle_alpha   90.00753516
_cell_angle_beta   89.99999826
_cell_angle_gamma   60.00112566
_symmetry_Int_Tables_number   1
_chemical_formula_structural   Sc2Al34N35
_chemical_formula_sum   'Sc2 Al34 N35'
_cell_volume   733.82256520
_cell_formula_units_Z   1
loop_
 _symmetry_equiv_pos_site_id
 _symmetry_equiv_pos_as_xyz
  1  'x, y, z'
loop_
 _atom_site_type_symbol
 _atom_site_label
 _atom_site_symmetry_multiplicity
 _atom_site_fract_x
 _atom_site_fract_y
 _atom_site_fract_z
 _atom_site_occupancy
  Al  Al0  1  0.10943482  0.09799046  0.37234423  1
  Al  Al1  1  0.22541436  0.21019172  0.10083997  1
  Al  Al2  1  0.77395118  0.09447557  0.84286818  1
  Al  Al3  1  0.88096810  0.20952142  0.59022960  1
  Al  Al4  1  0.44830229  0.09151489  0.34287223  1
  Al  Al5  1  0.55600816  0.20484368  0.09330906  1
  Al  Al6  1  0.22637051  0.20952146  0.59022972  1
  Al  Al7  1  0.77704275  0.09151483  0.34287227  1
  Al  Al8  1  0.88125388  0.21019175  0.10084004  1
  Al  Al9  1  0.44843321  0.09447562  0.84286824  1
  Al  Al10  1  0.55515983  0.20654024  0.59113383  1
  Al  Al11  1  0.10927716  0.43093308  0.34291812  1
  Al  Al12  1  0.22230659  0.53591576  0.09223189  1
  Al  Al13  1  0.77393004  0.43161933  0.84248698  1
  Al  Al14  1  0.88880030  0.53925943  0.59269727  1
  Al  Al15  1  0.44486934  0.42712131  0.34112423  1
  Al  Al16  1  0.55863777  0.53591561  0.09223188  1
  Al  Al17  1  0.11131061  0.43161941  0.84248702  1
  Al  Al18  1  0.22476886  0.53644270  0.59264048  1
  Al  Al19  1  0.77664989  0.43093303  0.34291815  1
  Al  Al20  1  0.88899225  0.53887548  0.09236037  1
  Al  Al21  1  0.44508239  0.42669517  0.84385450  1
  Al  Al22  1  0.55564852  0.53644265  0.59264049  1
  Al  Al23  1  0.10777234  0.75778246  0.34909366  1
  Al  Al24  1  0.77845349  0.75995294  0.84243846  1
  Al  Al25  1  0.88733937  0.87192401  0.59378086  1
  Al  Al26  1  0.45130528  0.75778237  0.34909360  1
  Al  Al27  1  0.55953255  0.87042628  0.09139971  1
  Al  Al28  1  0.11049376  0.75683159  0.84007873  1
  Al  Al29  1  0.22501281  0.86683456  0.59843793  1
  Al  Al30  1  0.77807554  0.76070886  0.34210445  1
  Al  Al31  1  0.88690108  0.87042634  0.09139972  1
  Al  Al32  1  0.44953468  0.75683156  0.84007877  1
  Al  Al33  1  0.55759663  0.87192394  0.59378085  1
  Sc  Sc34  1  0.10747058  0.10191876  0.84380033  1
  Sc  Sc35  1  0.22126199  0.87433610  0.10681729  1
  N  N36  1  0.22257821  0.20540222  0.35727469  1
  N  N37  1  0.86976184  0.21506082  0.86931533  1
  N  N38  1  0.77710557  0.09489124  0.61312533  1
  N  N39  1  0.55556168  0.20573654  0.36406651  1
  N  N40  1  0.44720684  0.09144314  0.11669828  1
  N  N41  1  0.23203725  0.21506084  0.86931525  1
  N  N42  1  0.10939980  0.09806038  0.59883105  1
  N  N43  1  0.88887963  0.20540213  0.35727465  1
  N  N44  1  0.77820998  0.09144315  0.11669834  1
  N  N45  1  0.55604063  0.20477873  0.86618053  1
  N  N46  1  0.44486319  0.09489119  0.61312536  1
  N  N47  1  0.22450205  0.53627938  0.36652064  1
  N  N48  1  0.10953351  0.42912098  0.11698925  1
  N  N49  1  0.88971634  0.53742731  0.86422455  1
  N  N50  1  0.77781783  0.42773934  0.61323806  1
  N  N51  1  0.55607866  0.53627929  0.36652064  1
  N  N52  1  0.44479544  0.42726912  0.11347009  1
  N  N53  1  0.22265996  0.53877965  0.86387383  1
  N  N54  1  0.11130286  0.42773940  0.61323809  1
  N  N55  1  0.88857655  0.53970695  0.36604069  1
  N  N56  1  0.77820559  0.42912093  0.11698930  1
  N  N57  1  0.55542043  0.53877959  0.86387382  1
  N  N58  1  0.44523001  0.42639998  0.61677605  1
  N  N59  1  0.22107178  0.87471652  0.36245328  1
  N  N60  1  0.10336272  0.75216422  0.11874765  1
  N  N61  1  0.88905594  0.87234738  0.86245613  1
  N  N62  1  0.77845441  0.75995116  0.61691185  1
  N  N63  1  0.55800541  0.87184623  0.36763578  1
  N  N64  1  0.46133311  0.75216409  0.11874763  1
  N  N65  1  0.22903833  0.85878334  0.85406719  1
  N  N66  1  0.11073374  0.75951216  0.60988081  1
  N  N67  1  0.88700830  0.87184621  0.36763580  1
  N  N68  1  0.77836039  0.76013919  0.11349497  1
  N  N69  1  0.55545662  0.87234741  0.86245615  1
  N  N70  1  0.44661420  0.75951206  0.60988086  1
