# generated using pymatgen
data_Sc2Al34N35
_symmetry_space_group_name_H-M   'P 1'
_cell_length_a   9.94858695
_cell_length_b   9.94660539
_cell_length_c   8.45955217
_cell_angle_alpha   90.01359687
_cell_angle_beta   90.00000062
_cell_angle_gamma   59.99342870
_symmetry_Int_Tables_number   1
_chemical_formula_structural   Sc2Al34N35
_chemical_formula_sum   'Sc2 Al34 N35'
_cell_volume   724.91237841
_cell_formula_units_Z   1
loop_
 _symmetry_equiv_pos_site_id
 _symmetry_equiv_pos_as_xyz
  1  'x, y, z'
loop_
 _atom_site_type_symbol
 _atom_site_label
 _atom_site_symmetry_multiplicity
 _atom_site_fract_x
 _atom_site_fract_y
 _atom_site_fract_z
 _atom_site_occupancy
  Al  Al0  1  0.10911328  0.09863353  0.37107933  1
  Al  Al1  1  0.22594335  0.21011740  0.10559390  1
  Al  Al2  1  0.77400929  0.09385257  0.85154620  1
  Al  Al3  1  0.88137637  0.20931282  0.59909908  1
  Al  Al4  1  0.44755179  0.09205561  0.35057497  1
  Al  Al5  1  0.55568702  0.20548593  0.10174874  1
  Al  Al6  1  0.22617093  0.20931284  0.59909924  1
  Al  Al7  1  0.77725244  0.09205555  0.35057498  1
  Al  Al8  1  0.88079928  0.21011742  0.10559396  1
  Al  Al9  1  0.44899818  0.09385260  0.85154625  1
  Al  Al10  1  0.55537494  0.20611006  0.59953395  1
  Al  Al11  1  0.10951076  0.43018389  0.35065720  1
  Al  Al12  1  0.22290433  0.53564452  0.10143138  1
  Al  Al13  1  0.77375476  0.43201586  0.85134521  1
  Al  Al14  1  0.88910631  0.53864741  0.60042363  1
  Al  Al15  1  0.44490432  0.42705118  0.35064905  1
  Al  Al16  1  0.55831130  0.53564437  0.10143140  1
  Al  Al17  1  0.11108930  0.43201598  0.85134525  1
  Al  Al18  1  0.22416663  0.53692421  0.60029422  1
  Al  Al19  1  0.77716537  0.43018384  0.35065723  1
  Al  Al20  1  0.88886034  0.53913929  0.10114174  1
  Al  Al21  1  0.44496535  0.42692914  0.85078467  1
  Al  Al22  1  0.55576923  0.53692415  0.60029423  1
  Al  Al23  1  0.10809493  0.75832153  0.35506800  1
  Al  Al24  1  0.77834865  0.76016254  0.84972038  1
  Al  Al25  1  0.88785526  0.87201309  0.60092184  1
  Al  Al26  1  0.45044358  0.75832145  0.35506793  1
  Al  Al27  1  0.55990012  0.87044940  0.10085945  1
  Al  Al28  1  0.11003334  0.75660165  0.84853555  1
  Al  Al29  1  0.22501535  0.86682952  0.60260516  1
  Al  Al30  1  0.77822297  0.76041388  0.35166196  1
  Al  Al31  1  0.88651044  0.87044943  0.10085945  1
  Al  Al32  1  0.45022506  0.75660156  0.84853563  1
  Al  Al33  1  0.55699165  0.87201303  0.60092185  1
  Sc  Sc34  1  0.10756758  0.10172482  0.84693369  1
  Sc  Sc35  1  0.22175078  0.87335850  0.10703056  1
  N  N36  1  0.22198838  0.20486860  0.35123356  1
  N  N37  1  0.87036559  0.21462748  0.86036901  1
  N  N38  1  0.77728458  0.09471207  0.60484675  1
  N  N39  1  0.55565982  0.20554025  0.35630805  1
  N  N40  1  0.44698701  0.09201970  0.10876680  1
  N  N41  1  0.23186696  0.21462753  0.86036892  1
  N  N42  1  0.10906121  0.09873757  0.59818091  1
  N  N43  1  0.89000310  0.20486850  0.35123357  1
  N  N44  1  0.77785323  0.09201970  0.10876684  1
  N  N45  1  0.55594381  0.20497245  0.85773713  1
  N  N46  1  0.44486336  0.09471201  0.60484677  1
  N  N47  1  0.22393499  0.53686618  0.35811415  1
  N  N48  1  0.10993779  0.42873763  0.10877822  1
  N  N49  1  0.88966578  0.53752841  0.85644546  1
  N  N50  1  0.77775795  0.42777058  0.60509753  1
  N  N51  1  0.55605886  0.53686608  0.35811416  1
  N  N52  1  0.44478941  0.42728113  0.10647943  1
  N  N53  1  0.22307550  0.53828299  0.85601151  1
  N  N54  1  0.11133148  0.42777061  0.60509754  1
  N  N55  1  0.88875999  0.53934002  0.35762864  1
  N  N56  1  0.77818462  0.42873758  0.10877828  1
  N  N57  1  0.55550158  0.53828287  0.85601149  1
  N  N58  1  0.44512603  0.42660789  0.60769970  1
  N  N59  1  0.22061009  0.87563989  0.36163040  1
  N  N60  1  0.10375193  0.75255870  0.10932371  1
  N  N61  1  0.88862641  0.87243245  0.85514880  1
  N  N62  1  0.77842659  0.76000676  0.60814182  1
  N  N63  1  0.55764150  0.87173176  0.35881672  1
  N  N64  1  0.46054936  0.75255859  0.10932370  1
  N  N65  1  0.22894497  0.85897017  0.84879191  1
  N  N66  1  0.11060482  0.75954116  0.60411366  1
  N  N67  1  0.88748670  0.87173170  0.35881674  1
  N  N68  1  0.77843812  0.75998368  0.10595761  1
  N  N69  1  0.55580108  0.87243248  0.85514883  1
  N  N70  1  0.44671411  0.75954105  0.60411368  1
