# generated using pymatgen
data_Sc2Al34N35
_symmetry_space_group_name_H-M   'P 1'
_cell_length_a   9.42151659
_cell_length_b   9.42983648
_cell_length_c   10.00270621
_cell_angle_alpha   90.13558855
_cell_angle_beta   90.00024607
_cell_angle_gamma   60.02991305
_symmetry_Int_Tables_number   1
_chemical_formula_structural   Sc2Al34N35
_chemical_formula_sum   'Sc2 Al34 N35'
_cell_volume   769.84330034
_cell_formula_units_Z   1
loop_
 _symmetry_equiv_pos_site_id
 _symmetry_equiv_pos_as_xyz
  1  'x, y, z'
loop_
 _atom_site_type_symbol
 _atom_site_label
 _atom_site_symmetry_multiplicity
 _atom_site_fract_x
 _atom_site_fract_y
 _atom_site_fract_z
 _atom_site_occupancy
  Al  Al0  1  0.11062616  0.09528073  0.42230959  1
  Al  Al1  1  0.22275350  0.21126124  0.16683741  1
  Al  Al2  1  0.77387906  0.09451677  0.91222412  1
  Al  Al3  1  0.88055528  0.20971689  0.66017910  1
  Al  Al4  1  0.44680319  0.09237587  0.41241052  1
  Al  Al5  1  0.55545223  0.20566979  0.16291136  1
  Al  Al6  1  0.22631137  0.20967546  0.66017336  1
  Al  Al7  1  0.77734887  0.09241835  0.41241005  1
  Al  Al8  1  0.88254831  0.21124246  0.16683649  1
  Al  Al9  1  0.44820510  0.09447045  0.91221300  1
  Al  Al10  1  0.55575774  0.20501424  0.66288918  1
  Al  Al11  1  0.10966954  0.42954357  0.41267839  1
  Al  Al12  1  0.22293308  0.53564802  0.16324220  1
  Al  Al13  1  0.77219585  0.43263155  0.91199688  1
  Al  Al14  1  0.88878189  0.53899624  0.66233827  1
  Al  Al15  1  0.44489469  0.42673773  0.41302908  1
  Al  Al16  1  0.55798605  0.53563825  0.16324938  1
  Al  Al17  1  0.11175421  0.43259324  0.91200186  1
  Al  Al18  1  0.22292964  0.53768249  0.66263521  1
  Al  Al19  1  0.77730736  0.42959117  0.41267924  1
  Al  Al20  1  0.88837443  0.53981857  0.16236913  1
  Al  Al21  1  0.44460759  0.42732568  0.91153115  1
  Al  Al22  1  0.55591804  0.53769529  0.66263714  1
  Al  Al23  1  0.11022182  0.75919526  0.41634402  1
  Al  Al24  1  0.77765007  0.76128022  0.91204063  1
  Al  Al25  1  0.88784019  0.87227223  0.66259432  1
  Al  Al26  1  0.44714138  0.75918664  0.41634125  1
  Al  Al27  1  0.56011066  0.86933544  0.16358658  1
  Al  Al28  1  0.10927976  0.75570965  0.91054962  1
  Al  Al29  1  0.22500139  0.86657650  0.66296972  1
  Al  Al30  1  0.77817897  0.76022843  0.41347098  1
  Al  Al31  1  0.88712106  0.86932841  0.16360056  1
  Al  Al32  1  0.45156737  0.75570265  0.91056664  1
  Al  Al33  1  0.55647031  0.87221829  0.66258767  1
  Sc  Sc34  1  0.10639232  0.10378053  0.89985636  1
  Sc  Sc35  1  0.21849669  0.87957602  0.15936030  1
  N  N36  1  0.22146187  0.20401368  0.35645201  1
  N  N37  1  0.86526576  0.21767580  0.84869655  1
  N  N38  1  0.77695514  0.09321897  0.60210289  1
  N  N39  1  0.55586985  0.20479760  0.35281337  1
  N  N40  1  0.44315504  0.09252822  0.10482980  1
  N  N41  1  0.23364985  0.21763766  0.84869435  1
  N  N42  1  0.11038516  0.09577487  0.61641476  1
  N  N43  1  0.89106117  0.20404066  0.35644903  1
  N  N44  1  0.78087728  0.09251771  0.10482949  1
  N  N45  1  0.55570806  0.20514507  0.85436397  1
  N  N46  1  0.44639770  0.09316293  0.60211046  1
  N  N47  1  0.22275116  0.53807228  0.35397355  1
  N  N48  1  0.11039670  0.42613995  0.10368310  1
  N  N49  1  0.88915733  0.53826013  0.85425503  1
  N  N50  1  0.77709388  0.42934459  0.60212284  1
  N  N51  1  0.55570093  0.53807782  0.35397399  1
  N  N52  1  0.44504776  0.42646568  0.10364999  1
  N  N53  1  0.22347311  0.53812496  0.85273856  1
  N  N54  1  0.11011638  0.42931789  0.60212861  1
  N  N55  1  0.88885528  0.53885881  0.35289885  1
  N  N56  1  0.78001977  0.42612403  0.10368583  1
  N  N57  1  0.55493328  0.53813261  0.85273865  1
  N  N58  1  0.44494691  0.42662403  0.60388592  1
  N  N59  1  0.22173552  0.87309304  0.36812452  1
  N  N60  1  0.10390932  0.75202994  0.10049395  1
  N  N61  1  0.88762994  0.87312687  0.85344476  1
  N  N62  1  0.77808946  0.76038779  0.60408302  1
  N  N63  1  0.55620231  0.87084445  0.35425135  1
  N  N64  1  0.46061403  0.75203367  0.10049953  1
  N  N65  1  0.23004424  0.85648115  0.85775862  1
  N  N66  1  0.11036192  0.75971404  0.60645572  1
  N  N67  1  0.88949812  0.87088478  0.35425844  1
  N  N68  1  0.77810826  0.76033304  0.10307587  1
  N  N69  1  0.55582519  0.87309484  0.85343810  1
  N  N70  1  0.44647034  0.75971449  0.60644652  1
