# generated using pymatgen
data_Sc2Al34N35
_symmetry_space_group_name_H-M   'P 1'
_cell_length_a   9.68147329
_cell_length_b   9.68525803
_cell_length_c   9.26995065
_cell_angle_alpha   90.08363358
_cell_angle_beta   90.00000763
_cell_angle_gamma   60.01298546
_symmetry_Int_Tables_number   1
_chemical_formula_structural   Sc2Al34N35
_chemical_formula_sum   'Sc2 Al34 N35'
_cell_volume   752.86463495
_cell_formula_units_Z   1
loop_
 _symmetry_equiv_pos_site_id
 _symmetry_equiv_pos_as_xyz
  1  'x, y, z'
loop_
 _atom_site_type_symbol
 _atom_site_label
 _atom_site_symmetry_multiplicity
 _atom_site_fract_x
 _atom_site_fract_y
 _atom_site_fract_z
 _atom_site_occupancy
  Al  Al0  1  0.11007958  0.09670013  0.38723901  1
  Al  Al1  1  0.22182713  0.20913724  0.12346140  1
  Al  Al2  1  0.77349480  0.09323867  0.87884541  1
  Al  Al3  1  0.87639690  0.21165362  0.62499104  1
  Al  Al4  1  0.44576144  0.09319265  0.37246004  1
  Al  Al5  1  0.55501241  0.20683477  0.12665991  1
  Al  Al6  1  0.22880870  0.21165362  0.62499094  1
  Al  Al7  1  0.77790526  0.09319261  0.37246004  1
  Al  Al8  1  0.88589504  0.20913725  0.12346135  1
  Al  Al9  1  0.45012594  0.09323870  0.87884536  1
  Al  Al10  1  0.55626388  0.20433185  0.62598200  1
  Al  Al11  1  0.10987866  0.42858569  0.37338470  1
  Al  Al12  1  0.22391200  0.53512085  0.12832992  1
  Al  Al13  1  0.77214513  0.43340828  0.87845668  1
  Al  Al14  1  0.88960933  0.53764081  0.62548373  1
  Al  Al15  1  0.44516318  0.42653303  0.37805939  1
  Al  Al16  1  0.55782673  0.53512070  0.12832992  1
  Al  Al17  1  0.11130580  0.43340840  0.87845669  1
  Al  Al18  1  0.22283660  0.53749676  0.62476990  1
  Al  Al19  1  0.77839505  0.42858572  0.37338473  1
  Al  Al20  1  0.88797102  0.54091733  0.12638467  1
  Al  Al21  1  0.44484560  0.42716834  0.87383731  1
  Al  Al22  1  0.55652626  0.53749667  0.62476995  1
  Al  Al23  1  0.11013383  0.75998582  0.37683617  1
  Al  Al24  1  0.77790579  0.76104799  0.87307416  1
  Al  Al25  1  0.88798442  0.87307900  0.62466221  1
  Al  Al26  1  0.44673964  0.75998584  0.37683616  1
  Al  Al27  1  0.56146662  0.86891859  0.12814156  1
  Al  Al28  1  0.10861233  0.75462945  0.87434759  1
  Al  Al29  1  0.22631549  0.86422830  0.62283925  1
  Al  Al30  1  0.77846490  0.75992959  0.37938948  1
  Al  Al31  1  0.88647413  0.86891868  0.12814151  1
  Al  Al32  1  0.45361761  0.75462917  0.87434758  1
  Al  Al33  1  0.55579617  0.87307889  0.62466214  1
  Sc  Sc34  1  0.10703297  0.10279239  0.84713521  1
  Sc  Sc35  1  0.21927698  0.87830546  0.11122999  1
  N  N36  1  0.22028876  0.20330196  0.33056574  1
  N  N37  1  0.86432596  0.21769352  0.83224083  1
  N  N38  1  0.77687031  0.09405419  0.57808769  1
  N  N39  1  0.55544938  0.20596067  0.33105063  1
  N  N40  1  0.44544586  0.09197584  0.08537649  1
  N  N41  1  0.23483999  0.21769344  0.83224093  1
  N  N42  1  0.10981957  0.09722004  0.59763666  1
  N  N43  1  0.89326873  0.20330199  0.33056580  1
  N  N44  1  0.77943756  0.09197583  0.08537659  1
  N  N45  1  0.55635180  0.20415551  0.83262763  1
  N  N46  1  0.44593464  0.09405423  0.57808782  1
  N  N47  1  0.22372614  0.53772580  0.33364912  1
  N  N48  1  0.11018129  0.42807897  0.08439931  1
  N  N49  1  0.88990813  0.53704329  0.83216769  1
  N  N50  1  0.77758354  0.42870363  0.57863654  1
  N  N51  1  0.55540758  0.53772583  0.33364917  1
  N  N52  1  0.44479500  0.42726922  0.08077781  1
  N  N53  1  0.22320198  0.53773497  0.82998998  1
  N  N54  1  0.11057225  0.42870352  0.57863663  1
  N  N55  1  0.88845257  0.53995441  0.33166305  1
  N  N56  1  0.77859907  0.42807898  0.08439937  1
  N  N57  1  0.55592241  0.53773513  0.82998993  1
  N  N58  1  0.44530470  0.42624993  0.58343175  1
  N  N59  1  0.22029113  0.87627719  0.34283589  1
  N  N60  1  0.10315837  0.75112883  0.08126906  1
  N  N61  1  0.88787487  0.87350793  0.83044485  1
  N  N62  1  0.77842763  0.76000404  0.58443250  1
  N  N63  1  0.55757473  0.87065295  0.33369499  1
  N  N64  1  0.46257209  0.75112880  0.08126907  1
  N  N65  1  0.23062765  0.85560430  0.84150242  1
  N  N66  1  0.11066659  0.75991968  0.58344880  1
  N  N67  1  0.88863178  0.87065294  0.33369496  1
  N  N68  1  0.77824681  0.76036552  0.07927896  1
  N  N69  1  0.55547667  0.87350794  0.83044485  1
  N  N70  1  0.44627303  0.75991970  0.58344880  1
