# generated using pymatgen
data_Sc2Al34N35
_symmetry_space_group_name_H-M   'P 1'
_cell_length_a   9.41948924
_cell_length_b   9.43440856
_cell_length_c   10.01153830
_cell_angle_alpha   90.06214309
_cell_angle_beta   90.00000202
_cell_angle_gamma   60.05229641
_symmetry_Int_Tables_number   1
_chemical_formula_structural   Sc2Al34N35
_chemical_formula_sum   'Sc2 Al34 N35'
_cell_volume   770.90659186
_cell_formula_units_Z   1
loop_
 _symmetry_equiv_pos_site_id
 _symmetry_equiv_pos_as_xyz
  1  'x, y, z'
loop_
 _atom_site_type_symbol
 _atom_site_label
 _atom_site_symmetry_multiplicity
 _atom_site_fract_x
 _atom_site_fract_y
 _atom_site_fract_z
 _atom_site_occupancy
  Al  Al0  1  0.10961001  0.09779338  0.36293869  1
  Al  Al1  1  0.22055605  0.21134614  0.05926739  1
  Al  Al2  1  0.77372345  0.09457751  0.81078823  1
  Al  Al3  1  0.87699767  0.21118241  0.55736238  1
  Al  Al4  1  0.44687218  0.09246063  0.30860017  1
  Al  Al5  1  0.55598010  0.20505308  0.05967978  1
  Al  Al6  1  0.22883345  0.21118245  0.55736241  1
  Al  Al7  1  0.77768055  0.09246067  0.30860020  1
  Al  Al8  1  0.88511120  0.21134613  0.05926744  1
  Al  Al9  1  0.44871248  0.09457749  0.81078821  1
  Al  Al10  1  0.55597212  0.20506915  0.55914126  1
  Al  Al11  1  0.11034979  0.42944303  0.30870617  1
  Al  Al12  1  0.22288835  0.53571132  0.05914508  1
  Al  Al13  1  0.77332633  0.43258981  0.81030781  1
  Al  Al14  1  0.88883165  0.53935002  0.55966743  1
  Al  Al15  1  0.44528567  0.42644196  0.30996219  1
  Al  Al16  1  0.55841371  0.53571126  0.05914510  1
  Al  Al17  1  0.11109726  0.43258984  0.81030781  1
  Al  Al18  1  0.22361661  0.53724654  0.56041143  1
  Al  Al19  1  0.77722047  0.42944302  0.30870619  1
  Al  Al20  1  0.88855076  0.53991184  0.05997416  1
  Al  Al21  1  0.44494764  0.42711805  0.81066722  1
  Al  Al22  1  0.55615019  0.53724650  0.56041142  1
  Al  Al23  1  0.10755907  0.75536101  0.31131687  1
  Al  Al24  1  0.77820428  0.76060486  0.80945679  1
  Al  Al25  1  0.88820605  0.87182826  0.56060917  1
  Al  Al26  1  0.45409337  0.75536097  0.31131685  1
  Al  Al27  1  0.55988597  0.86987483  0.05870436  1
  Al  Al28  1  0.11208130  0.75781111  0.80973902  1
  Al  Al29  1  0.22800660  0.86100039  0.55459968  1
  Al  Al30  1  0.77799842  0.76101653  0.31010000  1
  Al  Al31  1  0.88725263  0.86987486  0.05870439  1
  Al  Al32  1  0.44712112  0.75781107  0.80973903  1
  Al  Al33  1  0.55697911  0.87182825  0.56060917  1
  Sc  Sc34  1  0.10989588  0.09722175  0.80175137  1
  Sc  Sc35  1  0.21671950  0.88357448  0.07880217  1
  N  N36  1  0.22595234  0.20896410  0.36669874  1
  N  N37  1  0.87064082  0.21530844  0.87067762  1
  N  N38  1  0.77735255  0.09368833  0.61948176  1
  N  N39  1  0.55635395  0.20430546  0.36785743  1
  N  N40  1  0.44371058  0.09208302  0.11826295  1
  N  N41  1  0.23106415  0.21530846  0.87067759  1
  N  N42  1  0.11173025  0.09355304  0.58271337  1
  N  N43  1  0.88209700  0.20896408  0.36669875  1
  N  N44  1  0.78121969  0.09208308  0.11826293  1
  N  N45  1  0.55561912  0.20577531  0.86983839  1
  N  N46  1  0.44597262  0.09368829  0.61948177  1
  N  N47  1  0.22379193  0.53634590  0.37031718  1
  N  N48  1  0.10969687  0.42794418  0.11926948  1
  N  N49  1  0.88892036  0.53917264  0.86867224  1
  N  N50  1  0.77796433  0.42836265  0.61932457  1
  N  N51  1  0.55687548  0.53634588  0.37031719  1
  N  N52  1  0.44527478  0.42646380  0.11862178  1
  N  N53  1  0.22295771  0.53928491  0.86861894  1
  N  N54  1  0.11068634  0.42836271  0.61932456  1
  N  N55  1  0.88912823  0.53875683  0.36878861  1
  N  N56  1  0.77937237  0.42794412  0.11926947  1
  N  N57  1  0.55477087  0.53928477  0.86861896  1
  N  N58  1  0.44533954  0.42633427  0.61916164  1
  N  N59  1  0.22456345  0.86788655  0.35669311  1
  N  N60  1  0.10270721  0.75086689  0.12342503  1
  N  N61  1  0.88922112  0.87205657  0.86753405  1
  N  N62  1  0.77836251  0.76028845  0.61904795  1
  N  N63  1  0.55648729  0.87268125  0.37048651  1
  N  N64  1  0.46343941  0.75086680  0.12342499  1
  N  N65  1  0.22905038  0.85891278  0.86853261  1
  N  N66  1  0.11156910  0.76002763  0.61696124  1
  N  N67  1  0.88784485  0.87268127  0.37048650  1
  N  N68  1  0.77801379  0.76098589  0.11904517  1
  N  N69  1  0.55573580  0.87205653  0.86753404  1
  N  N70  1  0.44541680  0.76002755  0.61696125  1
