# generated using pymatgen
data_Sc2Al34N35
_symmetry_space_group_name_H-M   'P 1'
_cell_length_a   9.42100763
_cell_length_b   9.42946004
_cell_length_c   10.00233642
_cell_angle_alpha   90.13633941
_cell_angle_beta   89.99999853
_cell_angle_gamma   60.02964880
_symmetry_Int_Tables_number   1
_chemical_formula_structural   Sc2Al34N35
_chemical_formula_sum   'Sc2 Al34 N35'
_cell_volume   769.74043944
_cell_formula_units_Z   1
loop_
 _symmetry_equiv_pos_site_id
 _symmetry_equiv_pos_as_xyz
  1  'x, y, z'
loop_
 _atom_site_type_symbol
 _atom_site_label
 _atom_site_symmetry_multiplicity
 _atom_site_fract_x
 _atom_site_fract_y
 _atom_site_fract_z
 _atom_site_occupancy
  Al  Al0  1  0.11068982  0.09521224  0.41869628  1
  Al  Al1  1  0.22279765  0.21119918  0.16325834  1
  Al  Al2  1  0.77388778  0.09454079  0.90861269  1
  Al  Al3  1  0.88057061  0.20969250  0.65656095  1
  Al  Al4  1  0.44683388  0.09236788  0.40880781  1
  Al  Al5  1  0.55548491  0.20562209  0.15928880  1
  Al  Al6  1  0.22632876  0.20969252  0.65656095  1
  Al  Al7  1  0.77739011  0.09236787  0.40880781  1
  Al  Al8  1  0.88259505  0.21119919  0.16325835  1
  Al  Al9  1  0.44816329  0.09454080  0.90861269  1
  Al  Al10  1  0.55577181  0.20504827  0.65929795  1
  Al  Al11  1  0.10970074  0.42953305  0.40907685  1
  Al  Al12  1  0.22295961  0.53561634  0.15962170  1
  Al  Al13  1  0.77219207  0.43265123  0.90839032  1
  Al  Al14  1  0.88879572  0.53900044  0.65872708  1
  Al  Al15  1  0.44494383  0.42670422  0.40939541  1
  Al  Al16  1  0.55801592  0.53561635  0.15962170  1
  Al  Al17  1  0.11174854  0.43265125  0.90839032  1
  Al  Al18  1  0.22295686  0.53769969  0.65902990  1
  Al  Al19  1  0.77735809  0.42953305  0.40907685  1
  Al  Al20  1  0.88842525  0.53974136  0.15874832  1
  Al  Al21  1  0.44460626  0.42737933  0.90793214  1
  Al  Al22  1  0.55593533  0.53769968  0.65902990  1
  Al  Al23  1  0.11027004  0.75914495  0.41273717  1
  Al  Al24  1  0.77763445  0.76132295  0.90842796  1
  Al  Al25  1  0.88786883  0.87224269  0.65897281  1
  Al  Al26  1  0.44717687  0.75914496  0.41273717  1
  Al  Al27  1  0.56014737  0.86928498  0.15997652  1
  Al  Al28  1  0.10926855  0.75576617  0.90693963  1
  Al  Al29  1  0.22498917  0.86661353  0.65937162  1
  Al  Al30  1  0.77819990  0.76019205  0.40983594  1
  Al  Al31  1  0.88715951  0.86928495  0.15997653  1
  Al  Al32  1  0.45155716  0.75576616  0.90693963  1
  Al  Al33  1  0.55648034  0.87224270  0.65897281  1
  Sc  Sc34  1  0.10636511  0.10386163  0.89628828  1
  Sc  Sc35  1  0.21852306  0.87954572  0.15574184  1
  N  N36  1  0.22149542  0.20398584  0.35287200  1
  N  N37  1  0.86525197  0.21771068  0.84506742  1
  N  N38  1  0.77697946  0.09318035  0.59850100  1
  N  N39  1  0.55591597  0.20475994  0.34918534  1
  N  N40  1  0.44319091  0.09248069  0.10121960  1
  N  N41  1  0.23362922  0.21771070  0.84506742  1
  N  N42  1  0.11040052  0.09579085  0.61279950  1
  N  N43  1  0.89111062  0.20398584  0.35287199  1
  N  N44  1  0.78092030  0.09248068  0.10121960  1
  N  N45  1  0.55569356  0.20520475  0.85077353  1
  N  N46  1  0.44643207  0.09318036  0.59850101  1
  N  N47  1  0.22279627  0.53803548  0.35034572  1
  N  N48  1  0.11045941  0.42607650  0.10006509  1
  N  N49  1  0.88914483  0.53830220  0.85065271  1
  N  N50  1  0.77710914  0.42933950  0.59852171  1
  N  N51  1  0.55576014  0.53803548  0.35034572  1
  N  N52  1  0.44507516  0.42644156  0.10004597  1
  N  N53  1  0.22348674  0.53817825  0.84912654  1
  N  N54  1  0.11014324  0.42933952  0.59852170  1
  N  N55  1  0.88888603  0.53881982  0.34928121  1
  N  N56  1  0.78005597  0.42607650  0.10006509  1
  N  N57  1  0.55492688  0.53817825  0.84912655  1
  N  N58  1  0.44497141  0.42664906  0.60025922  1
  N  N59  1  0.22178726  0.87301734  0.36450203  1
  N  N60  1  0.10393958  0.75200109  0.09686826  1
  N  N61  1  0.88761774  0.87316291  0.84982023  1
  N  N62  1  0.77810337  0.76038512  0.60045295  1
  N  N63  1  0.55622650  0.87082587  0.35063493  1
  N  N64  1  0.46065119  0.75200110  0.09686826  1
  N  N65  1  0.23001163  0.85656861  0.85416471  1
  N  N66  1  0.11038508  0.75971750  0.60285106  1
  N  N67  1  0.88953951  0.87082585  0.35063493  1
  N  N68  1  0.77816198  0.76026789  0.09946440  1
  N  N69  1  0.55581121  0.87316291  0.84982023  1
  N  N70  1  0.44648931  0.75971748  0.60285106  1
