# generated using pymatgen
data_Sc2Al34N35
_symmetry_space_group_name_H-M   'P 1'
_cell_length_a   9.41948808
_cell_length_b   9.43440832
_cell_length_c   10.01155256
_cell_angle_alpha   90.06203747
_cell_angle_beta   90.00000095
_cell_angle_gamma   60.05230810
_symmetry_Int_Tables_number   1
_chemical_formula_structural   Sc2Al34N35
_chemical_formula_sum   'Sc2 Al34 N35'
_cell_volume   770.90766723
_cell_formula_units_Z   1
loop_
 _symmetry_equiv_pos_site_id
 _symmetry_equiv_pos_as_xyz
  1  'x, y, z'
loop_
 _atom_site_type_symbol
 _atom_site_label
 _atom_site_symmetry_multiplicity
 _atom_site_fract_x
 _atom_site_fract_y
 _atom_site_fract_z
 _atom_site_occupancy
  Al  Al0  1  0.10967605  0.09777509  0.35183420  1
  Al  Al1  1  0.22062089  0.21132834  0.04817623  1
  Al  Al2  1  0.77378989  0.09456097  0.79969429  1
  Al  Al3  1  0.87706367  0.21116459  0.54625964  1
  Al  Al4  1  0.44693945  0.09244224  0.29750402  1
  Al  Al5  1  0.55604557  0.20503594  0.04858610  1
  Al  Al6  1  0.22889911  0.21116465  0.54625964  1
  Al  Al7  1  0.77774544  0.09244230  0.29750402  1
  Al  Al8  1  0.88517798  0.21132829  0.04817622  1
  Al  Al9  1  0.44877643  0.09456096  0.79969432  1
  Al  Al10  1  0.55603796  0.20505130  0.54804786  1
  Al  Al11  1  0.11041462  0.42942762  0.29761172  1
  Al  Al12  1  0.22295443  0.53569325  0.04805063  1
  Al  Al13  1  0.77339302  0.43257057  0.79921506  1
  Al  Al14  1  0.88889769  0.53933173  0.54857531  1
  Al  Al15  1  0.44535109  0.42642483  0.29886961  1
  Al  Al16  1  0.55847951  0.53569313  0.04805062  1
  Al  Al17  1  0.11116359  0.43257065  0.79921507  1
  Al  Al18  1  0.22368178  0.53722924  0.54931774  1
  Al  Al19  1  0.77728480  0.42942759  0.29761173  1
  Al  Al20  1  0.88861600  0.53989512  0.04888090  1
  Al  Al21  1  0.44501333  0.42710046  0.79957309  1
  Al  Al22  1  0.55621614  0.53722913  0.54931774  1
  Al  Al23  1  0.10762499  0.75534374  0.30021751  1
  Al  Al24  1  0.77826994  0.76058733  0.79836268  1
  Al  Al25  1  0.88827223  0.87181091  0.54951461  1
  Al  Al26  1  0.45415853  0.75534369  0.30021750  1
  Al  Al27  1  0.55995241  0.86985720  0.04760818  1
  Al  Al28  1  0.11214670  0.75779367  0.79864272  1
  Al  Al29  1  0.22807228  0.86098286  0.54349944  1
  Al  Al30  1  0.77806397  0.76099919  0.29900737  1
  Al  Al31  1  0.88731768  0.86985727  0.04760818  1
  Al  Al32  1  0.44718700  0.75779354  0.79864272  1
  Al  Al33  1  0.55704412  0.87181089  0.54951465  1
  Sc  Sc34  1  0.10996019  0.09720690  0.79064780  1
  Sc  Sc35  1  0.21678553  0.88355639  0.06769831  1
  N  N36  1  0.22601830  0.20894669  0.35559728  1
  N  N37  1  0.87070958  0.21528920  0.85958591  1
  N  N38  1  0.77741931  0.09367145  0.60838644  1
  N  N39  1  0.55641980  0.20428751  0.35676249  1
  N  N40  1  0.44377728  0.09206473  0.10716673  1
  N  N41  1  0.23112847  0.21528924  0.85958591  1
  N  N42  1  0.11179586  0.09353566  0.57161040  1
  N  N43  1  0.88216220  0.20894670  0.35559730  1
  N  N44  1  0.78128504  0.09206482  0.10716672  1
  N  N45  1  0.55568472  0.20575792  0.85874413  1
  N  N46  1  0.44603657  0.09367139  0.60838646  1
  N  N47  1  0.22385691  0.53632955  0.35922235  1
  N  N48  1  0.10976190  0.42792774  0.10817485  1
  N  N49  1  0.88898595  0.53915526  0.85757804  1
  N  N50  1  0.77803109  0.42834283  0.60823005  1
  N  N51  1  0.55694064  0.53632951  0.35922235  1
  N  N52  1  0.44534040  0.42644631  0.10752786  1
  N  N53  1  0.22302358  0.53926727  0.85752386  1
  N  N54  1  0.11075318  0.42834291  0.60823004  1
  N  N55  1  0.88919386  0.53873932  0.35769512  1
  N  N56  1  0.77943751  0.42792767  0.10817485  1
  N  N57  1  0.55483645  0.53926713  0.85752386  1
  N  N58  1  0.44540524  0.42631663  0.60806693  1
  N  N59  1  0.22462963  0.86786803  0.34559340  1
  N  N60  1  0.10277311  0.75085012  0.11232629  1
  N  N61  1  0.88928660  0.87203919  0.85643771  1
  N  N62  1  0.77842813  0.76027099  0.60795306  1
  N  N63  1  0.55655221  0.87266357  0.35939105  1
  N  N64  1  0.46350421  0.75084997  0.11232628  1
  N  N65  1  0.22911468  0.85889804  0.85743067  1
  N  N66  1  0.11163500  0.76001023  0.60586476  1
  N  N67  1  0.88791140  0.87266358  0.35939102  1
  N  N68  1  0.77807926  0.76096875  0.10795123  1
  N  N69  1  0.55580149  0.87203914  0.85643775  1
  N  N70  1  0.44548217  0.76001009  0.60586479  1
