# generated using pymatgen
data_Sc2Al34N35
_symmetry_space_group_name_H-M   'P 1'
_cell_length_a   9.73324644
_cell_length_b   9.73515562
_cell_length_c   9.12793241
_cell_angle_alpha   90.00728199
_cell_angle_beta   89.99999462
_cell_angle_gamma   60.00645315
_symmetry_Int_Tables_number   1
_chemical_formula_structural   Sc2Al34N35
_chemical_formula_sum   'Sc2 Al34 N35'
_cell_volume   749.08637352
_cell_formula_units_Z   1
loop_
 _symmetry_equiv_pos_site_id
 _symmetry_equiv_pos_as_xyz
  1  'x, y, z'
loop_
 _atom_site_type_symbol
 _atom_site_label
 _atom_site_symmetry_multiplicity
 _atom_site_fract_x
 _atom_site_fract_y
 _atom_site_fract_z
 _atom_site_occupancy
  Al  Al0  1  0.10926433  0.09833147  0.37338445  1
  Al  Al1  1  0.22476404  0.21068812  0.09092124  1
  Al  Al2  1  0.77378008  0.09485013  0.83406651  1
  Al  Al3  1  0.87961383  0.21009044  0.58085725  1
  Al  Al4  1  0.44849022  0.09147312  0.33398917  1
  Al  Al5  1  0.55611599  0.20462804  0.08418941  1
  Al  Al6  1  0.22715563  0.21009053  0.58085729  1
  Al  Al7  1  0.77689666  0.09147306  0.33398919  1
  Al  Al8  1  0.88140781  0.21068809  0.09092127  1
  Al  Al9  1  0.44822968  0.09485020  0.83406653  1
  Al  Al10  1  0.55519332  0.20647331  0.58278181  1
  Al  Al11  1  0.10935719  0.43104411  0.33403844  1
  Al  Al12  1  0.22198424  0.53605884  0.08276686  1
  Al  Al13  1  0.77375888  0.43158756  0.83365077  1
  Al  Al14  1  0.88865593  0.53954821  0.58431289  1
  Al  Al15  1  0.44492770  0.42700470  0.33230893  1
  Al  Al16  1  0.55881696  0.53605880  0.08276686  1
  Al  Al17  1  0.11151358  0.43158759  0.83365079  1
  Al  Al18  1  0.22484943  0.53633974  0.58447137  1
  Al  Al19  1  0.77645888  0.43104405  0.33403845  1
  Al  Al20  1  0.88897644  0.53890716  0.08349067  1
  Al  Al21  1  0.44505237  0.42675532  0.83569776  1
  Al  Al22  1  0.55567093  0.53633966  0.58447137  1
  Al  Al23  1  0.10705926  0.75660964  0.33944378  1
  Al  Al24  1  0.77847194  0.75991610  0.83423498  1
  Al  Al25  1  0.88710585  0.87197695  0.58557827  1
  Al  Al26  1  0.45319121  0.75660955  0.33944378  1
  Al  Al27  1  0.55965039  0.87004829  0.08201015  1
  Al  Al28  1  0.11122147  0.75736110  0.83154132  1
  Al  Al29  1  0.22542144  0.86601716  0.58678914  1
  Al  Al30  1  0.77798171  0.76089662  0.33303903  1
  Al  Al31  1  0.88716122  0.87004826  0.08201013  1
  Al  Al32  1  0.44827740  0.75736113  0.83154132  1
  Al  Al33  1  0.55777715  0.87197694  0.58557825  1
  Sc  Sc34  1  0.10795535  0.10094930  0.83692718  1
  Sc  Sc35  1  0.22028887  0.87628224  0.10538015  1
  N  N36  1  0.22372718  0.20650275  0.36710001  1
  N  N37  1  0.86868715  0.21569550  0.87885228  1
  N  N38  1  0.77695706  0.09477284  0.62276791  1
  N  N39  1  0.55563466  0.20559058  0.37284485  1
  N  N40  1  0.44708280  0.09104482  0.12503369  1
  N  N41  1  0.23247716  0.21569555  0.87885227  1
  N  N42  1  0.11011992  0.09662020  0.59978991  1
  N  N43  1  0.88663006  0.20650266  0.36709996  1
  N  N44  1  0.77873244  0.09104478  0.12503370  1
  N  N45  1  0.55600545  0.20484896  0.87484801  1
  N  N46  1  0.44513010  0.09477284  0.62276792  1
  N  N47  1  0.22471306  0.53584488  0.37557764  1
  N  N48  1  0.10929853  0.42925564  0.12552631  1
  N  N49  1  0.88965476  0.53755041  0.87295724  1
  N  N50  1  0.77781459  0.42790991  0.62272967  1
  N  N51  1  0.55630213  0.53584483  0.37557764  1
  N  N52  1  0.44483166  0.42719677  0.12193606  1
  N  N53  1  0.22242036  0.53923746  0.87257358  1
  N  N54  1  0.11113558  0.42791000  0.62272968  1
  N  N55  1  0.88858686  0.53968631  0.37469571  1
  N  N56  1  0.77830597  0.42925559  0.12552632  1
  N  N57  1  0.55520213  0.53923746  0.87257358  1
  N  N58  1  0.44526237  0.42633536  0.62558193  1
  N  N59  1  0.22200267  0.87285470  0.36391509  1
  N  N60  1  0.10251527  0.75123365  0.12877427  1
  N  N61  1  0.88933046  0.87217551  0.87113379  1
  N  N62  1  0.77844389  0.75997225  0.62549038  1
  N  N63  1  0.55802202  0.87212721  0.37662780  1
  N  N64  1  0.46311117  0.75123358  0.12877425  1
  N  N65  1  0.22922141  0.85841710  0.86675390  1
  N  N66  1  0.11099659  0.75972464  0.61877575  1
  N  N67  1  0.88671069  0.87212721  0.37662782  1
  N  N68  1  0.77828549  0.76028901  0.12236277  1
  N  N69  1  0.55535387  0.87217556  0.87113381  1
  N  N70  1  0.44613889  0.75972457  0.61877577  1
