# generated using pymatgen
data_Sc2Al34N35
_symmetry_space_group_name_H-M   'P 1'
_cell_length_a   9.77992254
_cell_length_b   9.78173804
_cell_length_c   8.96806003
_cell_angle_alpha   90.07521035
_cell_angle_beta   90.00000410
_cell_angle_gamma   60.00618118
_symmetry_Int_Tables_number   1
_chemical_formula_structural   Sc2Al34N35
_chemical_formula_sum   'Sc2 Al34 N35'
_cell_volume   743.03133571
_cell_formula_units_Z   1
loop_
 _symmetry_equiv_pos_site_id
 _symmetry_equiv_pos_as_xyz
  1  'x, y, z'
loop_
 _atom_site_type_symbol
 _atom_site_label
 _atom_site_symmetry_multiplicity
 _atom_site_fract_x
 _atom_site_fract_y
 _atom_site_fract_z
 _atom_site_occupancy
  Al  Al0  1  0.10944888  0.09796159  0.38359366  1
  Al  Al1  1  0.22243045  0.20889238  0.11766293  1
  Al  Al2  1  0.77353410  0.09294147  0.87471318  1
  Al  Al3  1  0.87736585  0.21120508  0.62066983  1
  Al  Al4  1  0.44561084  0.09331009  0.36708890  1
  Al  Al5  1  0.55495239  0.20695463  0.12213594  1
  Al  Al6  1  0.22828834  0.21120505  0.62066993  1
  Al  Al7  1  0.77793840  0.09331005  0.36708882  1
  Al  Al8  1  0.88553667  0.20889235  0.11766305  1
  Al  Al9  1  0.45038375  0.09294142  0.87471309  1
  Al  Al10  1  0.55624484  0.20436973  0.62080905  1
  Al  Al11  1  0.10995739  0.42836250  0.36809346  1
  Al  Al12  1  0.22402913  0.53517982  0.12371014  1
  Al  Al13  1  0.77234711  0.43351450  0.87424686  1
  Al  Al14  1  0.88978451  0.53729053  0.62040350  1
  Al  Al15  1  0.44518217  0.42649506  0.37370612  1
  Al  Al16  1  0.55765060  0.53517977  0.12371019  1
  Al  Al17  1  0.11099778  0.43351443  0.87424688  1
  Al  Al18  1  0.22289312  0.53735223  0.61968647  1
  Al  Al19  1  0.77853952  0.42836255  0.36809351  1
  Al  Al20  1  0.88794770  0.54096403  0.12195097  1
  Al  Al21  1  0.44482211  0.42721519  0.86877636  1
  Al  Al22  1  0.55661418  0.53735225  0.61968644  1
  Al  Al23  1  0.10955912  0.75951951  0.37184150  1
  Al  Al24  1  0.77795997  0.76093942  0.86754774  1
  Al  Al25  1  0.88802080  0.87322035  0.61956113  1
  Al  Al26  1  0.44778058  0.75951958  0.37184146  1
  Al  Al27  1  0.56148480  0.86904281  0.12344142  1
  Al  Al28  1  0.10898436  0.75528326  0.86874114  1
  Al  Al29  1  0.22581551  0.86522849  0.61464494  1
  Al  Al30  1  0.77849286  0.75987358  0.37538257  1
  Al  Al31  1  0.88633165  0.86904276  0.12344140  1
  Al  Al32  1  0.45259177  0.75528327  0.86874120  1
  Al  Al33  1  0.55561827  0.87322032  0.61956112  1
  Sc  Sc34  1  0.10744162  0.10197583  0.84650685  1
  Sc  Sc35  1  0.21990959  0.87704011  0.10901223  1
  N  N36  1  0.22030145  0.20326497  0.33398451  1
  N  N37  1  0.86608100  0.21672020  0.83918556  1
  N  N38  1  0.77702970  0.09442740  0.58260093  1
  N  N39  1  0.55538767  0.20608407  0.33598047  1
  N  N40  1  0.44601581  0.09196769  0.09081304  1
  N  N41  1  0.23405814  0.21672008  0.83918568  1
  N  N42  1  0.10932954  0.09820012  0.59842175  1
  N  N43  1  0.89329299  0.20326499  0.33398460  1
  N  N44  1  0.77887580  0.09196770  0.09081313  1
  N  N45  1  0.55635259  0.20415420  0.83746945  1
  N  N46  1  0.44540208  0.09442744  0.58260101  1
  N  N47  1  0.22390581  0.53749170  0.33876832  1
  N  N48  1  0.11011858  0.42843959  0.08989460  1
  N  N49  1  0.88999073  0.53687806  0.83678203  1
  N  N50  1  0.77779364  0.42820402  0.58321602  1
  N  N51  1  0.55546198  0.53749172  0.33876834  1
  N  N52  1  0.44472774  0.42740390  0.08539958  1
  N  N53  1  0.22310161  0.53775301  0.83484622  1
  N  N54  1  0.11086177  0.42820398  0.58321603  1
  N  N55  1  0.88841649  0.54002653  0.33684410  1
  N  N56  1  0.77830121  0.42843955  0.08989460  1
  N  N57  1  0.55600480  0.53775308  0.83484619  1
  N  N58  1  0.44531149  0.42623644  0.58856509  1
  N  N59  1  0.22015287  0.87655357  0.34971355  1
  N  N60  1  0.10346331  0.75166936  0.08727798  1
  N  N61  1  0.88799018  0.87350012  0.83509529  1
  N  N62  1  0.77845647  0.75994639  0.58985502  1
  N  N63  1  0.55784039  0.87072515  0.33889481  1
  N  N64  1  0.46172656  0.75166933  0.08727805  1
  N  N65  1  0.23005904  0.85674143  0.84411863  1
  N  N66  1  0.11058347  0.75981409  0.58819415  1
  N  N67  1  0.88829388  0.87072510  0.33889478  1
  N  N68  1  0.77830531  0.76024852  0.08364422  1
  N  N69  1  0.55536918  0.87350009  0.83509527  1
  N  N70  1  0.44646176  0.75981408  0.58819409  1
