# generated using pymatgen
data_Sc2Al34N35
_symmetry_space_group_name_H-M   'P 1'
_cell_length_a   9.82590532
_cell_length_b   9.82687512
_cell_length_c   8.82511620
_cell_angle_alpha   90.06912993
_cell_angle_beta   90.00000330
_cell_angle_gamma   60.00329326
_symmetry_Int_Tables_number   1
_chemical_formula_structural   Sc2Al34N35
_chemical_formula_sum   'Sc2 Al34 N35'
_cell_volume   737.99439889
_cell_formula_units_Z   1
loop_
 _symmetry_equiv_pos_site_id
 _symmetry_equiv_pos_as_xyz
  1  'x, y, z'
loop_
 _atom_site_type_symbol
 _atom_site_label
 _atom_site_symmetry_multiplicity
 _atom_site_fract_x
 _atom_site_fract_y
 _atom_site_fract_z
 _atom_site_occupancy
  Al  Al0  1  0.10921241  0.09843455  0.38144938  1
  Al  Al1  1  0.22289136  0.20889657  0.11488317  1
  Al  Al2  1  0.77359642  0.09289220  0.87183056  1
  Al  Al3  1  0.87806694  0.21087636  0.61778542  1
  Al  Al4  1  0.44566340  0.09328362  0.36422587  1
  Al  Al5  1  0.55498818  0.20688304  0.11935055  1
  Al  Al6  1  0.22791597  0.21087634  0.61778555  1
  Al  Al7  1  0.77791230  0.09328356  0.36422579  1
  Al  Al8  1  0.88507156  0.20889655  0.11488331  1
  Al  Al9  1  0.45037076  0.09289218  0.87183048  1
  Al  Al10  1  0.55618087  0.20449766  0.61767691  1
  Al  Al11  1  0.10996862  0.42838611  0.36519092  1
  Al  Al12  1  0.22400471  0.53521811  0.12072469  1
  Al  Al13  1  0.77251829  0.43344677  0.87136152  1
  Al  Al14  1  0.88979598  0.53726758  0.61735834  1
  Al  Al15  1  0.44517053  0.42651833  0.37078896  1
  Al  Al16  1  0.55763673  0.53521807  0.12072474  1
  Al  Al17  1  0.11089434  0.43344672  0.87136155  1
  Al  Al18  1  0.22298468  0.53729717  0.61666776  1
  Al  Al19  1  0.77850466  0.42838617  0.36519098  1
  Al  Al20  1  0.88801230  0.54083480  0.11917838  1
  Al  Al21  1  0.44482032  0.42721879  0.86589701  1
  Al  Al22  1  0.55657767  0.53729719  0.61666773  1
  Al  Al23  1  0.10929288  0.75929061  0.36885320  1
  Al  Al24  1  0.77800125  0.76085685  0.86455268  1
  Al  Al25  1  0.88805232  0.87317146  0.61654968  1
  Al  Al26  1  0.44827570  0.75929069  0.36885314  1
  Al  Al27  1  0.56135642  0.86920902  0.12042387  1
  Al  Al28  1  0.10918846  0.75562144  0.86534942  1
  Al  Al29  1  0.22560578  0.86564795  0.61104441  1
  Al  Al30  1  0.77848590  0.75988744  0.37256833  1
  Al  Al31  1  0.88629382  0.86920896  0.12042385  1
  Al  Al32  1  0.45204949  0.75562146  0.86534952  1
  Al  Al33  1  0.55563559  0.87317144  0.61654968  1
  Sc  Sc34  1  0.10759910  0.10166091  0.84655083  1
  Sc  Sc35  1  0.22023989  0.87637948  0.10826839  1
  N  N36  1  0.22042206  0.20336266  0.33640201  1
  N  N37  1  0.86700836  0.21623375  0.84284570  1
  N  N38  1  0.77710445  0.09455396  0.58559968  1
  N  N39  1  0.55540895  0.20604145  0.33895622  1
  N  N40  1  0.44620667  0.09200696  0.09377280  1
  N  N41  1  0.23361723  0.21623364  0.84284585  1
  N  N42  1  0.10915146  0.09855633  0.59862669  1
  N  N43  1  0.89307468  0.20336268  0.33640214  1
  N  N44  1  0.77864571  0.09200697  0.09377288  1
  N  N45  1  0.55630622  0.20424698  0.84041945  1
  N  N46  1  0.44520081  0.09455400  0.58559978  1
  N  N47  1  0.22392972  0.53738952  0.34174737  1
  N  N48  1  0.11011370  0.42851484  0.09293801  1
  N  N49  1  0.88997822  0.53690305  0.83961779  1
  N  N50  1  0.77784904  0.42802616  0.58620330  1
  N  N51  1  0.55554022  0.53738954  0.34174740  1
  N  N52  1  0.44471926  0.42742092  0.08840079  1
  N  N53  1  0.22309210  0.53779759  0.83789978  1
  N  N54  1  0.11098425  0.42802612  0.58620328  1
  N  N55  1  0.88845071  0.53995806  0.33992585  1
  N  N56  1  0.77823086  0.42851479  0.09293801  1
  N  N57  1  0.55596974  0.53779765  0.83789976  1
  N  N58  1  0.44529822  0.42626300  0.59146411  1
  N  N59  1  0.22013312  0.87659303  0.35298131  1
  N  N60  1  0.10363338  0.75194847  0.09084582  1
  N  N61  1  0.88807044  0.87339664  0.83801956  1
  N  N62  1  0.77846099  0.75993734  0.59278838  1
  N  N63  1  0.55786677  0.87084404  0.34193694  1
  N  N64  1  0.46127736  0.75194847  0.09084589  1
  N  N65  1  0.22978237  0.85729473  0.84516741  1
  N  N66  1  0.11058942  0.75978626  0.59098701  1
  N  N67  1  0.88814857  0.87084397  0.34193692  1
  N  N68  1  0.77833901  0.76018113  0.08661386  1
  N  N69  1  0.55539235  0.87339662  0.83801955  1
  N  N70  1  0.44648365  0.75978625  0.59098694  1
