# generated using pymatgen
data_Sc2Al34N35
_symmetry_space_group_name_H-M   'P 1'
_cell_length_a   9.78064701
_cell_length_b   9.78206231
_cell_length_c   8.97921882
_cell_angle_alpha   90.00645881
_cell_angle_beta   89.99999574
_cell_angle_gamma   60.00476207
_symmetry_Int_Tables_number   1
_chemical_formula_structural   Sc2Al34N35
_chemical_formula_sum   'Sc2 Al34 N35'
_cell_volume   744.02586092
_cell_formula_units_Z   1
loop_
 _symmetry_equiv_pos_site_id
 _symmetry_equiv_pos_as_xyz
  1  'x, y, z'
loop_
 _atom_site_type_symbol
 _atom_site_label
 _atom_site_symmetry_multiplicity
 _atom_site_fract_x
 _atom_site_fract_y
 _atom_site_fract_z
 _atom_site_occupancy
  Al  Al0  1  0.10938315  0.09809383  0.37313969  1
  Al  Al1  1  0.22500659  0.21050417  0.09435893  1
  Al  Al2  1  0.77384540  0.09479335  0.83652958  1
  Al  Al3  1  0.88008630  0.20990123  0.58340917  1
  Al  Al4  1  0.44855120  0.09139917  0.33659093  1
  Al  Al5  1  0.55611737  0.20462527  0.08682525  1
  Al  Al6  1  0.22687240  0.20990131  0.58340923  1
  Al  Al7  1  0.77690960  0.09139911  0.33659095  1
  Al  Al8  1  0.88134921  0.21050415  0.09435898  1
  Al  Al9  1  0.44822115  0.09479341  0.83652962  1
  Al  Al10  1  0.55514508  0.20656977  0.58515456  1
  Al  Al11  1  0.10927073  0.43113257  0.33664749  1
  Al  Al12  1  0.22201399  0.53605444  0.08543926  1
  Al  Al13  1  0.77386384  0.43151887  0.83611453  1
  Al  Al14  1  0.88867476  0.53951053  0.58678587  1
  Al  Al15  1  0.44489915  0.42706177  0.33469207  1
  Al  Al16  1  0.55879165  0.53605436  0.08543925  1
  Al  Al17  1  0.11147729  0.43151892  0.83611455  1
  Al  Al18  1  0.22491937  0.53628462  0.58682942  1
  Al  Al19  1  0.77645689  0.43113250  0.33664751  1
  Al  Al20  1  0.88900052  0.53885899  0.08597843  1
  Al  Al21  1  0.44508074  0.42669856  0.83819300  1
  Al  Al22  1  0.55565611  0.53628454  0.58682942  1
  Al  Al23  1  0.10730477  0.75702803  0.34259771  1
  Al  Al24  1  0.77848070  0.75989856  0.83670474  1
  Al  Al25  1  0.88709834  0.87195729  0.58801923  1
  Al  Al26  1  0.45252731  0.75702794  0.34259769  1
  Al  Al27  1  0.55955297  0.87019047  0.08461543  1
  Al  Al28  1  0.11095024  0.75713455  0.83380616  1
  Al  Al29  1  0.22521594  0.86642822  0.59118392  1
  Al  Al30  1  0.77800151  0.76085701  0.33551773  1
  Al  Al31  1  0.88711646  0.87019047  0.08461542  1
  Al  Al32  1  0.44877519  0.75713457  0.83380617  1
  Al  Al33  1  0.55780434  0.87195726  0.58801921  1
  Sc  Sc34  1  0.10771373  0.10143247  0.83948182  1
  Sc  Sc35  1  0.22066800  0.87552405  0.10601386  1
  N  N36  1  0.22332204  0.20610282  0.36382378  1
  N  N37  1  0.86899493  0.21551060  0.87627874  1
  N  N38  1  0.77699551  0.09485986  0.61990931  1
  N  N39  1  0.55558364  0.20569261  0.37026990  1
  N  N40  1  0.44723237  0.09110417  0.12266514  1
  N  N41  1  0.23235428  0.21551064  0.87627871  1
  N  N42  1  0.10984005  0.09717991  0.59949370  1
  N  N43  1  0.88743515  0.20610272  0.36382373  1
  N  N44  1  0.77852348  0.09110415  0.12266516  1
  N  N45  1  0.55604203  0.20477582  0.87235327  1
  N  N46  1  0.44500462  0.09485984  0.61990933  1
  N  N47  1  0.22472766  0.53591522  0.37297001  1
  N  N48  1  0.10931616  0.42930532  0.12310442  1
  N  N49  1  0.88969764  0.53746465  0.87036356  1
  N  N50  1  0.77782926  0.42782139  0.61990710  1
  N  N51  1  0.55621719  0.53591516  0.37297001  1
  N  N52  1  0.44481262  0.42723481  0.11932140  1
  N  N53  1  0.22244784  0.53911447  0.87001356  1
  N  N54  1  0.11120941  0.42782147  0.61990713  1
  N  N55  1  0.88855134  0.53975737  0.37224852  1
  N  N56  1  0.77823866  0.42930526  0.12310444  1
  N  N57  1  0.55529768  0.53911444  0.87001356  1
  N  N58  1  0.44526248  0.42633511  0.62316691  1
  N  N59  1  0.22166929  0.87352150  0.36337937  1
  N  N60  1  0.10279824  0.75155839  0.12598200  1
  N  N61  1  0.88927754  0.87223712  0.86851721  1
  N  N62  1  0.77845419  0.75995165  0.62311976  1
  N  N63  1  0.55809268  0.87203064  0.37410255  1
  N  N64  1  0.46250346  0.75155828  0.12598199  1
  N  N65  1  0.22916351  0.85853292  0.86207083  1
  N  N66  1  0.11087396  0.75960470  0.61587220  1
  N  N67  1  0.88673661  0.87203063  0.37410257  1
  N  N68  1  0.77830756  0.76024487  0.11966281  1
  N  N69  1  0.55534522  0.87223716  0.86851723  1
  N  N70  1  0.44638145  0.75960461  0.61587223  1
