# generated using pymatgen
data_Sc2Al34N35
_symmetry_space_group_name_H-M   'P 1'
_cell_length_a   9.63196327
_cell_length_b   9.63532934
_cell_length_c   9.43598403
_cell_angle_alpha   90.01230691
_cell_angle_beta   89.99999313
_cell_angle_gamma   60.01150520
_symmetry_Int_Tables_number   1
_chemical_formula_structural   Sc2Al34N35
_chemical_formula_sum   'Sc2 Al34 N35'
_cell_volume   758.48943251
_cell_formula_units_Z   1
loop_
 _symmetry_equiv_pos_site_id
 _symmetry_equiv_pos_as_xyz
  1  'x, y, z'
loop_
 _atom_site_type_symbol
 _atom_site_label
 _atom_site_symmetry_multiplicity
 _atom_site_fract_x
 _atom_site_fract_y
 _atom_site_fract_z
 _atom_site_occupancy
  Al  Al0  1  0.10898936  0.09888141  0.37366442  1
  Al  Al1  1  0.22406804  0.21101750  0.08430473  1
  Al  Al2  1  0.77363211  0.09482009  0.83016165  1
  Al  Al3  1  0.87876842  0.21041109  0.57707964  1
  Al  Al4  1  0.44809948  0.09179059  0.32963805  1
  Al  Al5  1  0.55604936  0.20476130  0.07988009  1
  Al  Al6  1  0.22768042  0.21041117  0.57707966  1
  Al  Al7  1  0.77696998  0.09179054  0.32963804  1
  Al  Al8  1  0.88177442  0.21101747  0.08430473  1
  Al  Al9  1  0.44840772  0.09482018  0.83016166  1
  Al  Al10  1  0.55536134  0.20613732  0.57890617  1
  Al  Al11  1  0.10966327  0.43061234  0.32965215  1
  Al  Al12  1  0.22211829  0.53595581  0.07852681  1
  Al  Al13  1  0.77347245  0.43191931  0.82974696  1
  Al  Al14  1  0.88867029  0.53951948  0.58010840  1
  Al  Al15  1  0.44499307  0.42687397  0.32870761  1
  Al  Al16  1  0.55878589  0.53595584  0.07852682  1
  Al  Al17  1  0.11146829  0.43191931  0.82974696  1
  Al  Al18  1  0.22449328  0.53666782  0.58057595  1
  Al  Al19  1  0.77658453  0.43061229  0.32965215  1
  Al  Al20  1  0.88889943  0.53906117  0.07955200  1
  Al  Al21  1  0.44497038  0.42691934  0.83131291  1
  Al  Al22  1  0.55569897  0.53666775  0.58057594  1
  Al  Al23  1  0.10666402  0.75581977  0.33373394  1
  Al  Al24  1  0.77842030  0.76001938  0.82995829  1
  Al  Al25  1  0.88734273  0.87198294  0.58140399  1
  Al  Al26  1  0.45437630  0.75581973  0.33373396  1
  Al  Al27  1  0.55991252  0.86979491  0.07794895  1
  Al  Al28  1  0.11177478  0.75786631  0.82833463  1
  Al  Al29  1  0.22601996  0.86482001  0.57829043  1
  Al  Al30  1  0.77796111  0.76093782  0.32922581  1
  Al  Al31  1  0.88715252  0.86979481  0.07794894  1
  Al  Al32  1  0.44721890  0.75786633  0.82833461  1
  Al  Al33  1  0.55753425  0.87198299  0.58140399  1
  Sc  Sc34  1  0.10861892  0.09962216  0.83110890  1
  Sc  Sc35  1  0.21932824  0.87820343  0.10354321  1
  N  N36  1  0.22456086  0.20737478  0.37321548  1
  N  N37  1  0.86845013  0.21590477  0.88249668  1
  N  N38  1  0.77692005  0.09449851  0.62763242  1
  N  N39  1  0.55578863  0.20528266  0.37715532  1
  N  N40  1  0.44644192  0.09112642  0.12884287  1
  N  N41  1  0.23250490  0.21590480  0.88249669  1
  N  N42  1  0.11073756  0.09538495  0.60014939  1
  N  N43  1  0.88492432  0.20737472  0.37321544  1
  N  N44  1  0.77929180  0.09112635  0.12884287  1
  N  N45  1  0.55587398  0.20511189  0.87902137  1
  N  N46  1  0.44544149  0.09449856  0.62763244  1
  N  N47  1  0.22449486  0.53589484  0.37986629  1
  N  N48  1  0.10941441  0.42889409  0.12943269  1
  N  N49  1  0.88949719  0.53786554  0.87741438  1
  N  N50  1  0.77776062  0.42815040  0.62754747  1
  N  N51  1  0.55647031  0.53589481  0.37986628  1
  N  N52  1  0.44489585  0.42706843  0.12661259  1
  N  N53  1  0.22249480  0.53940497  0.87695288  1
  N  N54  1  0.11094909  0.42815048  0.62754747  1
  N  N55  1  0.88872848  0.53940298  0.37863553  1
  N  N56  1  0.77855166  0.42889404  0.12943268  1
  N  N57  1  0.55496013  0.53940501  0.87695289  1
  N  N58  1  0.44524161  0.42637692  0.62935218  1
  N  N59  1  0.22270563  0.87144872  0.36520170  1
  N  N60  1  0.10205083  0.75064028  0.13309216  1
  N  N61  1  0.88934228  0.87206431  0.87569718  1
  N  N62  1  0.77840748  0.76004508  0.62923054  1
  N  N63  1  0.55769208  0.87231750  0.38065159  1
  N  N64  1  0.46416897  0.75064029  0.13309216  1
  N  N65  1  0.22930993  0.85823997  0.87585429  1
  N  N66  1  0.11131442  0.76007805  0.62412543  1
  N  N67  1  0.88685033  0.87231748  0.38065159  1
  N  N68  1  0.77824104  0.76037792  0.12711550  1
  N  N69  1  0.55545321  0.87206439  0.87569718  1
  N  N70  1  0.44546760  0.76007803  0.62412541  1
