# generated using pymatgen
data_Sc2Al34N35
_symmetry_space_group_name_H-M   'P 1'
_cell_length_a   9.90965859
_cell_length_b   9.90923114
_cell_length_c   8.57276428
_cell_angle_alpha   90.00948657
_cell_angle_beta   89.99999951
_cell_angle_gamma   59.99858423
_symmetry_Int_Tables_number   1
_chemical_formula_structural   Sc2Al34N35
_chemical_formula_sum   'Sc2 Al34 N35'
_cell_volume   729.02758462
_cell_formula_units_Z   1
loop_
 _symmetry_equiv_pos_site_id
 _symmetry_equiv_pos_as_xyz
  1  'x, y, z'
loop_
 _atom_site_type_symbol
 _atom_site_label
 _atom_site_symmetry_multiplicity
 _atom_site_fract_x
 _atom_site_fract_y
 _atom_site_fract_z
 _atom_site_occupancy
  Al  Al0  1  0.10933187  0.09819637  0.37178485  1
  Al  Al1  1  0.22563227  0.21011071  0.10353254  1
  Al  Al2  1  0.77399390  0.09420743  0.84687678  1
  Al  Al3  1  0.88127325  0.20937740  0.59446399  1
  Al  Al4  1  0.44798340  0.09172497  0.34656710  1
  Al  Al5  1  0.55588361  0.20509275  0.09723679  1
  Al  Al6  1  0.22620944  0.20937743  0.59446417  1
  Al  Al7  1  0.77715152  0.09172491  0.34656713  1
  Al  Al8  1  0.88111700  0.21011075  0.10353261  1
  Al  Al9  1  0.44865867  0.09420747  0.84687684  1
  Al  Al10  1  0.55523887  0.20638217  0.59492694  1
  Al  Al11  1  0.10936917  0.43062839  0.34661079  1
  Al  Al12  1  0.22256895  0.53578999  0.09648280  1
  Al  Al13  1  0.77387862  0.43178069  0.84655116  1
  Al  Al14  1  0.88892181  0.53901641  0.59625070  1
  Al  Al15  1  0.44487745  0.42710501  0.34539124  1
  Al  Al16  1  0.55850120  0.53578984  0.09648279  1
  Al  Al17  1  0.11120065  0.43178078  0.84655122  1
  Al  Al18  1  0.22453024  0.53665057  0.59619069  1
  Al  Al19  1  0.77686252  0.43062835  0.34661083  1
  Al  Al20  1  0.88894555  0.53896887  0.09639236  1
  Al  Al21  1  0.44504490  0.42677011  0.84708647  1
  Al  Al22  1  0.55567927  0.53665053  0.59619071  1
  Al  Al23  1  0.10796352  0.75808242  0.35219406  1
  Al  Al24  1  0.77841128  0.76003734  0.84579704  1
  Al  Al25  1  0.88757671  0.87193926  0.59714866  1
  Al  Al26  1  0.45081413  0.75808234  0.35219398  1
  Al  Al27  1  0.55964746  0.87048045  0.09574316  1
  Al  Al28  1  0.11028755  0.75672880  0.84408851  1
  Al  Al29  1  0.22499404  0.86687215  0.60090922  1
  Al  Al30  1  0.77813527  0.76058937  0.34641730  1
  Al  Al31  1  0.88673204  0.87048051  0.09574318  1
  Al  Al32  1  0.44984369  0.75672875  0.84408857  1
  Al  Al33  1  0.55734405  0.87193919  0.59714865  1
  Sc  Sc34  1  0.10747604  0.10190784  0.84552643  1
  Sc  Sc35  1  0.22149999  0.87386008  0.10699995  1
  N  N36  1  0.22225728  0.20511314  0.35420318  1
  N  N37  1  0.87011823  0.21483500  0.86500563  1
  N  N38  1  0.77718461  0.09482657  0.60917276  1
  N  N39  1  0.55559956  0.20566079  0.36039089  1
  N  N40  1  0.44707851  0.09170988  0.11299898  1
  N  N41  1  0.23190674  0.21483501  0.86500552  1
  N  N42  1  0.10923275  0.09839449  0.59850986  1
  N  N43  1  0.88948966  0.20511305  0.35420316  1
  N  N44  1  0.77807154  0.09170989  0.11299904  1
  N  N45  1  0.55600336  0.20485333  0.86232670  1
  N  N46  1  0.44484884  0.09482650  0.60917280  1
  N  N47  1  0.22425506  0.53655992  0.36257940  1
  N  N48  1  0.10972063  0.42892435  0.11317780  1
  N  N49  1  0.88969486  0.53747027  0.86058717  1
  N  N50  1  0.77779183  0.42774473  0.60935901  1
  N  N51  1  0.55604509  0.53655983  0.36257941  1
  N  N52  1  0.44479600  0.42726796  0.11018557  1
  N  N53  1  0.22284556  0.53855769  0.86020180  1
  N  N54  1  0.11132346  0.42774478  0.60935904  1
  N  N55  1  0.88864420  0.53957165  0.36215358  1
  N  N56  1  0.77821505  0.42892432  0.11317787  1
  N  N57  1  0.55545681  0.53855761  0.86020178  1
  N  N58  1  0.44519206  0.42647586  0.61261507  1
  N  N59  1  0.22082276  0.87521457  0.36205560  1
  N  N60  1  0.10360318  0.75240371  0.11428308  1
  N  N61  1  0.88887721  0.87239248  0.85898031  1
  N  N62  1  0.77844189  0.75997620  0.61289243  1
  N  N63  1  0.55784621  0.87177362  0.36355211  1
  N  N64  1  0.46085314  0.75240358  0.11428305  1
  N  N65  1  0.22897734  0.85890539  0.85109961  1
  N  N66  1  0.11068755  0.75951523  0.60695177  1
  N  N67  1  0.88724014  0.87177359  0.36355213  1
  N  N68  1  0.77839318  0.76007361  0.10996385  1
  N  N69  1  0.55559027  0.87239250  0.85898034  1
  N  N70  1  0.44665731  0.75951514  0.60695181  1
