# generated using pymatgen
data_Sc2Al34N35
_symmetry_space_group_name_H-M   'P 1'
_cell_length_a   9.91099834
_cell_length_b   9.91022206
_cell_length_c   8.56381418
_cell_angle_alpha   90.05259709
_cell_angle_beta   90.00000120
_cell_angle_gamma   59.99741387
_symmetry_Int_Tables_number   1
_chemical_formula_structural   Sc2Al34N35
_chemical_formula_sum   'Sc2 Al34 N35'
_cell_volume   728.42877617
_cell_formula_units_Z   1
loop_
 _symmetry_equiv_pos_site_id
 _symmetry_equiv_pos_as_xyz
  1  'x, y, z'
loop_
 _atom_site_type_symbol
 _atom_site_label
 _atom_site_symmetry_multiplicity
 _atom_site_fract_x
 _atom_site_fract_y
 _atom_site_fract_z
 _atom_site_occupancy
  Al  Al0  1  0.10895839  0.09894258  0.37637604  1
  Al  Al1  1  0.22423257  0.20926391  0.10985247  1
  Al  Al2  1  0.77378017  0.09306968  0.86387588  1
  Al  Al3  1  0.87972878  0.21009049  0.61041934  1
  Al  Al4  1  0.44611672  0.09297234  0.35827639  1
  Al  Al5  1  0.55520660  0.20644615  0.11241207  1
  Al  Al6  1  0.22704008  0.21009046  0.61041947  1
  Al  Al7  1  0.77777019  0.09297226  0.35827636  1
  Al  Al8  1  0.88336296  0.20926393  0.10985258  1
  Al  Al9  1  0.45000961  0.09306969  0.86387585  1
  Al  Al10  1  0.55591104  0.20503728  0.61012271  1
  Al  Al11  1  0.10989957  0.42879729  0.35893991  1
  Al  Al12  1  0.22370960  0.53535034  0.11299850  1
  Al  Al13  1  0.77301883  0.43300989  0.86350472  1
  Al  Al14  1  0.88961674  0.53762599  0.61016708  1
  Al  Al15  1  0.44508097  0.42669736  0.36293176  1
  Al  Al16  1  0.55779961  0.53535030  0.11299852  1
  Al  Al17  1  0.11083069  0.43300990  0.86350479  1
  Al  Al18  1  0.22334810  0.53721024  0.60958942  1
  Al  Al19  1  0.77816248  0.42879734  0.35893999  1
  Al  Al20  1  0.88832823  0.54020288  0.11215312  1
  Al  Al21  1  0.44485210  0.42715519  0.85941951  1
  Al  Al22  1  0.55630110  0.53721025  0.60958942  1
  Al  Al23  1  0.10877332  0.75887385  0.36208898  1
  Al  Al24  1  0.77812826  0.76060275  0.85820734  1
  Al  Al25  1  0.88809084  0.87277439  0.60960608  1
  Al  Al26  1  0.44921206  0.75887390  0.36208892  1
  Al  Al27  1  0.56079176  0.86975561  0.11264276  1
  Al  Al28  1  0.10957366  0.75619172  0.85767842  1
  Al  Al29  1  0.22528256  0.86629438  0.60589174  1
  Al  Al30  1  0.77841412  0.76003094  0.36460422  1
  Al  Al31  1  0.88631192  0.86975556  0.11264273  1
  Al  Al32  1  0.45109403  0.75619171  0.85767853  1
  Al  Al33  1  0.55599407  0.87277436  0.60960608  1
  Sc  Sc34  1  0.10774718  0.10136484  0.84708037  1
  Sc  Sc35  1  0.22099081  0.87487763  0.10728572  1
  N  N36  1  0.22093351  0.20385492  0.34278766  1
  N  N37  1  0.86890310  0.21528425  0.85043699  1
  N  N38  1  0.77723998  0.09465424  0.59354710  1
  N  N39  1  0.55556341  0.20573244  0.34620674  1
  N  N40  1  0.44647702  0.09215379  0.10010882  1
  N  N41  1  0.23267200  0.21528419  0.85043708  1
  N  N42  1  0.10895408  0.09895116  0.59867389  1
  N  N43  1  0.89207088  0.20385492  0.34278778  1
  N  N44  1  0.77822858  0.09215378  0.10010886  1
  N  N45  1  0.55611453  0.20463039  0.84759333  1
  N  N46  1  0.44496510  0.09465425  0.59354715  1
  N  N47  1  0.22382150  0.53721961  0.34867627  1
  N  N48  1  0.11013164  0.42852846  0.09960312  1
  N  N49  1  0.88981993  0.53721959  0.84662069  1
  N  N50  1  0.77783786  0.42784389  0.59402742  1
  N  N51  1  0.55581825  0.53721962  0.34867628  1
  N  N52  1  0.44474271  0.42737404  0.09620400  1
  N  N53  1  0.22316501  0.53795151  0.84558334  1
  N  N54  1  0.11117773  0.42784385  0.59402739  1
  N  N55  1  0.88864712  0.53956512  0.34727064  1
  N  N56  1  0.77819937  0.42852841  0.09960311  1
  N  N57  1  0.55574291  0.53795152  0.84558334  1
  N  N58  1  0.44522346  0.42641253  0.59802664  1
  N  N59  1  0.22020153  0.87645618  0.35830815  1
  N  N60  1  0.10389892  0.75242882  0.09902827  1
  N  N61  1  0.88826904  0.87295094  0.84537495  1
  N  N62  1  0.77844364  0.75997202  0.59905087  1
  N  N63  1  0.55767749  0.87126801  0.34899629  1
  N  N64  1  0.46053153  0.75242882  0.09902829  1
  N  N65  1  0.22927870  0.85830199  0.84671180  1
  N  N66  1  0.11061391  0.75972675  0.59724781  1
  N  N67  1  0.88791377  0.87126794  0.34899630  1
  N  N68  1  0.77840920  0.76004082  0.09470648  1
  N  N69  1  0.55563933  0.87295097  0.84537494  1
  N  N70  1  0.44651873  0.75972673  0.59724777  1
