# generated using pymatgen
data_Sc2Al34N35
_symmetry_space_group_name_H-M   'P 1'
_cell_length_a   9.73175897
_cell_length_b   9.73450024
_cell_length_c   9.11678938
_cell_angle_alpha   90.07995879
_cell_angle_beta   90.00000592
_cell_angle_gamma   60.00936609
_symmetry_Int_Tables_number   1
_chemical_formula_structural   Sc2Al34N35
_chemical_formula_sum   'Sc2 Al34 N35'
_cell_volume   748.02820653
_cell_formula_units_Z   1
loop_
 _symmetry_equiv_pos_site_id
 _symmetry_equiv_pos_as_xyz
  1  'x, y, z'
loop_
 _atom_site_type_symbol
 _atom_site_label
 _atom_site_symmetry_multiplicity
 _atom_site_fract_x
 _atom_site_fract_y
 _atom_site_fract_z
 _atom_site_occupancy
  Al  Al0  1  0.10974738  0.09736455  0.38551692  1
  Al  Al1  1  0.22207909  0.20897845  0.12054273  1
  Al  Al2  1  0.77349924  0.09306274  0.87701605  1
  Al  Al3  1  0.87679449  0.21147070  0.62305581  1
  Al  Al4  1  0.44564770  0.09327438  0.36984464  1
  Al  Al5  1  0.55496178  0.20693589  0.12455591  1
  Al  Al6  1  0.22859409  0.21147063  0.62305592  1
  Al  Al7  1  0.77793729  0.09327434  0.36984458  1
  Al  Al8  1  0.88580196  0.20897841  0.12054284  1
  Al  Al9  1  0.45029725  0.09306271  0.87701597  1
  Al  Al10  1  0.55627016  0.20431907  0.62356438  1
  Al  Al11  1  0.10992551  0.42843441  0.37083125  1
  Al  Al12  1  0.22399266  0.53514878  0.12622072  1
  Al  Al13  1  0.77222454  0.43349671  0.87657880  1
  Al  Al14  1  0.88971836  0.53742283  0.62310513  1
  Al  Al15  1  0.44517780  0.42650381  0.37609583  1
  Al  Al16  1  0.55771808  0.53514873  0.12622077  1
  Al  Al17  1  0.11113815  0.43349661  0.87657881  1
  Al  Al18  1  0.22284762  0.53741859  0.62237829  1
  Al  Al19  1  0.77849949  0.42843445  0.37083129  1
  Al  Al20  1  0.88793667  0.54098612  0.12433335  1
  Al  Al21  1  0.44483183  0.42719572  0.87142644  1
  Al  Al22  1  0.55659333  0.53741860  0.62237825  1
  Al  Al23  1  0.10984428  0.75975989  0.37449540  1
  Al  Al24  1  0.77792923  0.76100092  0.87040109  1
  Al  Al25  1  0.88799531  0.87318486  0.62226058  1
  Al  Al26  1  0.44725509  0.75975993  0.37449539  1
  Al  Al27  1  0.56151746  0.86894813  0.12598799  1
  Al  Al28  1  0.10878651  0.75494137  0.87174536  1
  Al  Al29  1  0.22605920  0.86474106  0.61870372  1
  Al  Al30  1  0.77848461  0.75989013  0.37761448  1
  Al  Al31  1  0.88639373  0.86894810  0.12598799  1
  Al  Al32  1  0.45313149  0.75494139  0.87174539  1
  Al  Al33  1  0.55567929  0.87318485  0.62226058  1
  Sc  Sc34  1  0.10724529  0.10236842  0.84667424  1
  Sc  Sc35  1  0.21959001  0.87767938  0.10997695  1
  N  N36  1  0.22025846  0.20324864  0.33205563  1
  N  N37  1  0.86518053  0.21721008  0.83563950  1
  N  N38  1  0.77695071  0.09425748  0.58012782  1
  N  N39  1  0.55540320  0.20605305  0.33336174  1
  N  N40  1  0.44576347  0.09195738  0.08800533  1
  N  N41  1  0.23446865  0.21720992  0.83563964  1
  N  N42  1  0.10955795  0.09774323  0.59809827  1
  N  N43  1  0.89335232  0.20324867  0.33205569  1
  N  N44  1  0.77913846  0.09195739  0.08800538  1
  N  N45  1  0.55636698  0.20412543  0.83488624  1
  N  N46  1  0.44565100  0.09425753  0.58012791  1
  N  N47  1  0.22383390  0.53760575  0.33607928  1
  N  N48  1  0.11013998  0.42829617  0.08704422  1
  N  N49  1  0.88996436  0.53693076  0.83431568  1
  N  N50  1  0.77770321  0.42843337  0.58072362  1
  N  N51  1  0.55541988  0.53760575  0.33607930  1
  N  N52  1  0.44475281  0.42735373  0.08288867  1
  N  N53  1  0.22313994  0.53773259  0.83223154  1
  N  N54  1  0.11072281  0.42843334  0.58072363  1
  N  N55  1  0.88841955  0.54002041  0.33410204  1
  N  N56  1  0.77842321  0.42829612  0.08704421  1
  N  N57  1  0.55598693  0.53773260  0.83223151  1
  N  N58  1  0.44531296  0.42623350  0.58588890  1
  N  N59  1  0.22020440  0.87645057  0.34623438  1
  N  N60  1  0.10329733  0.75138925  0.08409362  1
  N  N61  1  0.88792494  0.87353254  0.83259170  1
  N  N62  1  0.77844484  0.75996969  0.58706054  1
  N  N63  1  0.55773805  0.87066429  0.33615539  1
  N  N64  1  0.46217267  0.75138918  0.08409366  1
  N  N65  1  0.23034370  0.85617210  0.84289492  1
  N  N66  1  0.11060836  0.75985994  0.58568005  1
  N  N67  1  0.88845712  0.87066427  0.33615533  1
  N  N68  1  0.77827417  0.76031085  0.08123651  1
  N  N69  1  0.55540206  0.87353247  0.83259169  1
  N  N70  1  0.44639099  0.75985992  0.58568003  1
