# generated using pymatgen
data_Sc2Al34N35
_symmetry_space_group_name_H-M   'P 1'
_cell_length_a   9.41949264
_cell_length_b   9.43441416
_cell_length_c   10.01152609
_cell_angle_alpha   90.06203174
_cell_angle_beta   90.00000117
_cell_angle_gamma   60.05230607
_symmetry_Int_Tables_number   1
_chemical_formula_structural   Sc2Al34N35
_chemical_formula_sum   'Sc2 Al34 N35'
_cell_volume   770.90646403
_cell_formula_units_Z   1
loop_
 _symmetry_equiv_pos_site_id
 _symmetry_equiv_pos_as_xyz
  1  'x, y, z'
loop_
 _atom_site_type_symbol
 _atom_site_label
 _atom_site_symmetry_multiplicity
 _atom_site_fract_x
 _atom_site_fract_y
 _atom_site_fract_z
 _atom_site_occupancy
  Al  Al0  1  0.10963331  0.09778576  0.35913983  1
  Al  Al1  1  0.22057656  0.21133934  0.05547739  1
  Al  Al2  1  0.77374652  0.09457311  0.80699728  1
  Al  Al3  1  0.87701875  0.21117699  0.55355871  1
  Al  Al4  1  0.44689656  0.09245302  0.30480377  1
  Al  Al5  1  0.55600227  0.20504767  0.05588856  1
  Al  Al6  1  0.22885671  0.21117704  0.55355874  1
  Al  Al7  1  0.77770269  0.09245306  0.30480379  1
  Al  Al8  1  0.88513643  0.21133931  0.05547744  1
  Al  Al9  1  0.44873282  0.09457310  0.80699729  1
  Al  Al10  1  0.55599484  0.20506265  0.55534870  1
  Al  Al11  1  0.11037154  0.42943920  0.30491172  1
  Al  Al12  1  0.22291118  0.53570541  0.05535200  1
  Al  Al13  1  0.77335031  0.43258191  0.80651753  1
  Al  Al14  1  0.88885464  0.53934296  0.55587659  1
  Al  Al15  1  0.44530774  0.42643670  0.30617214  1
  Al  Al16  1  0.55843576  0.53570530  0.05535198  1
  Al  Al17  1  0.11112008  0.43258199  0.80651755  1
  Al  Al18  1  0.22363877  0.53724023  0.55662160  1
  Al  Al19  1  0.77724146  0.42943919  0.30491172  1
  Al  Al20  1  0.88857248  0.53990730  0.05618286  1
  Al  Al21  1  0.44497037  0.42711157  0.80687627  1
  Al  Al22  1  0.55617329  0.53724014  0.55662160  1
  Al  Al23  1  0.10758147  0.75535477  0.30752210  1
  Al  Al24  1  0.77822699  0.76059843  0.80566430  1
  Al  Al25  1  0.88822848  0.87182313  0.55681850  1
  Al  Al26  1  0.45411617  0.75535472  0.30752207  1
  Al  Al27  1  0.55990921  0.86986816  0.05490865  1
  Al  Al28  1  0.11210389  0.75780562  0.80594504  1
  Al  Al29  1  0.22802937  0.86099378  0.55080256  1
  Al  Al30  1  0.77802056  0.76101119  0.30630999  1
  Al  Al31  1  0.88727499  0.86986822  0.05490866  1
  Al  Al32  1  0.44714300  0.75780550  0.80594506  1
  Al  Al33  1  0.55700077  0.87182310  0.55681852  1
  Sc  Sc34  1  0.10991704  0.09721820  0.79794764  1
  Sc  Sc35  1  0.21674194  0.88356866  0.07500423  1
  N  N36  1  0.22597524  0.20895793  0.36289616  1
  N  N37  1  0.87066741  0.21530046  0.86688712  1
  N  N38  1  0.77737581  0.09368389  0.61568832  1
  N  N39  1  0.55637682  0.20429859  0.36406251  1
  N  N40  1  0.44373381  0.09207593  0.11446677  1
  N  N41  1  0.23108451  0.21530050  0.86688707  1
  N  N42  1  0.11175243  0.09354769  0.57890840  1
  N  N43  1  0.88211920  0.20895789  0.36289611  1
  N  N44  1  0.78124245  0.09207595  0.11446681  1
  N  N45  1  0.55564140  0.20576950  0.86604674  1
  N  N46  1  0.44599270  0.09368384  0.61568837  1
  N  N47  1  0.22381383  0.53634021  0.36652503  1
  N  N48  1  0.10971902  0.42793919  0.11547494  1
  N  N49  1  0.88894276  0.53916685  0.86487993  1
  N  N50  1  0.77798858  0.42835381  0.61553160  1
  N  N51  1  0.55689818  0.53634017  0.36652506  1
  N  N52  1  0.44529700  0.42645818  0.11482980  1
  N  N53  1  0.22298020  0.53927894  0.86482527  1
  N  N54  1  0.11070989  0.42835386  0.61553163  1
  N  N55  1  0.88915092  0.53875039  0.36499555  1
  N  N56  1  0.77939416  0.42793913  0.11547498  1
  N  N57  1  0.55479319  0.53927888  0.86482523  1
  N  N58  1  0.44536234  0.42632754  0.61536928  1
  N  N59  1  0.22458666  0.86787909  0.35289519  1
  N  N60  1  0.10272963  0.75086157  0.11962959  1
  N  N61  1  0.88924360  0.87205062  0.86373856  1
  N  N62  1  0.77838519  0.76028199  0.61525466  1
  N  N63  1  0.55650892  0.87267563  0.36669384  1
  N  N64  1  0.46346125  0.75086150  0.11962959  1
  N  N65  1  0.22907088  0.85891075  0.86473424  1
  N  N66  1  0.11159196  0.76002184  0.61316683  1
  N  N67  1  0.88786781  0.87267561  0.36669378  1
  N  N68  1  0.77803578  0.76098091  0.11525285  1
  N  N69  1  0.55575819  0.87205064  0.86373854  1
  N  N70  1  0.44543868  0.76002177  0.61316685  1
