# generated using pymatgen
data_Sc2Al34N35
_symmetry_space_group_name_H-M   'P 1'
_cell_length_a   9.57786315
_cell_length_b   9.58253479
_cell_length_c   9.59301306
_cell_angle_alpha   90.01728618
_cell_angle_beta   89.99999285
_cell_angle_gamma   60.01606966
_symmetry_Int_Tables_number   1
_chemical_formula_structural   Sc2Al34N35
_chemical_formula_sum   'Sc2 Al34 N35'
_cell_volume   762.61435277
_cell_formula_units_Z   1
loop_
 _symmetry_equiv_pos_site_id
 _symmetry_equiv_pos_as_xyz
  1  'x, y, z'
loop_
 _atom_site_type_symbol
 _atom_site_label
 _atom_site_symmetry_multiplicity
 _atom_site_fract_x
 _atom_site_fract_y
 _atom_site_fract_z
 _atom_site_occupancy
  Al  Al0  1  0.10890592  0.09904826  0.37379689  1
  Al  Al1  1  0.22354032  0.21113260  0.08129087  1
  Al  Al2  1  0.77356782  0.09476522  0.82862049  1
  Al  Al3  1  0.87841899  0.21054374  0.57564949  1
  Al  Al4  1  0.44781581  0.09199130  0.32780709  1
  Al  Al5  1  0.55600329  0.20485344  0.07813769  1
  Al  Al6  1  0.22789723  0.21054381  0.57564949  1
  Al  Al7  1  0.77705294  0.09199127  0.32780708  1
  Al  Al8  1  0.88218704  0.21113257  0.08129086  1
  Al  Al9  1  0.44852693  0.09476531  0.82862050  1
  Al  Al10  1  0.55546830  0.20592342  0.57732159  1
  Al  Al11  1  0.10985307  0.43032829  0.32780286  1
  Al  Al12  1  0.22226275  0.53586513  0.07688130  1
  Al  Al13  1  0.77333703  0.43213637  0.82820143  1
  Al  Al14  1  0.88869185  0.53947634  0.57833384  1
  Al  Al15  1  0.44502486  0.42681037  0.32735632  1
  Al  Al16  1  0.55873207  0.53586518  0.07688131  1
  Al  Al17  1  0.11138665  0.43213637  0.82820142  1
  Al  Al18  1  0.22424254  0.53689757  0.57896243  1
  Al  Al19  1  0.77667875  0.43032824  0.32780285  1
  Al  Al20  1  0.88884963  0.53916073  0.07800139  1
  Al  Al21  1  0.44492803  0.42700403  0.82943114  1
  Al  Al22  1  0.55571994  0.53689751  0.57896242  1
  Al  Al23  1  0.10658497  0.75551553  0.33128708  1
  Al  Al24  1  0.77837817  0.76010365  0.82813832  1
  Al  Al25  1  0.88753787  0.87196823  0.57962435  1
  Al  Al26  1  0.45475960  0.75551551  0.33128710  1
  Al  Al27  1  0.56002663  0.86971053  0.07638839  1
  Al  Al28  1  0.11199846  0.75806745  0.82720369  1
  Al  Al29  1  0.22637894  0.86410203  0.57480548  1
  Al  Al30  1  0.77795495  0.76095011  0.32776356  1
  Al  Al31  1  0.88712282  0.86971042  0.07638840  1
  Al  Al32  1  0.44679411  0.75806745  0.82720368  1
  Al  Al33  1  0.55735380  0.87196830  0.57962436  1
  Sc  Sc34  1  0.10900641  0.09884720  0.82785343  1
  Sc  Sc35  1  0.21873810  0.87938374  0.10217956  1
  N  N36  1  0.22496549  0.20782864  0.37591791  1
  N  N37  1  0.86861295  0.21589460  0.88374311  1
  N  N38  1  0.77693635  0.09433087  0.62970580  1
  N  N39  1  0.55588286  0.20509419  0.37895270  1
  N  N40  1  0.44595102  0.09125448  0.13036150  1
  N  N41  1  0.23235227  0.21589465  0.88374313  1
  N  N42  1  0.11103146  0.09479720  0.60012034  1
  N  N43  1  0.88406579  0.20782860  0.37591789  1
  N  N44  1  0.77965464  0.09125441  0.13036149  1
  N  N45  1  0.55578838  0.20528312  0.88079134  1
  N  N46  1  0.44559286  0.09433092  0.62970581  1
  N  N47  1  0.22431902  0.53599739  0.38163250  1
  N  N48  1  0.10952048  0.42861565  0.13100932  1
  N  N49  1  0.88937982  0.53810027  0.87933127  1
  N  N50  1  0.77773804  0.42827458  0.62960280  1
  N  N51  1  0.55654356  0.53599737  0.38163249  1
  N  N52  1  0.44494551  0.42696912  0.12868509  1
  N  N53  1  0.22257982  0.53944166  0.87886066  1
  N  N54  1  0.11084750  0.42827464  0.62960280  1
  N  N55  1  0.88882173  0.53921645  0.38023427  1
  N  N56  1  0.77872401  0.42861561  0.13100930  1
  N  N57  1  0.55483842  0.53944169  0.87886067  1
  N  N58  1  0.44522584  0.42640845  0.63085475  1
  N  N59  1  0.22307174  0.87071648  0.36608214  1
  N  N60  1  0.10193092  0.75042862  0.13478692  1
  N  N61  1  0.88930897  0.87202638  0.87769547  1
  N  N62  1  0.77838226  0.76009553  0.63073403  1
  N  N63  1  0.55744640  0.87241187  0.38225875  1
  N  N64  1  0.46450056  0.75042866  0.13478691  1
  N  N65  1  0.22931834  0.85822314  0.87961724  1
  N  N66  1  0.11146487  0.76026029  0.62650664  1
  N  N67  1  0.88700163  0.87241184  0.38225874  1
  N  N68  1  0.77821239  0.76043526  0.12919236  1
  N  N69  1  0.55552444  0.87202647  0.87769547  1
  N  N70  1  0.44513491  0.76026028  0.62650663  1
