# generated using pymatgen
data_Sc2Al34N35
_symmetry_space_group_name_H-M   'P 1'
_cell_length_a   9.42022972
_cell_length_b   9.43464345
_cell_length_c   10.01189858
_cell_angle_alpha   90.06228667
_cell_angle_beta   90.00004666
_cell_angle_gamma   60.04995826
_symmetry_Int_Tables_number   1
_chemical_formula_structural   Sc2Al34N35
_chemical_formula_sum   'Sc2 Al34 N35'
_cell_volume   770.99600340
_cell_formula_units_Z   1
loop_
 _symmetry_equiv_pos_site_id
 _symmetry_equiv_pos_as_xyz
  1  'x, y, z'
loop_
 _atom_site_type_symbol
 _atom_site_label
 _atom_site_symmetry_multiplicity
 _atom_site_fract_x
 _atom_site_fract_y
 _atom_site_fract_z
 _atom_site_occupancy
  Al  Al0  1  0.10973226  0.09770248  0.34844707  1
  Al  Al1  1  0.22061353  0.21132522  0.04455057  1
  Al  Al2  1  0.77378796  0.09456018  0.79609416  1
  Al  Al3  1  0.87706488  0.21117750  0.54271723  1
  Al  Al4  1  0.44694100  0.09245027  0.29391588  1
  Al  Al5  1  0.55604784  0.20505289  0.04499924  1
  Al  Al6  1  0.22892923  0.21117327  0.54272400  1
  Al  Al7  1  0.77776348  0.09244500  0.29392545  1
  Al  Al8  1  0.88521780  0.21128487  0.04455654  1
  Al  Al9  1  0.44880812  0.09457202  0.79609318  1
  Al  Al10  1  0.55605335  0.20505343  0.54443529  1
  Al  Al11  1  0.11044933  0.42939184  0.29402445  1
  Al  Al12  1  0.22298315  0.53569438  0.04446855  1
  Al  Al13  1  0.77341449  0.43256966  0.79563131  1
  Al  Al14  1  0.88890993  0.53933846  0.54496838  1
  Al  Al15  1  0.44536995  0.42643181  0.29527158  1
  Al  Al16  1  0.55853389  0.53567237  0.04447790  1
  Al  Al17  1  0.11117691  0.43259218  0.79562667  1
  Al  Al18  1  0.22369621  0.53721513  0.54572313  1
  Al  Al19  1  0.77734395  0.42938286  0.29402373  1
  Al  Al20  1  0.88864053  0.53990576  0.04529724  1
  Al  Al21  1  0.44503037  0.42711313  0.79597821  1
  Al  Al22  1  0.55624181  0.53721677  0.54571477  1
  Al  Al23  1  0.10764979  0.75533269  0.29665391  1
  Al  Al24  1  0.77827634  0.76059999  0.79476890  1
  Al  Al25  1  0.88828202  0.87181897  0.54591551  1
  Al  Al26  1  0.45416929  0.75534040  0.29665116  1
  Al  Al27  1  0.55994445  0.86988456  0.04403518  1
  Al  Al28  1  0.11214455  0.75777872  0.79505361  1
  Al  Al29  1  0.22811245  0.86094392  0.54000540  1
  Al  Al30  1  0.77807341  0.76100921  0.29540725  1
  Al  Al31  1  0.88732692  0.86986794  0.04403739  1
  Al  Al32  1  0.44723916  0.75776992  0.79505856  1
  Al  Al33  1  0.55706411  0.87181158  0.54591526  1
  Sc  Sc34  1  0.10998989  0.09719883  0.78711969  1
  Sc  Sc35  1  0.21683575  0.88348882  0.06406475  1
  N  N36  1  0.22604593  0.20891279  0.35205878  1
  N  N37  1  0.87071743  0.21527336  0.85596343  1
  N  N38  1  0.77741326  0.09367747  0.60479473  1
  N  N39  1  0.55643520  0.20428529  0.35315975  1
  N  N40  1  0.44376303  0.09209756  0.10358235  1
  N  N41  1  0.23116326  0.21530179  0.85596403  1
  N  N42  1  0.11182378  0.09352870  0.56806097  1
  N  N43  1  0.88221154  0.20890545  0.35205664  1
  N  N44  1  0.78128471  0.09208291  0.10358491  1
  N  N45  1  0.55570462  0.20576007  0.85516099  1
  N  N46  1  0.44607808  0.09367121  0.60479630  1
  N  N47  1  0.22387985  0.53630432  0.35563101  1
  N  N48  1  0.10980313  0.42790873  0.10458477  1
  N  N49  1  0.88900289  0.53916262  0.85399133  1
  N  N50  1  0.77804409  0.42836213  0.60464112  1
  N  N51  1  0.55698426  0.53630860  0.35562076  1
  N  N52  1  0.44535870  0.42646368  0.10394476  1
  N  N53  1  0.22304344  0.53926366  0.85394405  1
  N  N54  1  0.11075293  0.42836360  0.60463807  1
  N  N55  1  0.88921599  0.53873781  0.35409108  1
  N  N56  1  0.77950123  0.42789090  0.10458567  1
  N  N57  1  0.55487568  0.53924700  0.85394987  1
  N  N58  1  0.44542333  0.42631979  0.60446731  1
  N  N59  1  0.22467181  0.86780604  0.34210308  1
  N  N60  1  0.10277161  0.75085067  0.10876359  1
  N  N61  1  0.88929738  0.87204335  0.85286054  1
  N  N62  1  0.77844068  0.76028427  0.60435402  1
  N  N63  1  0.55656303  0.87266686  0.35579459  1
  N  N64  1  0.46353502  0.75084741  0.10875370  1
  N  N65  1  0.22915622  0.85884257  0.85380181  1
  N  N66  1  0.11163624  0.75999581  0.60228554  1
  N  N67  1  0.88792283  0.87266066  0.35579667  1
  N  N68  1  0.77807215  0.76100127  0.10436347  1
  N  N69  1  0.55580774  0.87205257  0.85286089  1
  N  N70  1  0.44554062  0.75999141  0.60229432  1
