# generated using pymatgen
data_Sc2Al34N35
_symmetry_space_group_name_H-M   'P 1'
_cell_length_a   9.42102191
_cell_length_b   9.42948307
_cell_length_c   10.00227527
_cell_angle_alpha   90.13622162
_cell_angle_beta   90.00000008
_cell_angle_gamma   60.02968166
_symmetry_Int_Tables_number   1
_chemical_formula_structural   Sc2Al34N35
_chemical_formula_sum   'Sc2 Al34 N35'
_cell_volume   769.73904036
_cell_formula_units_Z   1
loop_
 _symmetry_equiv_pos_site_id
 _symmetry_equiv_pos_as_xyz
  1  'x, y, z'
loop_
 _atom_site_type_symbol
 _atom_site_label
 _atom_site_symmetry_multiplicity
 _atom_site_fract_x
 _atom_site_fract_y
 _atom_site_fract_z
 _atom_site_occupancy
  Al  Al0  1  0.11071204  0.09520523  0.41504152  1
  Al  Al1  1  0.22281716  0.21119300  0.15960079  1
  Al  Al2  1  0.77390993  0.09453474  0.90496527  1
  Al  Al3  1  0.88058936  0.20968765  0.65290255  1
  Al  Al4  1  0.44685499  0.09236278  0.40515664  1
  Al  Al5  1  0.55550597  0.20561738  0.15564165  1
  Al  Al6  1  0.22635228  0.20968765  0.65290255  1
  Al  Al7  1  0.77741153  0.09236277  0.40515663  1
  Al  Al8  1  0.88261916  0.21119299  0.15960081  1
  Al  Al9  1  0.44818462  0.09453474  0.90496525  1
  Al  Al10  1  0.55579400  0.20504130  0.65565253  1
  Al  Al11  1  0.10972176  0.42952749  0.40542607  1
  Al  Al12  1  0.22298176  0.53561072  0.15597459  1
  Al  Al13  1  0.77221381  0.43264463  0.90474149  1
  Al  Al14  1  0.88881761  0.53899408  0.65507997  1
  Al  Al15  1  0.44496557  0.42669816  0.40575029  1
  Al  Al16  1  0.55803683  0.53561072  0.15597460  1
  Al  Al17  1  0.11177084  0.43264464  0.90474148  1
  Al  Al18  1  0.22297808  0.53769395  0.65538036  1
  Al  Al19  1  0.77738005  0.42952749  0.40542607  1
  Al  Al20  1  0.88844622  0.53973687  0.15509980  1
  Al  Al21  1  0.44462800  0.42737328  0.90428282  1
  Al  Al22  1  0.55595727  0.53769394  0.65538036  1
  Al  Al23  1  0.11029260  0.75914053  0.40908129  1
  Al  Al24  1  0.77765599  0.76131732  0.90477989  1
  Al  Al25  1  0.88789106  0.87223704  0.65532351  1
  Al  Al26  1  0.44719617  0.75914053  0.40908129  1
  Al  Al27  1  0.56016922  0.86927868  0.15632986  1
  Al  Al28  1  0.10928932  0.75575847  0.90328528  1
  Al  Al29  1  0.22501273  0.86660384  0.65572054  1
  Al  Al30  1  0.77822158  0.76018613  0.40619142  1
  Al  Al31  1  0.88718142  0.86927867  0.15632986  1
  Al  Al32  1  0.45158153  0.75575846  0.90328528  1
  Al  Al33  1  0.55650121  0.87223703  0.65532351  1
  Sc  Sc34  1  0.10638653  0.10385620  0.89261645  1
  Sc  Sc35  1  0.21854371  0.87954190  0.15207618  1
  N  N36  1  0.22151634  0.20398070  0.34921811  1
  N  N37  1  0.86526926  0.21770667  0.84141242  1
  N  N38  1  0.77699989  0.09317399  0.59485011  1
  N  N39  1  0.55593692  0.20475546  0.34553757  1
  N  N40  1  0.44321304  0.09247443  0.09757142  1
  N  N41  1  0.23365336  0.21770667  0.84141242  1
  N  N42  1  0.11042299  0.09578331  0.60914878  1
  N  N43  1  0.89113228  0.20398070  0.34921811  1
  N  N44  1  0.78094184  0.09247442  0.09757143  1
  N  N45  1  0.55571571  0.20519788  0.84712722  1
  N  N46  1  0.44645541  0.09317399  0.59485011  1
  N  N47  1  0.22281872  0.53802946  0.34669795  1
  N  N48  1  0.11048050  0.42607250  0.09641603  1
  N  N49  1  0.88916661  0.53829608  0.84700511  1
  N  N50  1  0.77713054  0.42933493  0.59487098  1
  N  N51  1  0.55578114  0.53802946  0.34669796  1
  N  N52  1  0.44509662  0.42643607  0.09639729  1
  N  N53  1  0.22350855  0.53817142  0.84547651  1
  N  N54  1  0.11016383  0.42933493  0.59487098  1
  N  N55  1  0.88890676  0.53881579  0.34563283  1
  N  N56  1  0.78007631  0.42607250  0.09641604  1
  N  N57  1  0.55494933  0.53817142  0.84547652  1
  N  N58  1  0.44499360  0.42664208  0.59661334  1
  N  N59  1  0.22180809  0.87301312  0.36084064  1
  N  N60  1  0.10396002  0.75199381  0.09321602  1
  N  N61  1  0.88763883  0.87315763  0.84617068  1
  N  N62  1  0.77812521  0.76037888  0.59680727  1
  N  N63  1  0.55624909  0.87082013  0.34698725  1
  N  N64  1  0.46067550  0.75199380  0.09321603  1
  N  N65  1  0.23003527  0.85655879  0.85051416  1
  N  N66  1  0.11040717  0.75971157  0.59919771  1
  N  N67  1  0.88956010  0.87082012  0.34698725  1
  N  N68  1  0.77818305  0.76026320  0.09581647  1
  N  N69  1  0.55583285  0.87315763  0.84617068  1
  N  N70  1  0.44651057  0.75971156  0.59919772  1
