# generated using pymatgen
data_Sc2Al34N35
_symmetry_space_group_name_H-M   'P 1'
_cell_length_a   9.82592432
_cell_length_b   9.82685010
_cell_length_c   8.83582879
_cell_angle_alpha   90.00655205
_cell_angle_beta   89.99999695
_cell_angle_gamma   60.00310354
_symmetry_Int_Tables_number   1
_chemical_formula_structural   Sc2Al34N35
_chemical_formula_sum   'Sc2 Al34 N35'
_cell_volume   738.88907791
_cell_formula_units_Z   1
loop_
 _symmetry_equiv_pos_site_id
 _symmetry_equiv_pos_as_xyz
  1  'x, y, z'
loop_
 _atom_site_type_symbol
 _atom_site_label
 _atom_site_symmetry_multiplicity
 _atom_site_fract_x
 _atom_site_fract_y
 _atom_site_fract_z
 _atom_site_occupancy
  Al  Al0  1  0.10944736  0.09796540  0.37279057  1
  Al  Al1  1  0.22521560  0.21033139  0.09772523  1
  Al  Al2  1  0.77390191  0.09467061  0.83944045  1
  Al  Al3  1  0.88055431  0.20970450  0.58652690  1
  Al  Al4  1  0.44849276  0.09140799  0.33954552  1
  Al  Al5  1  0.55608408  0.20469184  0.08985310  1
  Al  Al6  1  0.22660116  0.20970457  0.58652699  1
  Al  Al7  1  0.77695922  0.09140792  0.33954555  1
  Al  Al8  1  0.88131298  0.21033139  0.09772529  1
  Al  Al9  1  0.44828740  0.09467067  0.83944050  1
  Al  Al10  1  0.55513103  0.20659785  0.58791236  1
  Al  Al11  1  0.10924258  0.43110101  0.33960029  1
  Al  Al12  1  0.22212038  0.53600626  0.08857323  1
  Al  Al13  1  0.77392368  0.43152964  0.83903375  1
  Al  Al14  1  0.88872022  0.53941959  0.58956640  1
  Al  Al15  1  0.44487812  0.42710379  0.33759570  1
  Al  Al16  1  0.55873346  0.53600614  0.08857322  1
  Al  Al17  1  0.11140668  0.43152971  0.83903378  1
  Al  Al18  1  0.22489658  0.53631824  0.58953712  1
  Al  Al19  1  0.77651658  0.43110095  0.33960032  1
  Al  Al20  1  0.88900817  0.53884366  0.08891275  1
  Al  Al21  1  0.44509281  0.42667438  0.84090725  1
  Al  Al22  1  0.55564526  0.53631818  0.58953712  1
  Al  Al23  1  0.10754856  0.75742644  0.34585480  1
  Al  Al24  1  0.77847558  0.75990878  0.83942988  1
  Al  Al25  1  0.88717647  0.87193546  0.59074633  1
  Al  Al26  1  0.45188511  0.75742635  0.34585476  1
  Al  Al27  1  0.55950707  0.87032288  0.08771782  1
  Al  Al28  1  0.11070784  0.75695807  0.83664067  1
  Al  Al29  1  0.22508184  0.86669646  0.59516638  1
  Al  Al30  1  0.77803174  0.76079651  0.33850693  1
  Al  Al31  1  0.88702996  0.87032291  0.08771782  1
  Al  Al32  1  0.44919410  0.75695807  0.83664070  1
  Al  Al33  1  0.55774805  0.87193541  0.59074631  1
  Sc  Sc34  1  0.10754965  0.10176061  0.84178144  1
  Sc  Sc35  1  0.22098963  0.87488079  0.10649075  1
  N  N36  1  0.22293567  0.20573385  0.36050813  1
  N  N37  1  0.86937002  0.21529276  0.87310013  1
  N  N38  1  0.77704437  0.09490151  0.61670218  1
  N  N39  1  0.55555736  0.20574518  0.36735267  1
  N  N40  1  0.44726966  0.09123729  0.11990497  1
  N  N41  1  0.23219709  0.21529279  0.87310008  1
  N  N42  1  0.10959891  0.09766218  0.59916388  1
  N  N43  1  0.88819051  0.20573376  0.36050809  1
  N  N44  1  0.77835303  0.09123729  0.11990501  1
  N  N45  1  0.55605429  0.20475136  0.86949056  1
  N  N46  1  0.44491411  0.09490147  0.61670222  1
  N  N47  1  0.22466034  0.53606013  0.36996886  1
  N  N48  1  0.10939488  0.42925766  0.12027957  1
  N  N49  1  0.88971797  0.53742402  0.86746563  1
  N  N50  1  0.77783072  0.42776366  0.61674993  1
  N  N51  1  0.55613962  0.53606005  0.36996887  1
  N  N52  1  0.44480068  0.42725866  0.11650183  1
  N  N53  1  0.22252684  0.53896332  0.86712848  1
  N  N54  1  0.11126567  0.42776374  0.61674996  1
  N  N55  1  0.88854631  0.53976743  0.36938535  1
  N  N56  1  0.77820757  0.42925760  0.12027961  1
  N  N57  1  0.55536985  0.53896328  0.86712847  1
  N  N58  1  0.44525266  0.42635472  0.62026414  1
  N  N59  1  0.22135575  0.87414859  0.36288901  1
  N  N60  1  0.10308726  0.75187525  0.12265165  1
  N  N61  1  0.88918763  0.87229567  0.86562955  1
  N  N62  1  0.77845810  0.75994380  0.62029156  1
  N  N63  1  0.55808900  0.87193501  0.37113010  1
  N  N64  1  0.46189756  0.75187513  0.12265164  1
  N  N65  1  0.22910198  0.85865600  0.85775145  1
  N  N66  1  0.11078905  0.75953640  0.61287815  1
  N  N67  1  0.88683593  0.87193499  0.37113012  1
  N  N68  1  0.77833216  0.76019565  0.11671250  1
  N  N69  1  0.55537660  0.87229571  0.86562957  1
  N  N70  1  0.44653467  0.75953631  0.61287818  1
