# generated using pymatgen
data_Sc2Al34N35
_symmetry_space_group_name_H-M   'P 1'
_cell_length_a   9.41951128
_cell_length_b   9.43443254
_cell_length_c   10.01147372
_cell_angle_alpha   90.06215086
_cell_angle_beta   90.00000427
_cell_angle_gamma   60.05231334
_symmetry_Int_Tables_number   1
_chemical_formula_structural   Sc2Al34N35
_chemical_formula_sum   'Sc2 Al34 N35'
_cell_volume   770.90551278
_cell_formula_units_Z   1
loop_
 _symmetry_equiv_pos_site_id
 _symmetry_equiv_pos_as_xyz
  1  'x, y, z'
loop_
 _atom_site_type_symbol
 _atom_site_label
 _atom_site_symmetry_multiplicity
 _atom_site_fract_x
 _atom_site_fract_y
 _atom_site_fract_z
 _atom_site_occupancy
  Al  Al0  1  0.10965430  0.09778132  0.35547800  1
  Al  Al1  1  0.22060000  0.21133440  0.05180701  1
  Al  Al2  1  0.77376738  0.09456636  0.80332905  1
  Al  Al3  1  0.87704150  0.21117086  0.54990119  1
  Al  Al4  1  0.44691655  0.09244819  0.30113865  1
  Al  Al5  1  0.55602411  0.20504157  0.05222008  1
  Al  Al6  1  0.22887771  0.21117092  0.54990120  1
  Al  Al7  1  0.77772509  0.09244824  0.30113865  1
  Al  Al8  1  0.88515550  0.21133436  0.05180705  1
  Al  Al9  1  0.44875627  0.09456634  0.80332904  1
  Al  Al10  1  0.55601633  0.20505728  0.55168011  1
  Al  Al11  1  0.11039408  0.42943142  0.30124496  1
  Al  Al12  1  0.22293222  0.53570027  0.05168463  1
  Al  Al13  1  0.77337076  0.43257803  0.80284795  1
  Al  Al14  1  0.88887594  0.53933797  0.55220663  1
  Al  Al15  1  0.44532960  0.42643057  0.30250231  1
  Al  Al16  1  0.55845743  0.53570015  0.05168460  1
  Al  Al17  1  0.11114109  0.43257811  0.80284796  1
  Al  Al18  1  0.22366101  0.53723430  0.55295310  1
  Al  Al19  1  0.77726427  0.42943142  0.30124498  1
  Al  Al20  1  0.88859465  0.53990054  0.05251396  1
  Al  Al21  1  0.44499190  0.42710604  0.80320816  1
  Al  Al22  1  0.55619457  0.53723421  0.55295310  1
  Al  Al23  1  0.10760302  0.75534873  0.30386028  1
  Al  Al24  1  0.77824860  0.76059276  0.80199629  1
  Al  Al25  1  0.88824967  0.87181722  0.55315095  1
  Al  Al26  1  0.45413824  0.75534867  0.30386025  1
  Al  Al27  1  0.55993020  0.86986231  0.05124331  1
  Al  Al28  1  0.11212576  0.75779970  0.80227885  1
  Al  Al29  1  0.22805031  0.86098952  0.54714159  1
  Al  Al30  1  0.77804236  0.76100517  0.30264038  1
  Al  Al31  1  0.88729749  0.86986236  0.05124333  1
  Al  Al32  1  0.44716463  0.75779960  0.80227886  1
  Al  Al33  1  0.55702309  0.87181720  0.55315096  1
  Sc  Sc34  1  0.10993997  0.09721006  0.79429201  1
  Sc  Sc35  1  0.21676429  0.88356162  0.07134590  1
  N  N36  1  0.22599654  0.20895205  0.35923696  1
  N  N37  1  0.87068486  0.21529700  0.86321732  1
  N  N38  1  0.77739628  0.09367730  0.61202171  1
  N  N39  1  0.55639827  0.20429330  0.36039530  1
  N  N40  1  0.44375477  0.09207075  0.11080112  1
  N  N41  1  0.23110814  0.21529704  0.86321727  1
  N  N42  1  0.11177410  0.09354191  0.57525362  1
  N  N43  1  0.88214135  0.20895204  0.35923695  1
  N  N44  1  0.78126422  0.09207081  0.11080113  1
  N  N45  1  0.55566316  0.20576366  0.86237881  1
  N  N46  1  0.44601645  0.09367725  0.61202173  1
  N  N47  1  0.22383635  0.53633329  0.36285791  1
  N  N48  1  0.10974108  0.42793248  0.11180785  1
  N  N49  1  0.88896437  0.53916118  0.86121163  1
  N  N50  1  0.77800888  0.42835070  0.61186399  1
  N  N51  1  0.55692020  0.53633326  0.36285793  1
  N  N52  1  0.44531873  0.42645237  0.11116104  1
  N  N53  1  0.22300159  0.53927357  0.86115808  1
  N  N54  1  0.11073028  0.42835076  0.61186399  1
  N  N55  1  0.88917248  0.53874486  0.36132706  1
  N  N56  1  0.77941631  0.42793244  0.11180789  1
  N  N57  1  0.55481485  0.53927346  0.86115805  1
  N  N58  1  0.44538400  0.42632183  0.61170198  1
  N  N59  1  0.22460765  0.86787472  0.34923401  1
  N  N60  1  0.10275091  0.75085481  0.11596700  1
  N  N61  1  0.88926542  0.87204470  0.86007282  1
  N  N62  1  0.77840688  0.76027622  0.61158723  1
  N  N63  1  0.55653148  0.87267003  0.36302739  1
  N  N64  1  0.46348439  0.75085468  0.11596696  1
  N  N65  1  0.22909455  0.85890102  0.86107442  1
  N  N66  1  0.11161326  0.76001598  0.60950113  1
  N  N67  1  0.88788841  0.87267005  0.36302739  1
  N  N68  1  0.77805769  0.76097463  0.11158450  1
  N  N69  1  0.55577988  0.87204470  0.86007281  1
  N  N70  1  0.44546085  0.76001588  0.60950117  1
