# generated using pymatgen
data_Sc2Al34N35
_symmetry_space_group_name_H-M   'P 1'
_cell_length_a   9.95313014
_cell_length_b   9.95049742
_cell_length_c   8.44685990
_cell_angle_alpha   90.03826920
_cell_angle_beta   89.99999972
_cell_angle_gamma   59.99124842
_symmetry_Int_Tables_number   1
_chemical_formula_structural   Sc2Al34N35
_chemical_formula_sum   'Sc2 Al34 N35'
_cell_volume   724.42255254
_cell_formula_units_Z   1
loop_
 _symmetry_equiv_pos_site_id
 _symmetry_equiv_pos_as_xyz
  1  'x, y, z'
loop_
 _atom_site_type_symbol
 _atom_site_label
 _atom_site_symmetry_multiplicity
 _atom_site_fract_x
 _atom_site_fract_y
 _atom_site_fract_z
 _atom_site_occupancy
  Al  Al0  1  0.10890109  0.09905706  0.37306250  1
  Al  Al1  1  0.22536987  0.20975517  0.10779387  1
  Al  Al2  1  0.77386557  0.09333009  0.85869259  1
  Al  Al3  1  0.88066615  0.20963529  0.60593655  1
  Al  Al4  1  0.44665177  0.09263452  0.35535562  1
  Al  Al5  1  0.55537473  0.20610974  0.10820654  1
  Al  Al6  1  0.22655782  0.20963527  0.60593668  1
  Al  Al7  1  0.77757277  0.09263444  0.35535561  1
  Al  Al8  1  0.88173422  0.20975521  0.10779396  1
  Al  Al9  1  0.44966364  0.09333014  0.85869259  1
  Al  Al10  1  0.55567379  0.20551160  0.60585429  1
  Al  Al11  1  0.10977192  0.42929597  0.35573387  1
  Al  Al12  1  0.22340034  0.53546320  0.10833467  1
  Al  Al13  1  0.77335071  0.43259760  0.85846294  1
  Al  Al14  1  0.88941722  0.53802482  0.60621320  1
  Al  Al15  1  0.44498411  0.42689085  0.35803772  1
  Al  Al16  1  0.55799581  0.53546313  0.10833468  1
  Al  Al17  1  0.11091089  0.43259767  0.85846300  1
  Al  Al18  1  0.22363934  0.53717223  0.60580567  1
  Al  Al19  1  0.77779127  0.42929599  0.35573394  1
  Al  Al20  1  0.88860156  0.53965605  0.10780211  1
  Al  Al21  1  0.44487577  0.42710760  0.85594155  1
  Al  Al22  1  0.55604767  0.53717223  0.60580567  1
  Al  Al23  1  0.10841180  0.75865243  0.35887756  1
  Al  Al24  1  0.77822618  0.76040670  0.85496811  1
  Al  Al25  1  0.88806571  0.87238917  0.60599749  1
  Al  Al26  1  0.44979489  0.75865244  0.35887750  1
  Al  Al27  1  0.56040257  0.87012657  0.10792835  1
  Al  Al28  1  0.10970963  0.75636663  0.85399085  1
  Al  Al29  1  0.22514244  0.86657448  0.60437858  1
  Al  Al30  1  0.77835412  0.76015074  0.35931629  1
  Al  Al31  1  0.88633002  0.87012653  0.10792831  1
  Al  Al32  1  0.45078298  0.75636659  0.85399096  1
  Al  Al33  1  0.55640425  0.87238915  0.60599750  1
  Sc  Sc34  1  0.10772504  0.10140902  0.84760891  1
  Sc  Sc35  1  0.22155796  0.87374317  0.10706499  1
  N  N36  1  0.22141050  0.20431589  0.34666081  1
  N  N37  1  0.86985565  0.21479568  0.85439114  1
  N  N38  1  0.77729891  0.09462932  0.59852254  1
  N  N39  1  0.55565755  0.20554398  0.35053019  1
  N  N40  1  0.44673075  0.09223744  0.10345362  1
  N  N41  1  0.23220790  0.21479569  0.85439117  1
  N  N42  1  0.10890453  0.09905015  0.59841159  1
  N  N43  1  0.89113275  0.20431586  0.34666090  1
  N  N44  1  0.77789107  0.09223741  0.10345364  1
  N  N45  1  0.55597175  0.20491579  0.85169294  1
  N  N46  1  0.44493096  0.09462932  0.59852257  1
  N  N47  1  0.22371630  0.53714238  0.35248195  1
  N  N48  1  0.11013687  0.42856276  0.10317496  1
  N  N49  1  0.88970218  0.53745486  0.85077195  1
  N  N50  1  0.77776688  0.42783144  0.59889431  1
  N  N51  1  0.55600049  0.53714236  0.35248196  1
  N  N52  1  0.44475258  0.42735411  0.10085151  1
  N  N53  1  0.22323625  0.53801415  0.85008218  1
  N  N54  1  0.11126098  0.42783140  0.59889428  1
  N  N55  1  0.88880075  0.53925766  0.35150312  1
  N  N56  1  0.77815968  0.42856273  0.10317497  1
  N  N57  1  0.55560882  0.53801411  0.85008219  1
  N  N58  1  0.44513319  0.42659286  0.60169447  1
  N  N59  1  0.22032843  0.87620226  0.36033625  1
  N  N60  1  0.10387274  0.75256858  0.10317077  1
  N  N61  1  0.88833771  0.87263927  0.84969314  1
  N  N62  1  0.77842965  0.75999983  0.60240377  1
  N  N63  1  0.55753408  0.87155041  0.35285735  1
  N  N64  1  0.46041779  0.75256858  0.10317078  1
  N  N65  1  0.22907429  0.85871063  0.84716459  1
  N  N66  1  0.11054982  0.75964786  0.60039111  1
  N  N67  1  0.88777460  0.87155033  0.35285737  1
  N  N68  1  0.77845232  0.75995445  0.09979912  1
  N  N69  1  0.55588211  0.87263933  0.84969314  1
  N  N70  1  0.44666158  0.75964781  0.60039110  1
