# generated using pymatgen
data_Sc2Al34N35
_symmetry_space_group_name_H-M   'P 1'
_cell_length_a   9.41948612
_cell_length_b   9.43440367
_cell_length_c   10.01154139
_cell_angle_alpha   90.06206324
_cell_angle_beta   90.00000008
_cell_angle_gamma   60.05228876
_symmetry_Int_Tables_number   1
_chemical_formula_structural   Sc2Al34N35
_chemical_formula_sum   'Sc2 Al34 N35'
_cell_volume   770.90611644
_cell_formula_units_Z   1
loop_
 _symmetry_equiv_pos_site_id
 _symmetry_equiv_pos_as_xyz
  1  'x, y, z'
loop_
 _atom_site_type_symbol
 _atom_site_label
 _atom_site_symmetry_multiplicity
 _atom_site_fract_x
 _atom_site_fract_y
 _atom_site_fract_z
 _atom_site_occupancy
  Al  Al0  1  0.10958865  0.09779675  0.36676887  1
  Al  Al1  1  0.22053069  0.21135089  0.06310457  1
  Al  Al2  1  0.77370149  0.09458568  0.81462561  1
  Al  Al3  1  0.87697292  0.21118946  0.56118507  1
  Al  Al4  1  0.44685168  0.09246467  0.31243040  1
  Al  Al5  1  0.55595683  0.20506035  0.06351720  1
  Al  Al6  1  0.22881164  0.21118950  0.56118501  1
  Al  Al7  1  0.77765764  0.09246474  0.31243041  1
  Al  Al8  1  0.88509243  0.21135083  0.06310455  1
  Al  Al9  1  0.44868701  0.09458569  0.81462562  1
  Al  Al10  1  0.55594976  0.20507465  0.56297483  1
  Al  Al11  1  0.11032649  0.42945167  0.31253849  1
  Al  Al12  1  0.22286624  0.53571709  0.06298030  1
  Al  Al13  1  0.77330503  0.43259400  0.81414543  1
  Al  Al14  1  0.88880943  0.53935498  0.56350274  1
  Al  Al15  1  0.44526237  0.42644916  0.31379962  1
  Al  Al16  1  0.55839077  0.53571695  0.06298028  1
  Al  Al17  1  0.11107493  0.43259411  0.81414541  1
  Al  Al18  1  0.22359351  0.53725234  0.56424876  1
  Al  Al19  1  0.77719581  0.42945162  0.31253847  1
  Al  Al20  1  0.88852739  0.53991921  0.06381137  1
  Al  Al21  1  0.44492521  0.42712367  0.81450425  1
  Al  Al22  1  0.55612821  0.53725218  0.56424874  1
  Al  Al23  1  0.10753679  0.75536674  0.31515118  1
  Al  Al24  1  0.77818194  0.76061034  0.81329150  1
  Al  Al25  1  0.88818348  0.87183507  0.56444589  1
  Al  Al26  1  0.45407053  0.75536669  0.31515117  1
  Al  Al27  1  0.55986375  0.86988013  0.06253692  1
  Al  Al28  1  0.11205885  0.75781769  0.81357199  1
  Al  Al29  1  0.22798446  0.86100514  0.55843102  1
  Al  Al30  1  0.77797535  0.76102337  0.31393799  1
  Al  Al31  1  0.88723026  0.86988024  0.06253688  1
  Al  Al32  1  0.44709763  0.75781747  0.81357201  1
  Al  Al33  1  0.55695561  0.87183493  0.56444581  1
  Sc  Sc34  1  0.10987155  0.09723063  0.80557375  1
  Sc  Sc35  1  0.21669682  0.88358036  0.08263213  1
  N  N36  1  0.22593001  0.20896964  0.37052428  1
  N  N37  1  0.87062220  0.21531265  0.87451449  1
  N  N38  1  0.77733028  0.09369596  0.62331732  1
  N  N39  1  0.55633182  0.20431021  0.37169072  1
  N  N40  1  0.44368839  0.09208794  0.12209367  1
  N  N41  1  0.23103910  0.21531252  0.87451434  1
  N  N42  1  0.11170694  0.09356028  0.58653553  1
  N  N43  1  0.88207437  0.20896967  0.37052440  1
  N  N44  1  0.78119757  0.09208798  0.12209370  1
  N  N45  1  0.55559616  0.20578147  0.87367456  1
  N  N46  1  0.44594782  0.09369590  0.62331732  1
  N  N47  1  0.22376862  0.53635194  0.37415465  1
  N  N48  1  0.10967369  0.42795075  0.12310216  1
  N  N49  1  0.88889719  0.53917962  0.87250780  1
  N  N50  1  0.77794336  0.42836607  0.62316050  1
  N  N51  1  0.55685332  0.53635195  0.37415460  1
  N  N52  1  0.44525171  0.42647049  0.12245738  1
  N  N53  1  0.22293493  0.53929121  0.87245320  1
  N  N54  1  0.11066452  0.42836609  0.62316059  1
  N  N55  1  0.88910588  0.53876218  0.37262426  1
  N  N56  1  0.77934967  0.42795069  0.12310224  1
  N  N57  1  0.55474785  0.53929124  0.87245316  1
  N  N58  1  0.44531738  0.42633918  0.62299866  1
  N  N59  1  0.22454178  0.86789057  0.36052617  1
  N  N60  1  0.10268414  0.75087383  0.12725836  1
  N  N61  1  0.88919806  0.87206258  0.87136596  1
  N  N62  1  0.77833995  0.76029410  0.62288373  1
  N  N63  1  0.55646359  0.87268809  0.37432324  1
  N  N64  1  0.46341624  0.75087378  0.12725831  1
  N  N65  1  0.22902543  0.85892339  0.87236064  1
  N  N66  1  0.11154635  0.76003375  0.62079587  1
  N  N67  1  0.88782236  0.87268804  0.37432322  1
  N  N68  1  0.77799043  0.76099327  0.12288061  1
  N  N69  1  0.55571344  0.87206262  0.87136588  1
  N  N70  1  0.44539414  0.76003367  0.62079576  1
