# generated using pymatgen
data_Sc2Al34N35
_symmetry_space_group_name_H-M   'P 1'
_cell_length_a   9.46237000
_cell_length_b   9.47141064
_cell_length_c   9.89483947
_cell_angle_alpha   90.10144790
_cell_angle_beta   90.00001185
_cell_angle_gamma   60.03158206
_symmetry_Int_Tables_number   1
_chemical_formula_structural   Sc2Al34N35
_chemical_formula_sum   'Sc2 Al34 N35'
_cell_volume   768.22987461
_cell_formula_units_Z   1
loop_
 _symmetry_equiv_pos_site_id
 _symmetry_equiv_pos_as_xyz
  1  'x, y, z'
loop_
 _atom_site_type_symbol
 _atom_site_label
 _atom_site_symmetry_multiplicity
 _atom_site_fract_x
 _atom_site_fract_y
 _atom_site_fract_z
 _atom_site_occupancy
  Al  Al0  1  0.11092812  0.09500297  0.39248752  1
  Al  Al1  1  0.22206306  0.21056590  0.13491521  1
  Al  Al2  1  0.77384673  0.09420875  0.88274127  1
  Al  Al3  1  0.87826226  0.21080218  0.62969741  1
  Al  Al4  1  0.44675384  0.09257519  0.38129254  1
  Al  Al5  1  0.55551128  0.20583662  0.13262473  1
  Al  Al6  1  0.22779483  0.21080217  0.62969744  1
  Al  Al7  1  0.77753018  0.09257521  0.38129255  1
  Al  Al8  1  0.88423025  0.21056589  0.13491523  1
  Al  Al9  1  0.44880376  0.09420871  0.88274128  1
  Al  Al10  1  0.55604110  0.20477702  0.63279085  1
  Al  Al11  1  0.10972042  0.42955361  0.38171994  1
  Al  Al12  1  0.22338740  0.53526607  0.13344791  1
  Al  Al13  1  0.77218553  0.43270719  0.88253873  1
  Al  Al14  1  0.88903268  0.53879385  0.63213909  1
  Al  Al15  1  0.44509449  0.42667020  0.38304304  1
  Al  Al16  1  0.55820574  0.53526602  0.13344791  1
  Al  Al17  1  0.11196650  0.43270721  0.88253874  1
  Al  Al18  1  0.22299835  0.53772742  0.63205319  1
  Al  Al19  1  0.77758517  0.42955362  0.38171993  1
  Al  Al20  1  0.88840758  0.54004409  0.13209956  1
  Al  Al21  1  0.44483304  0.42719310  0.88104309  1
  Al  Al22  1  0.55613344  0.53772739  0.63205318  1
  Al  Al23  1  0.11063809  0.75973749  0.38475804  1
  Al  Al24  1  0.77783520  0.76118887  0.88140196  1
  Al  Al25  1  0.88808488  0.87230363  0.63192148  1
  Al  Al26  1  0.44648368  0.75973746  0.38475803  1
  Al  Al27  1  0.56059863  0.86917953  0.13363499  1
  Al  Al28  1  0.10897183  0.75476543  0.88081090  1
  Al  Al29  1  0.22622076  0.86441773  0.63326086  1
  Al  Al30  1  0.77834208  0.76017509  0.38358482  1
  Al  Al31  1  0.88708116  0.86917956  0.13363500  1
  Al  Al32  1  0.45312198  0.75476539  0.88081090  1
  Al  Al33  1  0.55647076  0.87230361  0.63192146  1
  Sc  Sc34  1  0.10660289  0.10365341  0.85908959  1
  Sc  Sc35  1  0.21832833  0.88020265  0.12376941  1
  N  N36  1  0.22113709  0.20390908  0.32738703  1
  N  N37  1  0.86316841  0.21862818  0.82044243  1
  N  N38  1  0.77685172  0.09316683  0.57283356  1
  N  N39  1  0.55586369  0.20513184  0.32408584  1
  N  N40  1  0.44362137  0.09231387  0.07670632  1
  N  N41  1  0.23506265  0.21862815  0.82044243  1
  N  N42  1  0.11061748  0.09562428  0.59139444  1
  N  N43  1  0.89181306  0.20390909  0.32738705  1
  N  N44  1  0.78092389  0.09231391  0.07670633  1
  N  N45  1  0.55604450  0.20477022  0.82590179  1
  N  N46  1  0.44684065  0.09316679  0.57283355  1
  N  N47  1  0.22313316  0.53807401  0.32565964  1
  N  N48  1  0.11052505  0.42651893  0.07562620  1
  N  N49  1  0.88949894  0.53786137  0.82571620  1
  N  N50  1  0.77714047  0.42958392  0.57298186  1
  N  N51  1  0.55565206  0.53807398  0.32565965  1
  N  N52  1  0.44515866  0.42654182  0.07482098  1
  N  N53  1  0.22353027  0.53798731  0.82381591  1
  N  N54  1  0.11013479  0.42958389  0.57298186  1
  N  N55  1  0.88880447  0.53925031  0.32424196  1
  N  N56  1  0.77981518  0.42651895  0.07562622  1
  N  N57  1  0.55534167  0.53798727  0.82381592  1
  N  N58  1  0.44519769  0.42646377  0.57555420  1
  N  N59  1  0.22129081  0.87427765  0.33659710  1
  N  N60  1  0.10362678  0.75127286  0.07239317  1
  N  N61  1  0.88783860  0.87316038  0.82448738  1
  N  N62  1  0.77830217  0.76025487  0.57580084  1
  N  N63  1  0.55661295  0.87084688  0.32584260  1
  N  N64  1  0.46195964  0.75127282  0.07239318  1
  N  N65  1  0.23116000  0.85453928  0.83154246  1
  N  N66  1  0.11071425  0.75980451  0.57715520  1
  N  N67  1  0.88939943  0.87084690  0.32584261  1
  N  N68  1  0.77823168  0.76039588  0.07409651  1
  N  N69  1  0.55586030  0.87316034  0.82448738  1
  N  N70  1  0.44634047  0.75980449  0.57715519  1
