# generated using pymatgen
data_Sc2Al34N35
_symmetry_space_group_name_H-M   'P 1'
_cell_length_a   9.42102267
_cell_length_b   9.42947656
_cell_length_c   10.00229998
_cell_angle_alpha   90.13631719
_cell_angle_beta   90.00000074
_cell_angle_gamma   60.02965638
_symmetry_Int_Tables_number   1
_chemical_formula_structural   Sc2Al34N35
_chemical_formula_sum   'Sc2 Al34 N35'
_cell_volume   769.74027216
_cell_formula_units_Z   1
loop_
 _symmetry_equiv_pos_site_id
 _symmetry_equiv_pos_as_xyz
  1  'x, y, z'
loop_
 _atom_site_type_symbol
 _atom_site_label
 _atom_site_symmetry_multiplicity
 _atom_site_fract_x
 _atom_site_fract_y
 _atom_site_fract_z
 _atom_site_occupancy
  Al  Al0  1  0.11073337  0.09520047  0.41135054  1
  Al  Al1  1  0.22284059  0.21118721  0.15590952  1
  Al  Al2  1  0.77393140  0.09452886  0.90126319  1
  Al  Al3  1  0.88061293  0.20968130  0.64921139  1
  Al  Al4  1  0.44687748  0.09235632  0.40145702  1
  Al  Al5  1  0.55552827  0.20561069  0.15193793  1
  Al  Al6  1  0.22637297  0.20968131  0.64921139  1
  Al  Al7  1  0.77743340  0.09235633  0.40145699  1
  Al  Al8  1  0.88263946  0.21118716  0.15590953  1
  Al  Al9  1  0.44820699  0.09452886  0.90126318  1
  Al  Al10  1  0.55581543  0.20503633  0.65194807  1
  Al  Al11  1  0.10974405  0.42952148  0.40172603  1
  Al  Al12  1  0.22300301  0.53560495  0.15227219  1
  Al  Al13  1  0.77223560  0.43263934  0.90104016  1
  Al  Al14  1  0.88883932  0.53898854  0.65137651  1
  Al  Al15  1  0.44498740  0.42669240  0.40204552  1
  Al  Al16  1  0.55805927  0.53560491  0.15227221  1
  Al  Al17  1  0.11179228  0.43263936  0.90104015  1
  Al  Al18  1  0.22300046  0.53768743  0.65167993  1
  Al  Al19  1  0.77740170  0.42952146  0.40172603  1
  Al  Al20  1  0.88846865  0.53972990  0.15139729  1
  Al  Al21  1  0.44464975  0.42736771  0.90058129  1
  Al  Al22  1  0.55597930  0.53768742  0.65167994  1
  Al  Al23  1  0.11031361  0.75913322  0.40539049  1
  Al  Al24  1  0.77767792  0.76131136  0.90107719  1
  Al  Al25  1  0.88791191  0.87223128  0.65162289  1
  Al  Al26  1  0.44722040  0.75913320  0.40539054  1
  Al  Al27  1  0.56019089  0.86927301  0.15262767  1
  Al  Al28  1  0.10931195  0.75575425  0.89959012  1
  Al  Al29  1  0.22503313  0.86660096  0.65202517  1
  Al  Al30  1  0.77824356  0.76018011  0.40248651  1
  Al  Al31  1  0.88720340  0.86927300  0.15262765  1
  Al  Al32  1  0.45160107  0.75575423  0.89959011  1
  Al  Al33  1  0.55652403  0.87223127  0.65162290  1
  Sc  Sc34  1  0.10640885  0.10384964  0.88893726  1
  Sc  Sc35  1  0.21856690  0.87953366  0.14839487  1
  N  N36  1  0.22153853  0.20397376  0.34552427  1
  N  N37  1  0.86529455  0.21769927  0.83771949  1
  N  N38  1  0.77702269  0.09316868  0.59115184  1
  N  N39  1  0.55595935  0.20474849  0.34183580  1
  N  N40  1  0.44323432  0.09246889  0.09387148  1
  N  N41  1  0.23367340  0.21769930  0.83771947  1
  N  N42  1  0.11044405  0.09577907  0.60545495  1
  N  N43  1  0.89115494  0.20397375  0.34552426  1
  N  N44  1  0.78096398  0.09246890  0.09387147  1
  N  N45  1  0.55573720  0.20519292  0.84342504  1
  N  N46  1  0.44647586  0.09316865  0.59115185  1
  N  N47  1  0.22283965  0.53802435  0.34299767  1
  N  N48  1  0.11050299  0.42606492  0.09271659  1
  N  N49  1  0.88918845  0.53829028  0.84330382  1
  N  N50  1  0.77715271  0.42932782  0.59117247  1
  N  N51  1  0.55580323  0.53802433  0.34299768  1
  N  N52  1  0.44511852  0.42643019  0.09269681  1
  N  N53  1  0.22353029  0.53816599  0.84177795  1
  N  N54  1  0.11018661  0.42932786  0.59117245  1
  N  N55  1  0.88892938  0.53880845  0.34193176  1
  N  N56  1  0.78009928  0.42606489  0.09271660  1
  N  N57  1  0.55497098  0.53816595  0.84177796  1
  N  N58  1  0.44501507  0.42663706  0.59291096  1
  N  N59  1  0.22183066  0.87300595  0.35715705  1
  N  N60  1  0.10398318  0.75198971  0.08952056  1
  N  N61  1  0.88766086  0.87315145  0.84247164  1
  N  N62  1  0.77814696  0.76037329  0.59310455  1
  N  N63  1  0.55626995  0.87081382  0.34328731  1
  N  N64  1  0.46069453  0.75198961  0.08952056  1
  N  N65  1  0.23005540  0.85655644  0.84681893  1
  N  N66  1  0.11042856  0.75970570  0.59550470  1
  N  N67  1  0.88958343  0.87081384  0.34328728  1
  N  N68  1  0.77820536  0.76025652  0.09211544  1
  N  N69  1  0.55585493  0.87315141  0.84247166  1
  N  N70  1  0.44653296  0.75970567  0.59550472  1
