# generated using pymatgen
data_Sc2Al34N35
_symmetry_space_group_name_H-M   'P 1'
_cell_length_a   9.42102996
_cell_length_b   9.42948465
_cell_length_c   10.00227050
_cell_angle_alpha   90.13631275
_cell_angle_beta   90.00000240
_cell_angle_gamma   60.02965605
_symmetry_Int_Tables_number   1
_chemical_formula_structural   Sc2Al34N35
_chemical_formula_sum   'Sc2 Al34 N35'
_cell_volume   769.73925702
_cell_formula_units_Z   1
loop_
 _symmetry_equiv_pos_site_id
 _symmetry_equiv_pos_as_xyz
  1  'x, y, z'
loop_
 _atom_site_type_symbol
 _atom_site_label
 _atom_site_symmetry_multiplicity
 _atom_site_fract_x
 _atom_site_fract_y
 _atom_site_fract_z
 _atom_site_occupancy
  Al  Al0  1  0.11075657  0.09519334  0.40751420  1
  Al  Al1  1  0.22286427  0.21118113  0.15207686  1
  Al  Al2  1  0.77395401  0.09452328  0.89743987  1
  Al  Al3  1  0.88063684  0.20967442  0.64538055  1
  Al  Al4  1  0.44690002  0.09234978  0.39763393  1
  Al  Al5  1  0.55555104  0.20560440  0.14811764  1
  Al  Al6  1  0.22639523  0.20967440  0.64538055  1
  Al  Al7  1  0.77745669  0.09234978  0.39763394  1
  Al  Al8  1  0.88266110  0.21118111  0.15207686  1
  Al  Al9  1  0.44822921  0.09452325  0.89743986  1
  Al  Al10  1  0.55583817  0.20503013  0.64812748  1
  Al  Al11  1  0.10976716  0.42951448  0.39790331  1
  Al  Al12  1  0.22302617  0.53559827  0.14844965  1
  Al  Al13  1  0.77225789  0.43263369  0.89721688  1
  Al  Al14  1  0.88886199  0.53898249  0.64755559  1
  Al  Al15  1  0.44501032  0.42668585  0.39822509  1
  Al  Al16  1  0.55808204  0.53559826  0.14844964  1
  Al  Al17  1  0.11181490  0.43263368  0.89721687  1
  Al  Al18  1  0.22302283  0.53768253  0.64785674  1
  Al  Al19  1  0.77742483  0.42951449  0.39790331  1
  Al  Al20  1  0.88849154  0.53972340  0.14757639  1
  Al  Al21  1  0.44467237  0.42736171  0.89675958  1
  Al  Al22  1  0.55600111  0.53768251  0.64785676  1
  Al  Al23  1  0.11033709  0.75912753  0.40155674  1
  Al  Al24  1  0.77770066  0.76130519  0.89725644  1
  Al  Al25  1  0.88793568  0.87222466  0.64779972  1
  Al  Al26  1  0.44724192  0.75912750  0.40155675  1
  Al  Al27  1  0.56021401  0.86926650  0.14880436  1
  Al  Al28  1  0.10933389  0.75574834  0.89576172  1
  Al  Al29  1  0.22505548  0.86659556  0.64819507  1
  Al  Al30  1  0.77826645  0.76017363  0.39866560  1
  Al  Al31  1  0.88722603  0.86926649  0.14880435  1
  Al  Al32  1  0.45162430  0.75574833  0.89576172  1
  Al  Al33  1  0.55654617  0.87222466  0.64779970  1
  Sc  Sc34  1  0.10642991  0.10384665  0.88510442  1
  Sc  Sc35  1  0.21858936  0.87952776  0.14455416  1
  N  N36  1  0.22156221  0.20396822  0.34169446  1
  N  N37  1  0.86531650  0.21769389  0.83389184  1
  N  N38  1  0.77704508  0.09316212  0.58732850  1
  N  N39  1  0.55598218  0.20474211  0.33801502  1
  N  N40  1  0.44325863  0.09246201  0.09004697  1
  N  N41  1  0.23369607  0.21769386  0.83389184  1
  N  N42  1  0.11046709  0.09577229  0.60162094  1
  N  N43  1  0.89117604  0.20396823  0.34169448  1
  N  N44  1  0.78098581  0.09246202  0.09004697  1
  N  N45  1  0.55575971  0.20518704  0.83960326  1
  N  N46  1  0.44649928  0.09316212  0.58732849  1
  N  N47  1  0.22286332  0.53801649  0.33917422  1
  N  N48  1  0.11052518  0.42605996  0.08889240  1
  N  N49  1  0.88921089  0.53828469  0.83948164  1
  N  N50  1  0.77717507  0.42932244  0.58734939  1
  N  N51  1  0.55582666  0.53801649  0.33917421  1
  N  N52  1  0.44514150  0.42642346  0.08887482  1
  N  N53  1  0.22355315  0.53816055  0.83795430  1
  N  N54  1  0.11020894  0.42932244  0.58734939  1
  N  N55  1  0.88895223  0.53880199  0.33811065  1
  N  N56  1  0.78012135  0.42605994  0.08889241  1
  N  N57  1  0.55499276  0.53816054  0.83795432  1
  N  N58  1  0.44503787  0.42663073  0.58908949  1
  N  N59  1  0.22185359  0.87299932  0.35331862  1
  N  N60  1  0.10400495  0.75198167  0.08569357  1
  N  N61  1  0.88768319  0.87314556  0.83864803  1
  N  N62  1  0.77816973  0.76036706  0.58928296  1
  N  N63  1  0.55629377  0.87080771  0.33946312  1
  N  N64  1  0.46071993  0.75198166  0.08569358  1
  N  N65  1  0.23007744  0.85655163  0.84299193  1
  N  N66  1  0.11045162  0.75970007  0.59167488  1
  N  N67  1  0.88960501  0.87080773  0.33946311  1
  N  N68  1  0.77822837  0.76024977  0.08829397  1
  N  N69  1  0.55587776  0.87314554  0.83864801  1
  N  N70  1  0.44655482  0.75970005  0.59167489  1
