# generated using pymatgen
data_Sc2Al34N35
_symmetry_space_group_name_H-M   'P 1'
_cell_length_a   9.68373845
_cell_length_b   9.68625152
_cell_length_c   9.28053382
_cell_angle_alpha   90.00917383
_cell_angle_beta   89.99999377
_cell_angle_gamma   60.00853914
_symmetry_Int_Tables_number   1
_chemical_formula_structural   Sc2Al34N35
_chemical_formula_sum   'Sc2 Al34 N35'
_cell_volume   753.94512547
_cell_formula_units_Z   1
loop_
 _symmetry_equiv_pos_site_id
 _symmetry_equiv_pos_as_xyz
  1  'x, y, z'
loop_
 _atom_site_type_symbol
 _atom_site_label
 _atom_site_symmetry_multiplicity
 _atom_site_fract_x
 _atom_site_fract_y
 _atom_site_fract_z
 _atom_site_occupancy
  Al  Al0  1  0.10912098  0.09861812  0.37354774  1
  Al  Al1  1  0.22446168  0.21086583  0.08753248  1
  Al  Al2  1  0.77370667  0.09485371  0.83196261  1
  Al  Al3  1  0.87916569  0.21026269  0.57877983  1
  Al  Al4  1  0.44833126  0.09161122  0.33168421  1
  Al  Al5  1  0.55609014  0.20467977  0.08188575  1
  Al  Al6  1  0.22743155  0.21026274  0.57877987  1
  Al  Al7  1  0.77691754  0.09161120  0.33168421  1
  Al  Al8  1  0.88153247  0.21086576  0.08753250  1
  Al  Al9  1  0.44829950  0.09485382  0.83196261  1
  Al  Al10  1  0.55526792  0.20632414  0.58071514  1
  Al  Al11  1  0.10949272  0.43086048  0.33171825  1
  Al  Al12  1  0.22202222  0.53602360  0.08047824  1
  Al  Al13  1  0.77362113  0.43172755  0.83154870  1
  Al  Al14  1  0.88865661  0.53954690  0.58209506  1
  Al  Al15  1  0.44496021  0.42693969  0.33033869  1
  Al  Al16  1  0.55881423  0.53602358  0.08047825  1
  Al  Al17  1  0.11151133  0.43172760  0.83154870  1
  Al  Al18  1  0.22470126  0.53647384  0.58240051  1
  Al  Al19  1  0.77650694  0.43086047  0.33171825  1
  Al  Al20  1  0.88894152  0.53897695  0.08136619  1
  Al  Al21  1  0.44501351  0.42683308  0.83340239  1
  Al  Al22  1  0.55568497  0.53647377  0.58240051  1
  Al  Al23  1  0.10683464  0.75619544  0.33646405  1
  Al  Al24  1  0.77845129  0.75995734  0.83198847  1
  Al  Al25  1  0.88719233  0.87198648  0.58338081  1
  Al  Al26  1  0.45382997  0.75619540  0.33646407  1
  Al  Al27  1  0.55977860  0.86991122  0.07980832  1
  Al  Al28  1  0.11150580  0.75761677  0.82974949  1
  Al  Al29  1  0.22569575  0.86546843  0.58236198  1
  Al  Al30  1  0.77796919  0.76092172  0.33096537  1
  Al  Al31  1  0.88717010  0.86991113  0.07980831  1
  Al  Al32  1  0.44773744  0.75761679  0.82974948  1
  Al  Al33  1  0.55768115  0.87198648  0.58338080  1
  Sc  Sc34  1  0.10826250  0.10033499  0.83412631  1
  Sc  Sc35  1  0.21984378  0.87717239  0.10457091  1
  N  N36  1  0.22414467  0.20693049  0.37026131  1
  N  N37  1  0.86849061  0.21583234  0.88089709  1
  N  N38  1  0.77692980  0.09464893  0.62533222  1
  N  N39  1  0.55570488  0.20545013  0.37512998  1
  N  N40  1  0.44681795  0.09105472  0.12707808  1
  N  N41  1  0.23253685  0.21583238  0.88089709  1
  N  N42  1  0.11042661  0.09600684  0.60002166  1
  N  N43  1  0.88578481  0.20693042  0.37026126  1
  N  N44  1  0.77898743  0.09105466  0.12707808  1
  N  N45  1  0.55594785  0.20496416  0.87705360  1
  N  N46  1  0.44528129  0.09464896  0.62533223  1
  N  N47  1  0.22463031  0.53584120  0.37786103  1
  N  N48  1  0.10933505  0.42911381  0.12761876  1
  N  N49  1  0.88958813  0.53768365  0.87529862  1
  N  N50  1  0.77778933  0.42802381  0.62526774  1
  N  N51  1  0.55638853  0.53584116  0.37786102  1
  N  N52  1  0.44485900  0.42714212  0.12436649  1
  N  N53  1  0.22243889  0.53933472  0.87487270  1
  N  N54  1  0.11104696  0.42802390  0.62526776  1
  N  N55  1  0.88864801  0.53956396  0.37680590  1
  N  N56  1  0.77841130  0.42911376  0.12761875  1
  N  N57  1  0.55508632  0.53933473  0.87487271  1
  N  N58  1  0.44525458  0.42635096  0.62761659  1
  N  N59  1  0.22235056  0.87215888  0.36451158  1
  N  N60  1  0.10225689  0.75091900  0.13111674  1
  N  N61  1  0.88935053  0.87211585  0.87352030  1
  N  N62  1  0.77842804  0.76000396  0.62750232  1
  N  N63  1  0.55788536  0.87222319  0.37879070  1
  N  N64  1  0.46368420  0.75091897  0.13111673  1
  N  N65  1  0.22927272  0.85831443  0.87147322  1
  N  N66  1  0.11114988  0.75988931  0.62154447  1
  N  N67  1  0.88675137  0.87222318  0.37879071  1
  N  N68  1  0.77826411  0.76033177  0.12484459  1
  N  N69  1  0.55539344  0.87211591  0.87352031  1
  N  N70  1  0.44582091  0.75988926  0.62154446  1
