# generated using pymatgen
data_Sc2Al34N35
_symmetry_space_group_name_H-M   'P 1'
_cell_length_a   9.42104338
_cell_length_b   9.42950943
_cell_length_c   10.00223253
_cell_angle_alpha   90.13616157
_cell_angle_beta   89.99999971
_cell_angle_gamma   60.02969811
_symmetry_Int_Tables_number   1
_chemical_formula_structural   Sc2Al34N35
_chemical_formula_sum   'Sc2 Al34 N35'
_cell_volume   769.73978628
_cell_formula_units_Z   1
loop_
 _symmetry_equiv_pos_site_id
 _symmetry_equiv_pos_as_xyz
  1  'x, y, z'
loop_
 _atom_site_type_symbol
 _atom_site_label
 _atom_site_symmetry_multiplicity
 _atom_site_fract_x
 _atom_site_fract_y
 _atom_site_fract_z
 _atom_site_occupancy
  Al  Al0  1  0.11077913  0.09518820  0.40363689  1
  Al  Al1  1  0.22288379  0.21117517  0.14819164  1
  Al  Al2  1  0.77397768  0.09451557  0.89354851  1
  Al  Al3  1  0.88065553  0.20967008  0.64149367  1
  Al  Al4  1  0.44692270  0.09234498  0.39373916  1
  Al  Al5  1  0.55557357  0.20559931  0.14422159  1
  Al  Al6  1  0.22642083  0.20967006  0.64149369  1
  Al  Al7  1  0.77747875  0.09234500  0.39373918  1
  Al  Al8  1  0.88268751  0.21117515  0.14819165  1
  Al  Al9  1  0.44825320  0.09451557  0.89354851  1
  Al  Al10  1  0.55586188  0.20502264  0.64423295  1
  Al  Al11  1  0.10978898  0.42951025  0.39400841  1
  Al  Al12  1  0.22304913  0.53559310  0.14455683  1
  Al  Al13  1  0.77228199  0.43262601  0.89332491  1
  Al  Al14  1  0.88888540  0.53897560  0.64366055  1
  Al  Al15  1  0.44503298  0.42668047  0.39433052  1
  Al  Al16  1  0.55810421  0.53559309  0.14455683  1
  Al  Al17  1  0.11183844  0.43262600  0.89332490  1
  Al  Al18  1  0.22304625  0.53767423  0.64396355  1
  Al  Al19  1  0.77744717  0.42951026  0.39400840  1
  Al  Al20  1  0.88851348  0.53971948  0.14368054  1
  Al  Al21  1  0.44469609  0.42735425  0.89286442  1
  Al  Al22  1  0.55602594  0.53767421  0.64396357  1
  Al  Al23  1  0.11035952  0.75912210  0.39767353  1
  Al  Al24  1  0.77772388  0.76129871  0.89336041  1
  Al  Al25  1  0.88795797  0.87221885  0.64390646  1
  Al  Al26  1  0.44726486  0.75912207  0.39767356  1
  Al  Al27  1  0.56023633  0.86926111  0.14491253  1
  Al  Al28  1  0.10935787  0.75573935  0.89187361  1
  Al  Al29  1  0.22508116  0.86658412  0.64430990  1
  Al  Al30  1  0.77828891  0.76016864  0.39477179  1
  Al  Al31  1  0.88724902  0.86926111  0.14491253  1
  Al  Al32  1  0.45164921  0.75573936  0.89187364  1
  Al  Al33  1  0.55656962  0.87221885  0.64390647  1
  Sc  Sc34  1  0.10645572  0.10383501  0.88120364  1
  Sc  Sc35  1  0.21861149  0.87952355  0.14067340  1
  N  N36  1  0.22158271  0.20396239  0.33780916  1
  N  N37  1  0.86533763  0.21768773  0.83000327  1
  N  N38  1  0.77706825  0.09315583  0.58343533  1
  N  N39  1  0.55600430  0.20473782  0.33412047  1
  N  N40  1  0.44327922  0.09245701  0.08615757  1
  N  N41  1  0.23372110  0.21768770  0.83000325  1
  N  N42  1  0.11049052  0.09576541  0.59774570  1
  N  N43  1  0.89120135  0.20396239  0.33780920  1
  N  N44  1  0.78101021  0.09245699  0.08615757  1
  N  N45  1  0.55578375  0.20517896  0.83571063  1
  N  N46  1  0.44652236  0.09315583  0.58343533  1
  N  N47  1  0.22288545  0.53801309  0.33528318  1
  N  N48  1  0.11054837  0.42605405  0.08500229  1
  N  N49  1  0.88923463  0.53827721  0.83558864  1
  N  N50  1  0.77719868  0.42931566  0.58345595  1
  N  N51  1  0.55584788  0.53801308  0.33528319  1
  N  N52  1  0.44516395  0.42641853  0.08498110  1
  N  N53  1  0.22357616  0.53815271  0.83406219  1
  N  N54  1  0.11023208  0.42931563  0.58345597  1
  N  N55  1  0.88897405  0.53879834  0.33421634  1
  N  N56  1  0.78014400  0.42605408  0.08500232  1
  N  N57  1  0.55501756  0.53815273  0.83406223  1
  N  N58  1  0.44506129  0.42662381  0.58519671  1
  N  N59  1  0.22187515  0.87299622  0.34943938  1
  N  N60  1  0.10402862  0.75197743  0.08180511  1
  N  N61  1  0.88770736  0.87313894  0.83475602  1
  N  N62  1  0.77819291  0.76036061  0.58539043  1
  N  N63  1  0.55631552  0.87080229  0.33557296  1
  N  N64  1  0.46074043  0.75197742  0.08180511  1
  N  N65  1  0.23010398  0.85653847  0.83910473  1
  N  N66  1  0.11047486  0.75969251  0.58778914  1
  N  N67  1  0.88962860  0.87080235  0.33557295  1
  N  N68  1  0.77825025  0.76024595  0.08439972  1
  N  N69  1  0.55590016  0.87313893  0.83475609  1
  N  N70  1  0.44657909  0.75969249  0.58778917  1
