# generated using pymatgen
data_Sc2Al34N35
_symmetry_space_group_name_H-M   'P 1'
_cell_length_a   9.86958733
_cell_length_b   9.86971922
_cell_length_c   8.68965101
_cell_angle_alpha   90.06175692
_cell_angle_beta   90.00000217
_cell_angle_gamma   60.00046023
_symmetry_Int_Tables_number   1
_chemical_formula_structural   Sc2Al34N35
_chemical_formula_sum   'Sc2 Al34 N35'
_cell_volume   733.05816622
_cell_formula_units_Z   1
loop_
 _symmetry_equiv_pos_site_id
 _symmetry_equiv_pos_as_xyz
  1  'x, y, z'
loop_
 _atom_site_type_symbol
 _atom_site_label
 _atom_site_symmetry_multiplicity
 _atom_site_fract_x
 _atom_site_fract_y
 _atom_site_fract_z
 _atom_site_occupancy
  Al  Al0  1  0.10905029  0.09875878  0.37906166  1
  Al  Al1  1  0.22348084  0.20900997  0.11226006  1
  Al  Al2  1  0.77368111  0.09293162  0.86825016  1
  Al  Al3  1  0.87886539  0.21049925  0.61436903  1
  Al  Al4  1  0.44582275  0.09317821  0.36127878  1
  Al  Al5  1  0.55507291  0.20671354  0.11613127  1
  Al  Al6  1  0.22749468  0.21049922  0.61436916  1
  Al  Al7  1  0.77785832  0.09317814  0.36127872  1
  Al  Al8  1  0.88436866  0.20900998  0.11226019  1
  Al  Al9  1  0.45024669  0.09293162  0.86825009  1
  Al  Al10  1  0.55607175  0.20471588  0.61412145  1
  Al  Al11  1  0.10995242  0.42852378  0.36213296  1
  Al  Al12  1  0.22390305  0.53527173  0.11717602  1
  Al  Al13  1  0.77274244  0.43328157  0.86781112  1
  Al  Al14  1  0.88974292  0.53737368  0.61394413  1
  Al  Al15  1  0.44513762  0.42658412  0.36722686  1
  Al  Al16  1  0.55768477  0.53527169  0.11717606  1
  Al  Al17  1  0.11083541  0.43328153  0.86781117  1
  Al  Al18  1  0.22313361  0.53725033  0.61329720  1
  Al  Al19  1  0.77838317  0.42852384  0.36213303  1
  Al  Al20  1  0.88813779  0.54058379  0.11593813  1
  Al  Al21  1  0.44482935  0.42720072  0.86277793  1
  Al  Al22  1  0.55647555  0.53725035  0.61329718  1
  Al  Al23  1  0.10903937  0.75908028  0.36555910  1
  Al  Al24  1  0.77805595  0.76074741  0.86143590  1
  Al  Al25  1  0.88807932  0.87302590  0.61321846  1
  Al  Al26  1  0.44873955  0.75908035  0.36555904  1
  Al  Al27  1  0.56112471  0.86944793  0.11684628  1
  Al  Al28  1  0.10938713  0.75593240  0.86161398  1
  Al  Al29  1  0.22543147  0.86599658  0.60811490  1
  Al  Al30  1  0.77846018  0.75993886  0.36902261  1
  Al  Al31  1  0.88628664  0.86944787  0.11684625  1
  Al  Al32  1  0.45153987  0.75593241  0.86161409  1
  Al  Al33  1  0.55575410  0.87302588  0.61321845  1
  Sc  Sc34  1  0.10770291  0.10145336  0.84675293  1
  Sc  Sc35  1  0.22059331  0.87567266  0.10769791  1
  N  N36  1  0.22062819  0.20355424  0.33934057  1
  N  N37  1  0.86795366  0.21575410  0.84660164  1
  N  N38  1  0.77717442  0.09463039  0.58922508  1
  N  N39  1  0.55546916  0.20592098  0.34234933  1
  N  N40  1  0.44635044  0.09207180  0.09687317  1
  N  N41  1  0.23315159  0.21575401  0.84660177  1
  N  N42  1  0.10902824  0.09880281  0.59871503  1
  N  N43  1  0.89267693  0.20355425  0.33934069  1
  N  N44  1  0.77843713  0.09207180  0.09687324  1
  N  N45  1  0.55622604  0.20440736  0.84378585  1
  N  N46  1  0.44505445  0.09463042  0.58922517  1
  N  N47  1  0.22389974  0.53730066  0.34504940  1
  N  N48  1  0.11012077  0.42853568  0.09617512  1
  N  N49  1  0.88992122  0.53701706  0.84288373  1
  N  N50  1  0.77786493  0.42790537  0.58978342  1
  N  N51  1  0.55565902  0.53730067  0.34504941  1
  N  N52  1  0.44472545  0.42740854  0.09198681  1
  N  N53  1  0.22311409  0.53786561  0.84146632  1
  N  N54  1  0.11108918  0.42790532  0.58978340  1
  N  N55  1  0.88852766  0.53980411  0.34339205  1
  N  N56  1  0.77820299  0.42853563  0.09617510  1
  N  N57  1  0.55587974  0.53786566  0.84146630  1
  N  N58  1  0.44527018  0.42631909  0.59460835  1
  N  N59  1  0.22014689  0.87656546  0.35586376  1
  N  N60  1  0.10378764  0.75220858  0.09479194  1
  N  N61  1  0.88816501  0.87321300  0.84143501  1
  N  N62  1  0.77845717  0.75994497  0.59585051  1
  N  N63  1  0.55780994  0.87102551  0.34530665  1
  N  N64  1  0.46086304  0.75220857  0.09479199  1
  N  N65  1  0.22951989  0.85781965  0.84602969  1
  N  N66  1  0.11060855  0.75976415  0.59403454  1
  N  N67  1  0.88802387  0.87102544  0.34530664  1
  N  N68  1  0.77837433  0.76011052  0.09027113  1
  N  N69  1  0.55548137  0.87321300  0.84143499  1
  N  N70  1  0.44648666  0.75976413  0.59403447  1
