# generated using pymatgen
data_Sc2Al34N35
_symmetry_space_group_name_H-M   'P 1'
_cell_length_a   9.41959823
_cell_length_b   9.43448385
_cell_length_c   10.01131141
_cell_angle_alpha   90.06205099
_cell_angle_beta   89.99999277
_cell_angle_gamma   60.05216390
_symmetry_Int_Tables_number   1
_chemical_formula_structural   Sc2Al34N35
_chemical_formula_sum   'Sc2 Al34 N35'
_cell_volume   770.90316745
_cell_formula_units_Z   1
loop_
 _symmetry_equiv_pos_site_id
 _symmetry_equiv_pos_as_xyz
  1  'x, y, z'
loop_
 _atom_site_type_symbol
 _atom_site_label
 _atom_site_symmetry_multiplicity
 _atom_site_fract_x
 _atom_site_fract_y
 _atom_site_fract_z
 _atom_site_occupancy
  Al  Al0  1  0.10956163  0.09780980  0.37074809  1
  Al  Al1  1  0.22051372  0.21135792  0.06709467  1
  Al  Al2  1  0.77367725  0.09458978  0.81861145  1
  Al  Al3  1  0.87695413  0.21119374  0.56518632  1
  Al  Al4  1  0.44682687  0.09247331  0.31642579  1
  Al  Al5  1  0.55593392  0.20506510  0.06750394  1
  Al  Al6  1  0.22878524  0.21119377  0.56518628  1
  Al  Al7  1  0.77763285  0.09247335  0.31642580  1
  Al  Al8  1  0.88506138  0.21135791  0.06709469  1
  Al  Al9  1  0.44866610  0.09458977  0.81861143  1
  Al  Al10  1  0.55592515  0.20508272  0.56696608  1
  Al  Al11  1  0.11030301  0.42945711  0.31653154  1
  Al  Al12  1  0.22284206  0.53572267  0.06696842  1
  Al  Al13  1  0.77328032  0.43260134  0.81813159  1
  Al  Al14  1  0.88878520  0.53936256  0.56749245  1
  Al  Al15  1  0.44523876  0.42645543  0.31778618  1
  Al  Al16  1  0.55836830  0.53572259  0.06696844  1
  Al  Al17  1  0.11105138  0.43260139  0.81813158  1
  Al  Al18  1  0.22357018  0.53725994  0.56823598  1
  Al  Al19  1  0.77717284  0.42945709  0.31653157  1
  Al  Al20  1  0.88850516  0.53992267  0.06779846  1
  Al  Al21  1  0.44490131  0.42713037  0.81849104  1
  Al  Al22  1  0.55610285  0.53725987  0.56823601  1
  Al  Al23  1  0.10751067  0.75537333  0.31913964  1
  Al  Al24  1  0.77815828  0.76061651  0.81728129  1
  Al  Al25  1  0.88815959  0.87184104  0.56843376  1
  Al  Al26  1  0.45404910  0.75537329  0.31913964  1
  Al  Al27  1  0.55984088  0.86988638  0.06652790  1
  Al  Al28  1  0.11203572  0.75782414  0.81756376  1
  Al  Al29  1  0.22795793  0.86101728  0.56241988  1
  Al  Al30  1  0.77795199  0.76102906  0.31792397  1
  Al  Al31  1  0.88720581  0.86988641  0.06652791  1
  Al  Al32  1  0.44707329  0.75782405  0.81756379  1
  Al  Al33  1  0.55693242  0.87184099  0.56843376  1
  Sc  Sc34  1  0.10984995  0.09723310  0.80958238  1
  Sc  Sc35  1  0.21667494  0.88358323  0.08663510  1
  N  N36  1  0.22590561  0.20897636  0.37451764  1
  N  N37  1  0.87059345  0.21532022  0.87850012  1
  N  N38  1  0.77730572  0.09370190  0.62730131  1
  N  N39  1  0.55630704  0.20431887  0.37567842  1
  N  N40  1  0.44366694  0.09209428  0.12608464  1
  N  N41  1  0.23101938  0.21532027  0.87850012  1
  N  N42  1  0.11168339  0.09356642  0.59053879  1
  N  N43  1  0.88205106  0.20897635  0.37451766  1
  N  N44  1  0.78117177  0.09209432  0.12608463  1
  N  N45  1  0.55557311  0.20578682  0.87765850  1
  N  N46  1  0.44592551  0.09370184  0.62730132  1
  N  N47  1  0.22374564  0.53635892  0.37813770  1
  N  N48  1  0.10965079  0.42795649  0.12709074  1
  N  N49  1  0.88887479  0.53918341  0.87649263  1
  N  N50  1  0.77791740  0.42837547  0.62714441  1
  N  N51  1  0.55682834  0.53635891  0.37813772  1
  N  N52  1  0.44522828  0.42647644  0.12644170  1
  N  N53  1  0.22291158  0.53929651  0.87643839  1
  N  N54  1  0.11064012  0.42837551  0.62714441  1
  N  N55  1  0.88908173  0.53876945  0.37660970  1
  N  N56  1  0.77932580  0.42795644  0.12709076  1
  N  N57  1  0.55472494  0.53929643  0.87643840  1
  N  N58  1  0.44529264  0.42634767  0.62698218  1
  N  N59  1  0.22451516  0.86790275  0.36450562  1
  N  N60  1  0.10265921  0.75087776  0.13124423  1
  N  N61  1  0.88917491  0.87206837  0.87535362  1
  N  N62  1  0.77831589  0.76030129  0.62686869  1
  N  N63  1  0.55644167  0.87269355  0.37830717  1
  N  N64  1  0.46339622  0.75087768  0.13124423  1
  N  N65  1  0.22900499  0.85892311  0.87635860  1
  N  N66  1  0.11152306  0.76004218  0.62478060  1
  N  N67  1  0.88779777  0.87269356  0.37830716  1
  N  N68  1  0.77796792  0.76099726  0.12686526  1
  N  N69  1  0.55568976  0.87206837  0.87535363  1
  N  N70  1  0.44536791  0.76004210  0.62478065  1
