
#======================================================================
# CRYSTAL DATA
#----------------------------------------------------------------------
data_VESTA_phase_1

_chemical_name_common                  'Se   Ga   Li                          '
_cell_length_a                         6.654643
_cell_length_b                         7.033788
_cell_length_c                         8.569092
_cell_angle_alpha                      90.092751
_cell_angle_beta                       90.017624
_cell_angle_gamma                      90.078720
_cell_volume                           401.095526
_space_group_name_H-M_alt              'P 1'
_space_group_IT_number                 1

loop_
_space_group_symop_operation_xyz
   'x, y, z'

loop_
   _atom_site_label
   _atom_site_occupancy
   _atom_site_fract_x
   _atom_site_fract_y
   _atom_site_fract_z
   _atom_site_adp_type
   _atom_site_U_iso_or_equiv
   _atom_site_type_symbol
   Se1        1.0     0.862869     0.941381     0.870221    Uiso  ? Se
   Se2        1.0     0.899929     0.401219     0.119092    Uiso  ? Se
   Se3        1.0     0.884219     0.909765     0.352819    Uiso  ? Se
   Se4        1.0     0.362883     0.057579     0.104350    Uiso  ? Se
   Se5        1.0     0.962468     0.429491     0.601618    Uiso  ? Se
   Se6        1.0     0.422773     0.588171     0.858498    Uiso  ? Se
   Se7        1.0     0.385358     0.084777     0.621995    Uiso  ? Se
   Se8        1.0     0.458253     0.563371     0.373973    Uiso  ? Se
   Ga1        1.0     0.994527     0.063409     0.114258    Uiso  ? Ga
   Ga2        1.0     0.493017     0.931034     0.860873    Uiso  ? Ga
   Ga3        1.0     0.829690     0.562298     0.364071    Uiso  ? Ga
   Ga4        1.0     0.333901     0.433563     0.615792    Uiso  ? Ga
   Li1        1.0     0.870708     0.582257     0.862294    Uiso  ? Li
   Li2        1.0     0.999621     0.065886     0.608643    Uiso  ? Li
   Li3        1.0     0.499950     0.392668     0.106332    Uiso  ? Li
   Li4        1.0     0.496725     0.926445     0.365157    Uiso  ? Li
