
#======================================================================
# CRYSTAL DATA
#----------------------------------------------------------------------
data_VESTA_phase_1

_chemical_name_common                  'Se   Ga   Li                          '
_cell_length_a                         6.654642
_cell_length_b                         7.042933
_cell_length_c                         8.488561
_cell_angle_alpha                      89.882164
_cell_angle_beta                       89.382629
_cell_angle_gamma                      90.069908
_cell_volume                           397.819274
_space_group_name_H-M_alt              'P 1'
_space_group_IT_number                 1

loop_
_space_group_symop_operation_xyz
   'x, y, z'

loop_
   _atom_site_label
   _atom_site_occupancy
   _atom_site_fract_x
   _atom_site_fract_y
   _atom_site_fract_z
   _atom_site_adp_type
   _atom_site_U_iso_or_equiv
   _atom_site_type_symbol
   Se1        1.0     0.860393     0.932484     0.868710    Uiso  ? Se
   Se2        1.0     0.883626     0.401096     0.110012    Uiso  ? Se
   Se3        1.0     0.880297     0.908070     0.353105    Uiso  ? Se
   Se4        1.0     0.355738     0.057688     0.106526    Uiso  ? Se
   Se5        1.0     0.948350     0.427585     0.600586    Uiso  ? Se
   Se6        1.0     0.377816     0.593788     0.866737    Uiso  ? Se
   Se7        1.0     0.376903     0.079774     0.625807    Uiso  ? Se
   Se8        1.0     0.447127     0.565911     0.371710    Uiso  ? Se
   Ga1        1.0     0.985403     0.066669     0.112673    Uiso  ? Ga
   Ga2        1.0     0.494034     0.926411     0.865255    Uiso  ? Ga
   Ga3        1.0     0.821657     0.559997     0.361957    Uiso  ? Ga
   Ga4        1.0     0.361117     0.425395     0.619730    Uiso  ? Ga
   Li1        1.0     0.985403     0.594640     0.862464    Uiso  ? Li
   Li2        1.0     0.987320     0.074745     0.606140    Uiso  ? Li
   Li3        1.0     0.495689     0.390844     0.101826    Uiso  ? Li
   Li4        1.0     0.496021     0.928216     0.366750    Uiso  ? Li
