
#======================================================================
# CRYSTAL DATA
#----------------------------------------------------------------------
data_VESTA_phase_1

_chemical_name_common                  'Se   Ga   Li                          '
_cell_length_a                         6.654654
_cell_length_b                         6.995910
_cell_length_c                         8.569776
_cell_angle_alpha                      90.008606
_cell_angle_beta                       90.207748
_cell_angle_gamma                      89.868736
_cell_volume                           398.965329
_space_group_name_H-M_alt              'P 1'
_space_group_IT_number                 1

loop_
_space_group_symop_operation_xyz
   'x, y, z'

loop_
   _atom_site_label
   _atom_site_occupancy
   _atom_site_fract_x
   _atom_site_fract_y
   _atom_site_fract_z
   _atom_site_adp_type
   _atom_site_U_iso_or_equiv
   _atom_site_type_symbol
   Se1        1.0     0.874589     0.931017     0.872145    Uiso  ? Se
   Se2        1.0     0.954721     0.408717     0.121993    Uiso  ? Se
   Se3        1.0     0.899176     0.907485     0.352341    Uiso  ? Se
   Se4        1.0     0.376654     0.058294     0.102328    Uiso  ? Se
   Se5        1.0     0.975423     0.440963     0.604975    Uiso  ? Se
   Se6        1.0     0.454414     0.580169     0.854524    Uiso  ? Se
   Se7        1.0     0.387305     0.078063     0.619855    Uiso  ? Se
   Se8        1.0     0.473644     0.557483     0.372398    Uiso  ? Se
   Ga1        1.0     0.007462     0.058793     0.113400    Uiso  ? Ga
   Ga2        1.0     0.504659     0.931173     0.859615    Uiso  ? Ga
   Ga3        1.0     0.842237     0.558300     0.360869    Uiso  ? Ga
   Ga4        1.0     0.345709     0.428452     0.614689    Uiso  ? Ga
   Li1        1.0     0.839914     0.565062     0.866050    Uiso  ? Li
   Li2        1.0     0.968857     0.078828     0.610621    Uiso  ? Li
   Li3        1.0     0.340081     0.425816     0.111654    Uiso  ? Li
   Li4        1.0     0.512051     0.924697     0.362531    Uiso  ? Li
