
#======================================================================
# CRYSTAL DATA
#----------------------------------------------------------------------
data_VESTA_phase_1

_chemical_name_common                  'Se   Ga   Li                          '
_cell_length_a                         6.654639
_cell_length_b                         6.997449
_cell_length_c                         8.578057
_cell_angle_alpha                      89.989342
_cell_angle_beta                       89.898903
_cell_angle_gamma                      89.948875
_cell_volume                           399.440724
_space_group_name_H-M_alt              'P 1'
_space_group_IT_number                 1

loop_
_space_group_symop_operation_xyz
   'x, y, z'

loop_
   _atom_site_label
   _atom_site_occupancy
   _atom_site_fract_x
   _atom_site_fract_y
   _atom_site_fract_z
   _atom_site_adp_type
   _atom_site_U_iso_or_equiv
   _atom_site_type_symbol
   Se1        1.0     0.869826     0.935794     0.872293    Uiso  ? Se
   Se2        1.0     0.955699     0.413743     0.120364    Uiso  ? Se
   Se3        1.0     0.889486     0.911731     0.354119    Uiso  ? Se
   Se4        1.0     0.368369     0.049770     0.104641    Uiso  ? Se
   Se5        1.0     0.968287     0.434868     0.602859    Uiso  ? Se
   Se6        1.0     0.446664     0.583290     0.852041    Uiso  ? Se
   Se7        1.0     0.387616     0.081611     0.621814    Uiso  ? Se
   Se8        1.0     0.469895     0.560006     0.372672    Uiso  ? Se
   Ga1        1.0     0.998157     0.063926     0.114796    Uiso  ? Ga
   Ga2        1.0     0.501260     0.932809     0.860644    Uiso  ? Ga
   Ga3        1.0     0.839831     0.560608     0.360011    Uiso  ? Ga
   Ga4        1.0     0.337500     0.431653     0.613517    Uiso  ? Ga
   Li1        1.0     0.834477     0.568833     0.862807    Uiso  ? Li
   Li2        1.0     0.000820     0.067874     0.611334    Uiso  ? Li
   Li3        1.0     0.385154     0.410814     0.110160    Uiso  ? Li
   Li4        1.0     0.503854     0.925984     0.365914    Uiso  ? Li
