
#======================================================================
# CRYSTAL DATA
#----------------------------------------------------------------------
data_VESTA_phase_1

_chemical_name_common                  'Se   Ga   Li                          '
_cell_length_a                         6.654644
_cell_length_b                         6.996965
_cell_length_c                         8.412880
_cell_angle_alpha                      90.117760
_cell_angle_beta                       88.866722
_cell_angle_gamma                      90.085693
_cell_volume                           391.645265
_space_group_name_H-M_alt              'P 1'
_space_group_IT_number                 1

loop_
_space_group_symop_operation_xyz
   'x, y, z'

loop_
   _atom_site_label
   _atom_site_occupancy
   _atom_site_fract_x
   _atom_site_fract_y
   _atom_site_fract_z
   _atom_site_adp_type
   _atom_site_U_iso_or_equiv
   _atom_site_type_symbol
   Se1        1.0     0.858983     0.931078     0.867880    Uiso  ? Se
   Se2        1.0     0.874548     0.401505     0.099979    Uiso  ? Se
   Se3        1.0     0.864223     0.918923     0.355646    Uiso  ? Se
   Se4        1.0     0.355305     0.056586     0.112372    Uiso  ? Se
   Se5        1.0     0.873307     0.424895     0.602445    Uiso  ? Se
   Se6        1.0     0.379694     0.586218     0.859232    Uiso  ? Se
   Se7        1.0     0.376880     0.089779     0.632540    Uiso  ? Se
   Se8        1.0     0.413287     0.559674     0.374281    Uiso  ? Se
   Ga1        1.0     0.988728     0.066794     0.111033    Uiso  ? Ga
   Ga2        1.0     0.489799     0.919108     0.866489    Uiso  ? Ga
   Ga3        1.0     0.826752     0.573140     0.346773    Uiso  ? Ga
   Ga4        1.0     0.504438     0.418981     0.621620    Uiso  ? Ga
   Li1        1.0     0.999258     0.594963     0.852750    Uiso  ? Li
   Li2        1.0     0.996746     0.081030     0.610524    Uiso  ? Li
   Li3        1.0     0.482258     0.399274     0.110231    Uiso  ? Li
   Li4        1.0     0.472687     0.911367     0.376192    Uiso  ? Li
