
#======================================================================
# CRYSTAL DATA
#----------------------------------------------------------------------
data_VESTA_phase_1

_chemical_name_common                  'Se   Ga   Li                          '
_cell_length_a                         6.654637
_cell_length_b                         6.978972
_cell_length_c                         8.388578
_cell_angle_alpha                      89.914986
_cell_angle_beta                       89.196564
_cell_angle_gamma                      89.987175
_cell_volume                           389.548042
_space_group_name_H-M_alt              'P 1'
_space_group_IT_number                 1

loop_
_space_group_symop_operation_xyz
   'x, y, z'

loop_
   _atom_site_label
   _atom_site_occupancy
   _atom_site_fract_x
   _atom_site_fract_y
   _atom_site_fract_z
   _atom_site_adp_type
   _atom_site_U_iso_or_equiv
   _atom_site_type_symbol
   Se1        1.0     0.987445     0.925716     0.872316    Uiso  ? Se
   Se2        1.0     0.982954     0.412570     0.120711    Uiso  ? Se
   Se3        1.0     0.975243     0.902458     0.368367    Uiso  ? Se
   Se4        1.0     0.494247     0.060119     0.102110    Uiso  ? Se
   Se5        1.0     0.986829     0.431345     0.607119    Uiso  ? Se
   Se6        1.0     0.469760     0.588970     0.845484    Uiso  ? Se
   Se7        1.0     0.466707     0.086361     0.616083    Uiso  ? Se
   Se8        1.0     0.489048     0.558536     0.362947    Uiso  ? Se
   Ga1        1.0     0.902265     0.072104     0.123659    Uiso  ? Ga
   Ga2        1.0     0.356346     0.924010     0.861412    Uiso  ? Ga
   Ga3        1.0     0.855506     0.568004     0.363530    Uiso  ? Ga
   Ga4        1.0     0.356085     0.419928     0.609260    Uiso  ? Ga
   Li1        1.0     0.850444     0.581658     0.865308    Uiso  ? Li
   Li2        1.0     0.848537     0.092806     0.620562    Uiso  ? Li
   Li3        1.0     0.371837     0.404717     0.101129    Uiso  ? Li
   Li4        1.0     0.363641     0.904011     0.359988    Uiso  ? Li
