
#======================================================================
# CRYSTAL DATA
#----------------------------------------------------------------------
data_VESTA_phase_1

_chemical_name_common                  'Se   Ga   Li                          '
_cell_length_a                         6.654649
_cell_length_b                         7.028060
_cell_length_c                         8.474516
_cell_angle_alpha                      89.887146
_cell_angle_beta                       89.227173
_cell_angle_gamma                      90.110420
_cell_volume                           396.309349
_space_group_name_H-M_alt              'P 1'
_space_group_IT_number                 1

loop_
_space_group_symop_operation_xyz
   'x, y, z'

loop_
   _atom_site_label
   _atom_site_occupancy
   _atom_site_fract_x
   _atom_site_fract_y
   _atom_site_fract_z
   _atom_site_adp_type
   _atom_site_U_iso_or_equiv
   _atom_site_type_symbol
   Se1        1.0     0.859976     0.932212     0.868146    Uiso  ? Se
   Se2        1.0     0.883786     0.401406     0.108934    Uiso  ? Se
   Se3        1.0     0.880477     0.908207     0.354300    Uiso  ? Se
   Se4        1.0     0.355534     0.057443     0.106490    Uiso  ? Se
   Se5        1.0     0.876367     0.423331     0.607992    Uiso  ? Se
   Se6        1.0     0.372986     0.592474     0.862071    Uiso  ? Se
   Se7        1.0     0.373031     0.085327     0.627132    Uiso  ? Se
   Se8        1.0     0.430689     0.566359     0.370499    Uiso  ? Se
   Ga1        1.0     0.985591     0.066150     0.112475    Uiso  ? Ga
   Ga2        1.0     0.492876     0.924193     0.864299    Uiso  ? Ga
   Ga3        1.0     0.808610     0.563257     0.356867    Uiso  ? Ga
   Ga4        1.0     0.474230     0.419935     0.625580    Uiso  ? Ga
   Li1        1.0     0.986196     0.593059     0.858550    Uiso  ? Li
   Li2        1.0     0.987114     0.079703     0.606789    Uiso  ? Li
   Li3        1.0     0.494470     0.392680     0.101748    Uiso  ? Li
   Li4        1.0     0.494958     0.927578     0.368115    Uiso  ? Li
