
#======================================================================
# CRYSTAL DATA
#----------------------------------------------------------------------
data_VESTA_phase_1

_chemical_name_common                  'Se   Ga   Li                          '
_cell_length_a                         6.654640
_cell_length_b                         7.031098
_cell_length_c                         8.569031
_cell_angle_alpha                      89.901840
_cell_angle_beta                       89.974297
_cell_angle_gamma                      90.060753
_cell_volume                           400.939209
_space_group_name_H-M_alt              'P 1'
_space_group_IT_number                 1

loop_
_space_group_symop_operation_xyz
   'x, y, z'

loop_
   _atom_site_label
   _atom_site_occupancy
   _atom_site_fract_x
   _atom_site_fract_y
   _atom_site_fract_z
   _atom_site_adp_type
   _atom_site_U_iso_or_equiv
   _atom_site_type_symbol
   Se1        1.0     0.885902     0.928367     0.874085    Uiso  ? Se
   Se2        1.0     0.959124     0.406960     0.122102    Uiso  ? Se
   Se3        1.0     0.919219     0.903763     0.358297    Uiso  ? Se
   Se4        1.0     0.381659     0.061742     0.101739    Uiso  ? Se
   Se5        1.0     0.981446     0.434143     0.604521    Uiso  ? Se
   Se6        1.0     0.460108     0.581642     0.852835    Uiso  ? Se
   Se7        1.0     0.443235     0.089722     0.618838    Uiso  ? Se
   Se8        1.0     0.481202     0.550664     0.370323    Uiso  ? Se
   Ga1        1.0     0.010403     0.058047     0.115912    Uiso  ? Ga
   Ga2        1.0     0.514433     0.929294     0.863958    Uiso  ? Ga
   Ga3        1.0     0.851001     0.560171     0.361053    Uiso  ? Ga
   Ga4        1.0     0.349921     0.427998     0.614251    Uiso  ? Ga
   Li1        1.0     0.847551     0.565253     0.865269    Uiso  ? Li
   Li2        1.0     0.844049     0.099183     0.606776    Uiso  ? Li
   Li3        1.0     0.344922     0.425729     0.108802    Uiso  ? Li
   Li4        1.0     0.482719     0.910633     0.361225    Uiso  ? Li
