
#======================================================================
# CRYSTAL DATA
#----------------------------------------------------------------------
data_VESTA_phase_1

_chemical_name_common                  'Se   Ga   Li                          '
_cell_length_a                         6.654636
_cell_length_b                         6.978002
_cell_length_c                         8.389032
_cell_angle_alpha                      90.093948
_cell_angle_beta                       89.131538
_cell_angle_gamma                      90.004143
_cell_volume                           389.508365
_space_group_name_H-M_alt              'P 1'
_space_group_IT_number                 1

loop_
_space_group_symop_operation_xyz
   'x, y, z'

loop_
   _atom_site_label
   _atom_site_occupancy
   _atom_site_fract_x
   _atom_site_fract_y
   _atom_site_fract_z
   _atom_site_adp_type
   _atom_site_U_iso_or_equiv
   _atom_site_type_symbol
   Se1        1.0     0.857934     0.931410     0.867784    Uiso  ? Se
   Se2        1.0     0.869422     0.402655     0.106664    Uiso  ? Se
   Se3        1.0     0.861457     0.912467     0.354184    Uiso  ? Se
   Se4        1.0     0.355446     0.058512     0.112172    Uiso  ? Se
   Se5        1.0     0.856910     0.425772     0.602461    Uiso  ? Se
   Se6        1.0     0.377929     0.586358     0.859127    Uiso  ? Se
   Se7        1.0     0.374831     0.088876     0.629711    Uiso  ? Se
   Se8        1.0     0.349855     0.560063     0.373050    Uiso  ? Se
   Ga1        1.0     0.988949     0.068143     0.111406    Uiso  ? Ga
   Ga2        1.0     0.488733     0.919935     0.865854    Uiso  ? Ga
   Ga3        1.0     0.943583     0.572133     0.351286    Uiso  ? Ga
   Ga4        1.0     0.488070     0.423948     0.613703    Uiso  ? Ga
   Li1        1.0     0.996132     0.592741     0.854103    Uiso  ? Li
   Li2        1.0     0.994142     0.081676     0.609398    Uiso  ? Li
   Li3        1.0     0.480983     0.403973     0.115189    Uiso  ? Li
   Li4        1.0     0.472517     0.904651     0.373894    Uiso  ? Li
