
#======================================================================
# CRYSTAL DATA
#----------------------------------------------------------------------
data_VESTA_phase_1

_chemical_name_common                  'Se   Ga   Li                          '
_cell_length_a                         6.654645
_cell_length_b                         6.997120
_cell_length_c                         8.410257
_cell_angle_alpha                      89.884834
_cell_angle_beta                       88.934822
_cell_angle_gamma                      89.906837
_cell_volume                           391.540843
_space_group_name_H-M_alt              'P 1'
_space_group_IT_number                 1

loop_
_space_group_symop_operation_xyz
   'x, y, z'

loop_
   _atom_site_label
   _atom_site_occupancy
   _atom_site_fract_x
   _atom_site_fract_y
   _atom_site_fract_z
   _atom_site_adp_type
   _atom_site_U_iso_or_equiv
   _atom_site_type_symbol
   Se1        1.0     0.970924     0.925007     0.872568    Uiso  ? Se
   Se2        1.0     0.980408     0.419064     0.119222    Uiso  ? Se
   Se3        1.0     0.970206     0.901449     0.375091    Uiso  ? Se
   Se4        1.0     0.430803     0.059601     0.100920    Uiso  ? Se
   Se5        1.0     0.985789     0.430916     0.607024    Uiso  ? Se
   Se6        1.0     0.467726     0.589919     0.842577    Uiso  ? Se
   Se7        1.0     0.464903     0.086157     0.616103    Uiso  ? Se
   Se8        1.0     0.489269     0.556578     0.362628    Uiso  ? Se
   Ga1        1.0     0.018789     0.073289     0.128361    Uiso  ? Ga
   Ga2        1.0     0.339459     0.918849     0.853388    Uiso  ? Ga
   Ga3        1.0     0.855873     0.566789     0.363832    Uiso  ? Ga
   Ga4        1.0     0.354964     0.419049     0.608526    Uiso  ? Ga
   Li1        1.0     0.847848     0.581104     0.864101    Uiso  ? Li
   Li2        1.0     0.845311     0.094946     0.621971    Uiso  ? Li
   Li3        1.0     0.372076     0.411266     0.098689    Uiso  ? Li
   Li4        1.0     0.362548     0.899330     0.364986    Uiso  ? Li
