
#======================================================================
# CRYSTAL DATA
#----------------------------------------------------------------------
data_VESTA_phase_1

_chemical_name_common                  'Se   Ga   Li                          '
_cell_length_a                         6.654648
_cell_length_b                         7.028202
_cell_length_c                         8.474824
_cell_angle_alpha                      90.112419
_cell_angle_beta                       89.231033
_cell_angle_gamma                      89.891937
_cell_volume                           396.332136
_space_group_name_H-M_alt              'P 1'
_space_group_IT_number                 1

loop_
_space_group_symop_operation_xyz
   'x, y, z'

loop_
   _atom_site_label
   _atom_site_occupancy
   _atom_site_fract_x
   _atom_site_fract_y
   _atom_site_fract_z
   _atom_site_adp_type
   _atom_site_U_iso_or_equiv
   _atom_site_type_symbol
   Se1        1.0     0.967991     0.923385     0.867062    Uiso  ? Se
   Se2        1.0     0.964167     0.408227     0.120736    Uiso  ? Se
   Se3        1.0     0.960800     0.901426     0.366082    Uiso  ? Se
   Se4        1.0     0.413852     0.066344     0.104558    Uiso  ? Se
   Se5        1.0     0.984609     0.432215     0.606851    Uiso  ? Se
   Se6        1.0     0.471641     0.585301     0.847818    Uiso  ? Se
   Se7        1.0     0.471589     0.092498     0.612914    Uiso  ? Se
   Se8        1.0     0.489057     0.557387     0.368461    Uiso  ? Se
   Ga1        1.0     0.035898     0.063245     0.118114    Uiso  ? Ga
   Ga2        1.0     0.370774     0.919961     0.849463    Uiso  ? Ga
   Ga3        1.0     0.859012     0.566177     0.362528    Uiso  ? Ga
   Ga4        1.0     0.351686     0.424220     0.610657    Uiso  ? Ga
   Li1        1.0     0.857637     0.579713     0.868225    Uiso  ? Li
   Li2        1.0     0.858422     0.093052     0.616433    Uiso  ? Li
   Li3        1.0     0.349677     0.427563     0.106769    Uiso  ? Li
   Li4        1.0     0.350083     0.892600     0.373314    Uiso  ? Li
