
#======================================================================
# CRYSTAL DATA
#----------------------------------------------------------------------
data_VESTA_phase_1

_chemical_name_common                  'Se   Ga   Li                          '
_cell_length_a                         6.654647
_cell_length_b                         7.037109
_cell_length_c                         8.483447
_cell_angle_alpha                      89.879189
_cell_angle_beta                       89.270981
_cell_angle_gamma                      90.102325
_cell_volume                           397.241705
_space_group_name_H-M_alt              'P 1'
_space_group_IT_number                 1

loop_
_space_group_symop_operation_xyz
   'x, y, z'

loop_
   _atom_site_label
   _atom_site_occupancy
   _atom_site_fract_x
   _atom_site_fract_y
   _atom_site_fract_z
   _atom_site_adp_type
   _atom_site_U_iso_or_equiv
   _atom_site_type_symbol
   Se1        1.0     0.861053     0.932339     0.868249    Uiso  ? Se
   Se2        1.0     0.883373     0.401787     0.109267    Uiso  ? Se
   Se3        1.0     0.880266     0.907780     0.353313    Uiso  ? Se
   Se4        1.0     0.355249     0.057139     0.106365    Uiso  ? Se
   Se5        1.0     0.912797     0.425401     0.603618    Uiso  ? Se
   Se6        1.0     0.374695     0.594134     0.865797    Uiso  ? Se
   Se7        1.0     0.374424     0.081040     0.626306    Uiso  ? Se
   Se8        1.0     0.437069     0.567178     0.370255    Uiso  ? Se
   Ga1        1.0     0.984102     0.067155     0.112920    Uiso  ? Ga
   Ga2        1.0     0.495566     0.926426     0.865456    Uiso  ? Ga
   Ga3        1.0     0.816945     0.559928     0.361438    Uiso  ? Ga
   Ga4        1.0     0.418207     0.422228     0.623633    Uiso  ? Ga
   Li1        1.0     0.984509     0.593254     0.859019    Uiso  ? Li
   Li2        1.0     0.985987     0.078479     0.605442    Uiso  ? Li
   Li3        1.0     0.496065     0.390663     0.102004    Uiso  ? Li
   Li4        1.0     0.496585     0.928381     0.366905    Uiso  ? Li
