
#======================================================================
# CRYSTAL DATA
#----------------------------------------------------------------------
data_VESTA_phase_1

_chemical_name_common                  'Se   Ga   Li                          '
_cell_length_a                         6.654637
_cell_length_b                         7.039896
_cell_length_c                         8.508236
_cell_angle_alpha                      89.958725
_cell_angle_beta                       90.016205
_cell_angle_gamma                      90.013283
_cell_volume                           398.593321
_space_group_name_H-M_alt              'P 1'
_space_group_IT_number                 1

loop_
_space_group_symop_operation_xyz
   'x, y, z'

loop_
   _atom_site_label
   _atom_site_occupancy
   _atom_site_fract_x
   _atom_site_fract_y
   _atom_site_fract_z
   _atom_site_adp_type
   _atom_site_U_iso_or_equiv
   _atom_site_type_symbol
   Se1        1.0     0.857543     0.931501     0.870444    Uiso  ? Se
   Se2        1.0     0.883088     0.398417     0.112985    Uiso  ? Se
   Se3        1.0     0.882066     0.907525     0.353192    Uiso  ? Se
   Se4        1.0     0.357623     0.060251     0.104558    Uiso  ? Se
   Se5        1.0     0.953514     0.426731     0.602583    Uiso  ? Se
   Se6        1.0     0.382922     0.593291     0.862058    Uiso  ? Se
   Se7        1.0     0.382140     0.084156     0.621763    Uiso  ? Se
   Se8        1.0     0.453535     0.564811     0.372420    Uiso  ? Se
   Ga1        1.0     0.988745     0.063942     0.112929    Uiso  ? Ga
   Ga2        1.0     0.488656     0.927763     0.862097    Uiso  ? Ga
   Ga3        1.0     0.825971     0.560493     0.362066    Uiso  ? Ga
   Ga4        1.0     0.325922     0.431158     0.612939    Uiso  ? Ga
   Li1        1.0     0.992257     0.596415     0.873851    Uiso  ? Li
   Li2        1.0     0.995286     0.064635     0.610015    Uiso  ? Li
   Li3        1.0     0.492464     0.395353     0.101102    Uiso  ? Li
   Li4        1.0     0.495162     0.926872     0.364983    Uiso  ? Li
