
#======================================================================
# CRYSTAL DATA
#----------------------------------------------------------------------
data_VESTA_phase_1

_chemical_name_common                  'Se   Ga   Li                          '
_cell_length_a                         6.654730
_cell_length_b                         7.026589
_cell_length_c                         8.534708
_cell_angle_alpha                      90.053429
_cell_angle_beta                       90.504578
_cell_angle_gamma                      90.303574
_cell_volume                           399.062114
_space_group_name_H-M_alt              'P 1'
_space_group_IT_number                 1

loop_
_space_group_symop_operation_xyz
   'x, y, z'

loop_
   _atom_site_label
   _atom_site_occupancy
   _atom_site_fract_x
   _atom_site_fract_y
   _atom_site_fract_z
   _atom_site_adp_type
   _atom_site_U_iso_or_equiv
   _atom_site_type_symbol
   Se1        1.0     0.891994     0.926489     0.871585    Uiso  ? Se
   Se2        1.0     0.959245     0.406147     0.121899    Uiso  ? Se
   Se3        1.0     0.966750     0.896990     0.361514    Uiso  ? Se
   Se4        1.0     0.391989     0.067226     0.102039    Uiso  ? Se
   Se5        1.0     0.986474     0.430466     0.604029    Uiso  ? Se
   Se6        1.0     0.459999     0.585097     0.855189    Uiso  ? Se
   Se7        1.0     0.457867     0.093446     0.615685    Uiso  ? Se
   Se8        1.0     0.486806     0.559801     0.371985    Uiso  ? Se
   Ga1        1.0     0.019102     0.059406     0.113002    Uiso  ? Ga
   Ga2        1.0     0.521234     0.932431     0.863968    Uiso  ? Ga
   Ga3        1.0     0.855764     0.562715     0.361708    Uiso  ? Ga
   Ga4        1.0     0.355505     0.428834     0.614160    Uiso  ? Ga
   Li1        1.0     0.846465     0.561931     0.863628    Uiso  ? Li
   Li2        1.0     0.847575     0.094924     0.597111    Uiso  ? Li
   Li3        1.0     0.345856     0.428842     0.111101    Uiso  ? Li
   Li4        1.0     0.364269     0.898570     0.371384    Uiso  ? Li
