
#======================================================================
# CRYSTAL DATA
#----------------------------------------------------------------------
data_VESTA_phase_1

_chemical_name_common                  'Se   Ga   Li                          '
_cell_length_a                         6.654659
_cell_length_b                         7.007252
_cell_length_c                         8.580803
_cell_angle_alpha                      89.924934
_cell_angle_beta                       90.145851
_cell_angle_gamma                      89.852310
_cell_volume                           400.127328
_space_group_name_H-M_alt              'P 1'
_space_group_IT_number                 1

loop_
_space_group_symop_operation_xyz
   'x, y, z'

loop_
   _atom_site_label
   _atom_site_occupancy
   _atom_site_fract_x
   _atom_site_fract_y
   _atom_site_fract_z
   _atom_site_adp_type
   _atom_site_U_iso_or_equiv
   _atom_site_type_symbol
   Se1        1.0     0.879250     0.927420     0.874660    Uiso  ? Se
   Se2        1.0     0.956203     0.407552     0.122507    Uiso  ? Se
   Se3        1.0     0.907359     0.904101     0.353170    Uiso  ? Se
   Se4        1.0     0.379277     0.059510     0.102023    Uiso  ? Se
   Se5        1.0     0.977750     0.439639     0.605342    Uiso  ? Se
   Se6        1.0     0.454318     0.581550     0.854197    Uiso  ? Se
   Se7        1.0     0.412272     0.082241     0.617973    Uiso  ? Se
   Se8        1.0     0.474847     0.557779     0.372351    Uiso  ? Se
   Ga1        1.0     0.009735     0.058506     0.114280    Uiso  ? Ga
   Ga2        1.0     0.508317     0.931308     0.860828    Uiso  ? Ga
   Ga3        1.0     0.843323     0.556854     0.361211    Uiso  ? Ga
   Ga4        1.0     0.348191     0.427513     0.614927    Uiso  ? Ga
   Li1        1.0     0.839909     0.563221     0.866311    Uiso  ? Li
   Li2        1.0     0.906651     0.087426     0.609305    Uiso  ? Li
   Li3        1.0     0.342848     0.425816     0.111521    Uiso  ? Li
   Li4        1.0     0.516643     0.922878     0.359379    Uiso  ? Li
