
#======================================================================
# CRYSTAL DATA
#----------------------------------------------------------------------
data_VESTA_phase_1

_chemical_name_common                  'Se   Ga   Li                          '
_cell_length_a                         6.654636
_cell_length_b                         7.013300
_cell_length_c                         8.563563
_cell_angle_alpha                      90.064934
_cell_angle_beta                       89.947075
_cell_angle_gamma                      90.008636
_cell_volume                           399.669299
_space_group_name_H-M_alt              'P 1'
_space_group_IT_number                 1

loop_
_space_group_symop_operation_xyz
   'x, y, z'

loop_
   _atom_site_label
   _atom_site_occupancy
   _atom_site_fract_x
   _atom_site_fract_y
   _atom_site_fract_z
   _atom_site_adp_type
   _atom_site_U_iso_or_equiv
   _atom_site_type_symbol
   Se1        1.0     0.865899     0.937279     0.871094    Uiso  ? Se
   Se2        1.0     0.908890     0.405900     0.117159    Uiso  ? Se
   Se3        1.0     0.886559     0.911387     0.353473    Uiso  ? Se
   Se4        1.0     0.364421     0.057151     0.105056    Uiso  ? Se
   Se5        1.0     0.964100     0.432494     0.602569    Uiso  ? Se
   Se6        1.0     0.429671     0.587116     0.858097    Uiso  ? Se
   Se7        1.0     0.386028     0.084267     0.622305    Uiso  ? Se
   Se8        1.0     0.460579     0.563165     0.374001    Uiso  ? Se
   Ga1        1.0     0.995217     0.064991     0.114087    Uiso  ? Ga
   Ga2        1.0     0.496520     0.933222     0.861640    Uiso  ? Ga
   Ga3        1.0     0.832182     0.562668     0.363327    Uiso  ? Ga
   Ga4        1.0     0.334955     0.433721     0.616024    Uiso  ? Ga
   Li1        1.0     0.827360     0.574454     0.856982    Uiso  ? Li
   Li2        1.0     0.999786     0.067411     0.610207    Uiso  ? Li
   Li3        1.0     0.504992     0.391252     0.108472    Uiso  ? Li
   Li4        1.0     0.499735     0.926834     0.365494    Uiso  ? Li
