
#======================================================================
# CRYSTAL DATA
#----------------------------------------------------------------------
data_VESTA_phase_1

_chemical_name_common                  'Se   Ga   Li                          '
_cell_length_a                         6.654649
_cell_length_b                         7.033325
_cell_length_c                         8.561715
_cell_angle_alpha                      90.073601
_cell_angle_beta                       90.007851
_cell_angle_gamma                      90.109924
_cell_volume                           400.724061
_space_group_name_H-M_alt              'P 1'
_space_group_IT_number                 1

loop_
_space_group_symop_operation_xyz
   'x, y, z'

loop_
   _atom_site_label
   _atom_site_occupancy
   _atom_site_fract_x
   _atom_site_fract_y
   _atom_site_fract_z
   _atom_site_adp_type
   _atom_site_U_iso_or_equiv
   _atom_site_type_symbol
   Se1        1.0     0.859709     0.938757     0.869922    Uiso  ? Se
   Se2        1.0     0.892567     0.399131     0.117407    Uiso  ? Se
   Se3        1.0     0.883610     0.909097     0.352553    Uiso  ? Se
   Se4        1.0     0.361486     0.058926     0.104398    Uiso  ? Se
   Se5        1.0     0.959338     0.426403     0.599685    Uiso  ? Se
   Se6        1.0     0.390560     0.592386     0.862630    Uiso  ? Se
   Se7        1.0     0.385229     0.084797     0.622308    Uiso  ? Se
   Se8        1.0     0.456878     0.563943     0.374156    Uiso  ? Se
   Ga1        1.0     0.993331     0.062838     0.113600    Uiso  ? Ga
   Ga2        1.0     0.490245     0.928446     0.861425    Uiso  ? Ga
   Ga3        1.0     0.828357     0.562005     0.363122    Uiso  ? Ga
   Ga4        1.0     0.332018     0.432976     0.615535    Uiso  ? Ga
   Li1        1.0     0.929610     0.587811     0.865894    Uiso  ? Li
   Li2        1.0     0.999437     0.064262     0.608645    Uiso  ? Li
   Li3        1.0     0.498453     0.394583     0.103472    Uiso  ? Li
   Li4        1.0     0.496065     0.926952     0.365234    Uiso  ? Li
