
#======================================================================
# CRYSTAL DATA
#----------------------------------------------------------------------
data_VESTA_phase_1

_chemical_name_common                  'Se   Ga   Li                          '
_cell_length_a                         6.654684
_cell_length_b                         7.010774
_cell_length_c                         8.561806
_cell_angle_alpha                      89.865982
_cell_angle_beta                       90.195679
_cell_angle_gamma                      89.783020
_cell_volume                           399.440355
_space_group_name_H-M_alt              'P 1'
_space_group_IT_number                 1

loop_
_space_group_symop_operation_xyz
   'x, y, z'

loop_
   _atom_site_label
   _atom_site_occupancy
   _atom_site_fract_x
   _atom_site_fract_y
   _atom_site_fract_z
   _atom_site_adp_type
   _atom_site_U_iso_or_equiv
   _atom_site_type_symbol
   Se1        1.0     0.883880     0.924939     0.874980    Uiso  ? Se
   Se2        1.0     0.955294     0.405084     0.122932    Uiso  ? Se
   Se3        1.0     0.919271     0.901346     0.358352    Uiso  ? Se
   Se4        1.0     0.381024     0.061557     0.101215    Uiso  ? Se
   Se5        1.0     0.978758     0.433071     0.605729    Uiso  ? Se
   Se6        1.0     0.454076     0.582186     0.853943    Uiso  ? Se
   Se7        1.0     0.439040     0.088189     0.615487    Uiso  ? Se
   Se8        1.0     0.475969     0.559205     0.371474    Uiso  ? Se
   Ga1        1.0     0.010349     0.056046     0.116093    Uiso  ? Ga
   Ga2        1.0     0.512182     0.930244     0.862179    Uiso  ? Ga
   Ga3        1.0     0.845119     0.556438     0.362091    Uiso  ? Ga
   Ga4        1.0     0.348291     0.428455     0.613871    Uiso  ? Ga
   Li1        1.0     0.840366     0.561690     0.865964    Uiso  ? Li
   Li2        1.0     0.847818     0.096195     0.609083    Uiso  ? Li
   Li3        1.0     0.341318     0.426971     0.111321    Uiso  ? Li
   Li4        1.0     0.524138     0.921695     0.355272    Uiso  ? Li
