
#======================================================================
# CRYSTAL DATA
#----------------------------------------------------------------------
data_VESTA_phase_1

_chemical_name_common                  'Se   Ga   Li                          '
_cell_length_a                         6.654640
_cell_length_b                         6.989599
_cell_length_c                         8.404793
_cell_angle_alpha                      90.096672
_cell_angle_beta                       88.979469
_cell_angle_gamma                      90.062050
_cell_volume                           390.871568
_space_group_name_H-M_alt              'P 1'
_space_group_IT_number                 1

loop_
_space_group_symop_operation_xyz
   'x, y, z'

loop_
   _atom_site_label
   _atom_site_occupancy
   _atom_site_fract_x
   _atom_site_fract_y
   _atom_site_fract_z
   _atom_site_adp_type
   _atom_site_U_iso_or_equiv
   _atom_site_type_symbol
   Se1        1.0     0.858313     0.931859     0.868016    Uiso  ? Se
   Se2        1.0     0.871344     0.401056     0.102019    Uiso  ? Se
   Se3        1.0     0.862162     0.917212     0.355136    Uiso  ? Se
   Se4        1.0     0.356004     0.057652     0.112417    Uiso  ? Se
   Se5        1.0     0.865862     0.424223     0.603348    Uiso  ? Se
   Se6        1.0     0.379931     0.585709     0.859926    Uiso  ? Se
   Se7        1.0     0.376863     0.089294     0.631333    Uiso  ? Se
   Se8        1.0     0.379153     0.559617     0.374809    Uiso  ? Se
   Ga1        1.0     0.990788     0.066302     0.110526    Uiso  ? Ga
   Ga2        1.0     0.488144     0.919033     0.865839    Uiso  ? Ga
   Ga3        1.0     0.883721     0.573107     0.348075    Uiso  ? Ga
   Ga4        1.0     0.494637     0.423198     0.615444    Uiso  ? Ga
   Li1        1.0     0.999148     0.595116     0.853082    Uiso  ? Li
   Li2        1.0     0.997066     0.080815     0.610270    Uiso  ? Li
   Li3        1.0     0.481386     0.402420     0.114306    Uiso  ? Li
   Li4        1.0     0.472370     0.906700     0.375440    Uiso  ? Li
