# generated using pymatgen
data_LiGaSe2
_symmetry_space_group_name_H-M   'P 1'
_cell_length_a   7.01077406
_cell_length_b   8.56180588
_cell_length_c   6.65468425
_cell_angle_alpha   89.80432331
_cell_angle_beta   89.78301721
_cell_angle_gamma   90.13401905
_symmetry_Int_Tables_number   1
_chemical_formula_structural   LiGaSe2
_chemical_formula_sum   'Li4 Ga4 Se8'
_cell_volume   399.44036850
_cell_formula_units_Z   4
loop_
 _symmetry_equiv_pos_site_id
 _symmetry_equiv_pos_as_xyz
  1  'x, y, z'
loop_
 _atom_site_type_symbol
 _atom_site_label
 _atom_site_symmetry_multiplicity
 _atom_site_fract_x
 _atom_site_fract_y
 _atom_site_fract_z
 _atom_site_occupancy
  Se  Se0  1  -0.92493917  0.87498032  -0.88388046  1
  Se  Se1  1  -0.40508447  0.12293165  -0.95529434  1
  Se  Se2  1  -0.90134630  0.35835219  -0.91927079  1
  Se  Se3  1  -0.06155714  0.10121530  -0.38102405  1
  Se  Se4  1  -0.43307148  0.60572916  -0.97875787  1
  Se  Se5  1  -0.58218641  0.85394313  -0.45407591  1
  Se  Se6  1  -0.08818935  0.61548724  -0.43904010  1
  Se  Se7  1  -0.55920504  0.37147374  -0.47596879  1
  Ga  Ga8  1  -0.05604583  0.11609320  -0.01034876  1
  Ga  Ga9  1  -0.93024367  0.86217931  -0.51218213  1
  Ga  Ga10  1  -0.55643767  0.36209071  -0.84511856  1
  Ga  Ga11  1  -0.42845487  0.61387060  -0.34829119  1
  Li  Li12  1  -0.56169007  0.86596377  -0.84036642  1
  Li  Li13  1  -0.09619546  0.60908258  -0.84781822  1
  Li  Li14  1  -0.42697089  0.11132137  -0.34131831  1
  Li  Li15  1  -0.92169544  0.35527242  -0.52413762  1
