# generated using pymatgen
data_LiGaSe2
_symmetry_space_group_name_H-M   'P 1'
_cell_length_a   6.65463669
_cell_length_b   6.97897237
_cell_length_c   8.38857889
_cell_angle_alpha   89.91498644
_cell_angle_beta   89.19656343
_cell_angle_gamma   89.98717550
_symmetry_Int_Tables_number   1
_chemical_formula_structural   LiGaSe2
_chemical_formula_sum   'Li4 Ga4 Se8'
_cell_volume   389.54805070
_cell_formula_units_Z   4
loop_
 _symmetry_equiv_pos_site_id
 _symmetry_equiv_pos_as_xyz
  1  'x, y, z'
loop_
 _atom_site_type_symbol
 _atom_site_label
 _atom_site_symmetry_multiplicity
 _atom_site_fract_x
 _atom_site_fract_y
 _atom_site_fract_z
 _atom_site_occupancy
  Se  Se0  1  0.98744482  0.92571548  0.87231645  1
  Se  Se1  1  0.98295375  0.41257042  0.12071094  1
  Se  Se2  1  0.97524337  0.90245808  0.36836728  1
  Se  Se3  1  0.49424684  0.06011904  0.10210983  1
  Se  Se4  1  0.98682925  0.43134503  0.60711904  1
  Se  Se5  1  0.46976002  0.58896991  0.84548411  1
  Se  Se6  1  0.46670743  0.08636069  0.61608319  1
  Se  Se7  1  0.48904830  0.55853611  0.36294702  1
  Ga  Ga8  1  0.90226452  0.07210377  0.12365886  1
  Ga  Ga9  1  0.35634584  0.92400972  0.86141245  1
  Ga  Ga10  1  0.85550570  0.56800406  0.36352960  1
  Ga  Ga11  1  0.35608472  0.41992836  0.60926016  1
  Li  Li12  1  0.85044384  0.58165840  0.86530832  1
  Li  Li13  1  0.84853667  0.09280633  0.62056162  1
  Li  Li14  1  0.37183734  0.40471671  0.10112932  1
  Li  Li15  1  0.36364113  0.90401114  0.35998850  1
