# generated using pymatgen
data_LiGaSe2
_symmetry_space_group_name_H-M   'P 1'
_cell_length_a   6.65463660
_cell_length_b   7.01330004
_cell_length_c   8.56356354
_cell_angle_alpha   90.06493373
_cell_angle_beta   89.94707869
_cell_angle_gamma   90.00863783
_symmetry_Int_Tables_number   1
_chemical_formula_structural   LiGaSe2
_chemical_formula_sum   'Li4 Ga4 Se8'
_cell_volume   399.66932718
_cell_formula_units_Z   4
loop_
 _symmetry_equiv_pos_site_id
 _symmetry_equiv_pos_as_xyz
  1  'x, y, z'
loop_
 _atom_site_type_symbol
 _atom_site_label
 _atom_site_symmetry_multiplicity
 _atom_site_fract_x
 _atom_site_fract_y
 _atom_site_fract_z
 _atom_site_occupancy
  Se  Se0  1  0.86589886  0.93727941  0.87109391  1
  Se  Se1  1  0.90889007  0.40589985  0.11715903  1
  Se  Se2  1  0.88655872  0.91138735  0.35347273  1
  Se  Se3  1  0.36442082  0.05715072  0.10505618  1
  Se  Se4  1  0.96410042  0.43249439  0.60256935  1
  Se  Se5  1  0.42967051  0.58711640  0.85809685  1
  Se  Se6  1  0.38602762  0.08426741  0.62230484  1
  Se  Se7  1  0.46057947  0.56316467  0.37400093  1
  Ga  Ga8  1  0.99521736  0.06499061  0.11408731  1
  Ga  Ga9  1  0.49652041  0.93322237  0.86163982  1
  Ga  Ga10  1  0.83218200  0.56266832  0.36332667  1
  Ga  Ga11  1  0.33495507  0.43372070  0.61602429  1
  Li  Li12  1  0.82735964  0.57445353  0.85698217  1
  Li  Li13  1  0.99978591  0.06741134  0.61020717  1
  Li  Li14  1  0.50499153  0.39125246  0.10847162  1
  Li  Li15  1  0.49973512  0.92683372  0.36549378  1
