# generated using pymatgen
data_LiGaSe2
_symmetry_space_group_name_H-M   'P 1'
_cell_length_a   7.03378840
_cell_length_b   8.56909148
_cell_length_c   6.65464282
_cell_angle_alpha   89.98237799
_cell_angle_beta   90.07871631
_cell_angle_gamma   89.90724913
_symmetry_Int_Tables_number   1
_chemical_formula_structural   LiGaSe2
_chemical_formula_sum   'Li4 Ga4 Se8'
_cell_volume   401.09553613
_cell_formula_units_Z   4
loop_
 _symmetry_equiv_pos_site_id
 _symmetry_equiv_pos_as_xyz
  1  'x, y, z'
loop_
 _atom_site_type_symbol
 _atom_site_label
 _atom_site_symmetry_multiplicity
 _atom_site_fract_x
 _atom_site_fract_y
 _atom_site_fract_z
 _atom_site_occupancy
  Se  Se0  1  -0.94138077  0.87022064  -0.86286924  1
  Se  Se1  1  -0.40121941  0.11909219  -0.89992892  1
  Se  Se2  1  -0.90976461  0.35281924  -0.88421942  1
  Se  Se3  1  -0.05757865  0.10435047  -0.36288347  1
  Se  Se4  1  -0.42949138  0.60161822  -0.96246836  1
  Se  Se5  1  -0.58817074  0.85849762  -0.42277338  1
  Se  Se6  1  -0.08477696  0.62199470  -0.38535807  1
  Se  Se7  1  -0.56337084  0.37397299  -0.45825323  1
  Ga  Ga8  1  -0.06340932  0.11425795  -0.99452737  1
  Ga  Ga9  1  -0.93103379  0.86087302  -0.49301692  1
  Ga  Ga10  1  -0.56229829  0.36407129  -0.82969017  1
  Ga  Ga11  1  -0.43356325  0.61579208  -0.33390076  1
  Li  Li12  1  -0.58225664  0.86229362  -0.87070823  1
  Li  Li13  1  -0.06588551  0.60864316  -0.99962099  1
  Li  Li14  1  -0.39266833  0.10633214  -0.49995038  1
  Li  Li15  1  -0.92644478  0.36515734  -0.49672463  1
