# generated using pymatgen
data_LiGaSe2
_symmetry_space_group_name_H-M   'P 1'
_cell_length_a   7.00725165
_cell_length_b   8.58080318
_cell_length_c   6.65465863
_cell_angle_alpha   89.85414901
_cell_angle_beta   89.85230966
_cell_angle_gamma   90.07506582
_symmetry_Int_Tables_number   1
_chemical_formula_structural   LiGaSe2
_chemical_formula_sum   'Li4 Ga4 Se8'
_cell_volume   400.12732517
_cell_formula_units_Z   4
loop_
 _symmetry_equiv_pos_site_id
 _symmetry_equiv_pos_as_xyz
  1  'x, y, z'
loop_
 _atom_site_type_symbol
 _atom_site_label
 _atom_site_symmetry_multiplicity
 _atom_site_fract_x
 _atom_site_fract_y
 _atom_site_fract_z
 _atom_site_occupancy
  Se  Se0  1  -0.92742008  0.87466019  -0.87924950  1
  Se  Se1  1  -0.40755245  0.12250657  -0.95620259  1
  Se  Se2  1  -0.90410137  0.35317022  -0.90735928  1
  Se  Se3  1  -0.05951023  0.10202332  -0.37927730  1
  Se  Se4  1  -0.43963868  0.60534155  -0.97774999  1
  Se  Se5  1  -0.58154973  0.85419733  -0.45431851  1
  Se  Se6  1  -0.08224052  0.61797334  -0.41227161  1
  Se  Se7  1  -0.55777921  0.37235142  -0.47484670  1
  Ga  Ga8  1  -0.05850632  0.11428008  -0.00973527  1
  Ga  Ga9  1  -0.93130764  0.86082831  -0.50831729  1
  Ga  Ga10  1  -0.55685382  0.36121121  -0.84332286  1
  Ga  Ga11  1  -0.42751322  0.61492675  -0.34819091  1
  Li  Li12  1  -0.56322083  0.86631142  -0.83990890  1
  Li  Li13  1  -0.08742553  0.60930470  -0.90665137  1
  Li  Li14  1  -0.42581573  0.11152148  -0.34284800  1
  Li  Li15  1  -0.92287790  0.35937878  -0.51664347  1
