# generated using pymatgen
data_LiGaSe2
_symmetry_space_group_name_H-M   'P 1'
_cell_length_a   6.97897237
_cell_length_b   8.38857889
_cell_length_c   6.65463669
_cell_angle_alpha   90.80343657
_cell_angle_beta   89.98717550
_cell_angle_gamma   90.08501356
_symmetry_Int_Tables_number   1
_chemical_formula_structural   LiGaSe2
_chemical_formula_sum   'Li4 Ga4 Se8'
_cell_volume   389.54805070
_cell_formula_units_Z   4
loop_
 _symmetry_equiv_pos_site_id
 _symmetry_equiv_pos_as_xyz
  1  'x, y, z'
loop_
 _atom_site_type_symbol
 _atom_site_label
 _atom_site_symmetry_multiplicity
 _atom_site_fract_x
 _atom_site_fract_y
 _atom_site_fract_z
 _atom_site_occupancy
  Se  Se0  1  -0.92571548  0.87231645  -0.98744482  1
  Se  Se1  1  -0.41257042  0.12071094  -0.98295375  1
  Se  Se2  1  -0.90245808  0.36836728  -0.97524337  1
  Se  Se3  1  -0.06011904  0.10210983  -0.49424684  1
  Se  Se4  1  -0.43134503  0.60711904  -0.98682925  1
  Se  Se5  1  -0.58896991  0.84548411  -0.46976002  1
  Se  Se6  1  -0.08636069  0.61608319  -0.46670743  1
  Se  Se7  1  -0.55853611  0.36294702  -0.48904830  1
  Ga  Ga8  1  -0.07210377  0.12365886  -0.90226452  1
  Ga  Ga9  1  -0.92400972  0.86141245  -0.35634584  1
  Ga  Ga10  1  -0.56800406  0.36352960  -0.85550570  1
  Ga  Ga11  1  -0.41992836  0.60926016  -0.35608472  1
  Li  Li12  1  -0.58165840  0.86530832  -0.85044384  1
  Li  Li13  1  -0.09280633  0.62056162  -0.84853667  1
  Li  Li14  1  -0.40471671  0.10112932  -0.37183734  1
  Li  Li15  1  -0.90401114  0.35998850  -0.36364113  1
