# generated using pymatgen
data_LiGaSe2
_symmetry_space_group_name_H-M   'P 1'
_cell_length_a   6.99712015
_cell_length_b   8.41025699
_cell_length_c   6.65464532
_cell_angle_alpha   91.06517790
_cell_angle_beta   89.90684038
_cell_angle_gamma   90.11516374
_symmetry_Int_Tables_number   1
_chemical_formula_structural   LiGaSe2
_chemical_formula_sum   'Li4 Ga4 Se8'
_cell_volume   391.54080657
_cell_formula_units_Z   4
loop_
 _symmetry_equiv_pos_site_id
 _symmetry_equiv_pos_as_xyz
  1  'x, y, z'
loop_
 _atom_site_type_symbol
 _atom_site_label
 _atom_site_symmetry_multiplicity
 _atom_site_fract_x
 _atom_site_fract_y
 _atom_site_fract_z
 _atom_site_occupancy
  Se  Se0  1  -0.92500707  0.87256801  -0.97092413  1
  Se  Se1  1  -0.41906376  0.11922244  -0.98040763  1
  Se  Se2  1  -0.90144879  0.37509104  -0.97020608  1
  Se  Se3  1  -0.05960137  0.10092038  -0.43080269  1
  Se  Se4  1  -0.43091588  0.60702383  -0.98578855  1
  Se  Se5  1  -0.58991923  0.84257729  -0.46772567  1
  Se  Se6  1  -0.08615667  0.61610268  -0.46490309  1
  Se  Se7  1  -0.55657798  0.36262757  -0.48926891  1
  Ga  Ga8  1  -0.07328938  0.12836068  -0.01878875  1
  Ga  Ga9  1  -0.91884888  0.85338824  -0.33945866  1
  Ga  Ga10  1  -0.56678919  0.36383245  -0.85587302  1
  Ga  Ga11  1  -0.41904890  0.60852608  -0.35496353  1
  Li  Li12  1  -0.58110351  0.86410053  -0.84784761  1
  Li  Li13  1  -0.09494604  0.62197105  -0.84531142  1
  Li  Li14  1  -0.41126632  0.09868852  -0.37207572  1
  Li  Li15  1  -0.89933027  0.36498590  -0.36254809  1
