# generated using pymatgen
data_LiGaSe2
_symmetry_space_group_name_H-M   'P 1'
_cell_length_a   7.02658912
_cell_length_b   8.53470815
_cell_length_c   6.65472996
_cell_angle_alpha   89.49542094
_cell_angle_beta   90.30357627
_cell_angle_gamma   89.94657175
_symmetry_Int_Tables_number   1
_chemical_formula_structural   LiGaSe2
_chemical_formula_sum   'Li4 Ga4 Se8'
_cell_volume   399.06213812
_cell_formula_units_Z   4
loop_
 _symmetry_equiv_pos_site_id
 _symmetry_equiv_pos_as_xyz
  1  'x, y, z'
loop_
 _atom_site_type_symbol
 _atom_site_label
 _atom_site_symmetry_multiplicity
 _atom_site_fract_x
 _atom_site_fract_y
 _atom_site_fract_z
 _atom_site_occupancy
  Se  Se0  1  -0.92648892  0.87158504  -0.89199424  1
  Se  Se1  1  -0.40614678  0.12189940  -0.95924502  1
  Se  Se2  1  -0.89698966  0.36151381  -0.96674982  1
  Se  Se3  1  -0.06722580  0.10203934  -0.39198884  1
  Se  Se4  1  -0.43046614  0.60402899  -0.98647390  1
  Se  Se5  1  -0.58509685  0.85518867  -0.45999881  1
  Se  Se6  1  -0.09344572  0.61568502  -0.45786723  1
  Se  Se7  1  -0.55980117  0.37198546  -0.48680561  1
  Ga  Ga8  1  -0.05940622  0.11300150  -0.01910205  1
  Ga  Ga9  1  -0.93243069  0.86396805  -0.52123440  1
  Ga  Ga10  1  -0.56271514  0.36170830  -0.85576356  1
  Ga  Ga11  1  -0.42883424  0.61416015  -0.35550490  1
  Li  Li12  1  -0.56193099  0.86362791  -0.84646501  1
  Li  Li13  1  -0.09492351  0.59711076  -0.84757473  1
  Li  Li14  1  -0.42884193  0.11110060  -0.34585613  1
  Li  Li15  1  -0.89856952  0.37138369  -0.36426929  1
