# generated using pymatgen
data_LiGaSe2
_symmetry_space_group_name_H-M   'P 1'
_cell_length_a   6.65464149
_cell_length_b   7.04293321
_cell_length_c   8.48856108
_cell_angle_alpha   89.88216323
_cell_angle_beta   89.38263196
_cell_angle_gamma   90.06990490
_symmetry_Int_Tables_number   1
_chemical_formula_structural   LiGaSe2
_chemical_formula_sum   'Li4 Ga4 Se8'
_cell_volume   397.81929662
_cell_formula_units_Z   4
loop_
 _symmetry_equiv_pos_site_id
 _symmetry_equiv_pos_as_xyz
  1  'x, y, z'
loop_
 _atom_site_type_symbol
 _atom_site_label
 _atom_site_symmetry_multiplicity
 _atom_site_fract_x
 _atom_site_fract_y
 _atom_site_fract_z
 _atom_site_occupancy
  Se  Se0  1  0.86039342  0.93248440  0.86870952  1
  Se  Se1  1  0.88362562  0.40109649  0.11001195  1
  Se  Se2  1  0.88029697  0.90807011  0.35310536  1
  Se  Se3  1  0.35573821  0.05768835  0.10652623  1
  Se  Se4  1  0.94834972  0.42758502  0.60058575  1
  Se  Se5  1  0.37781621  0.59378769  0.86673724  1
  Se  Se6  1  0.37690335  0.07977411  0.62580683  1
  Se  Se7  1  0.44712713  0.56591099  0.37171019  1
  Ga  Ga8  1  0.98540312  0.06666873  0.11267259  1
  Ga  Ga9  1  0.49403352  0.92641095  0.86525449  1
  Ga  Ga10  1  0.82165656  0.55999661  0.36195702  1
  Ga  Ga11  1  0.36111697  0.42539476  0.61973029  1
  Li  Li12  1  0.98540297  0.59463982  0.86246422  1
  Li  Li13  1  0.98731997  0.07474533  0.60613979  1
  Li  Li14  1  0.49568852  0.39084412  0.10182555  1
  Li  Li15  1  0.49602127  0.92821578  0.36674964  1
