# generated using pymatgen
data_LiGaSe2
_symmetry_space_group_name_H-M   'P 1'
_cell_length_a   6.65463918
_cell_length_b   6.99744898
_cell_length_c   8.57805763
_cell_angle_alpha   89.98934355
_cell_angle_beta   89.89890289
_cell_angle_gamma   89.94887258
_symmetry_Int_Tables_number   1
_chemical_formula_structural   LiGaSe2
_chemical_formula_sum   'Li4 Ga4 Se8'
_cell_volume   399.44073841
_cell_formula_units_Z   4
loop_
 _symmetry_equiv_pos_site_id
 _symmetry_equiv_pos_as_xyz
  1  'x, y, z'
loop_
 _atom_site_type_symbol
 _atom_site_label
 _atom_site_symmetry_multiplicity
 _atom_site_fract_x
 _atom_site_fract_y
 _atom_site_fract_z
 _atom_site_occupancy
  Se  Se0  1  0.86982594  0.93579379  0.87229285  1
  Se  Se1  1  0.95569898  0.41374345  0.12036442  1
  Se  Se2  1  0.88948555  0.91173125  0.35411907  1
  Se  Se3  1  0.36836885  0.04976985  0.10464100  1
  Se  Se4  1  0.96828719  0.43486752  0.60285949  1
  Se  Se5  1  0.44666411  0.58329047  0.85204140  1
  Se  Se6  1  0.38761561  0.08161143  0.62181391  1
  Se  Se7  1  0.46989492  0.56000558  0.37267158  1
  Ga  Ga8  1  0.99815704  0.06392553  0.11479592  1
  Ga  Ga9  1  0.50126043  0.93280890  0.86064366  1
  Ga  Ga10  1  0.83983067  0.56060785  0.36001119  1
  Ga  Ga11  1  0.33749988  0.43165331  0.61351710  1
  Li  Li12  1  0.83447690  0.56883262  0.86280701  1
  Li  Li13  1  0.00081958  0.06787435  0.61133373  1
  Li  Li14  1  0.38515386  0.41081354  0.11016026  1
  Li  Li15  1  0.50385405  0.92598381  0.36591407  1
