# generated using pymatgen
data_LiGaSe2
_symmetry_space_group_name_H-M   'P 1'
_cell_length_a   7.02820183
_cell_length_b   8.47482384
_cell_length_c   6.65464836
_cell_angle_alpha   90.76896534
_cell_angle_beta   89.89193990
_cell_angle_gamma   89.88758179
_symmetry_Int_Tables_number   1
_chemical_formula_structural   LiGaSe2
_chemical_formula_sum   'Li4 Ga4 Se8'
_cell_volume   396.33212063
_cell_formula_units_Z   4
loop_
 _symmetry_equiv_pos_site_id
 _symmetry_equiv_pos_as_xyz
  1  'x, y, z'
loop_
 _atom_site_type_symbol
 _atom_site_label
 _atom_site_symmetry_multiplicity
 _atom_site_fract_x
 _atom_site_fract_y
 _atom_site_fract_z
 _atom_site_occupancy
  Se  Se0  1  -0.92338487  0.86706195  -0.96799111  1
  Se  Se1  1  -0.40822693  0.12073574  -0.96416661  1
  Se  Se2  1  -0.90142616  0.36608218  -0.96079987  1
  Se  Se3  1  -0.06634377  0.10455769  -0.41385216  1
  Se  Se4  1  -0.43221500  0.60685132  -0.98460920  1
  Se  Se5  1  -0.58530052  0.84781779  -0.47164056  1
  Se  Se6  1  -0.09249819  0.61291433  -0.47158863  1
  Se  Se7  1  -0.55738745  0.36846083  -0.48905662  1
  Ga  Ga8  1  -0.06324484  0.11811442  -0.03589843  1
  Ga  Ga9  1  -0.91996104  0.84946324  -0.37077366  1
  Ga  Ga10  1  -0.56617688  0.36252827  -0.85901219  1
  Ga  Ga11  1  -0.42422004  0.61065730  -0.35168638  1
  Li  Li12  1  -0.57971288  0.86822529  -0.85763671  1
  Li  Li13  1  -0.09305170  0.61643315  -0.85842149  1
  Li  Li14  1  -0.42756325  0.10676932  -0.34967660  1
  Li  Li15  1  -0.89259976  0.37331388  -0.35008334  1
