# generated using pymatgen
data_LiGaSe2
_symmetry_space_group_name_H-M   'P 1'
_cell_length_a   6.65464836
_cell_length_b   7.02820183
_cell_length_c   8.47482384
_cell_angle_alpha   90.11241821
_cell_angle_beta   89.23103466
_cell_angle_gamma   89.89193990
_symmetry_Int_Tables_number   1
_chemical_formula_structural   LiGaSe2
_chemical_formula_sum   'Li4 Ga4 Se8'
_cell_volume   396.33212063
_cell_formula_units_Z   4
loop_
 _symmetry_equiv_pos_site_id
 _symmetry_equiv_pos_as_xyz
  1  'x, y, z'
loop_
 _atom_site_type_symbol
 _atom_site_label
 _atom_site_symmetry_multiplicity
 _atom_site_fract_x
 _atom_site_fract_y
 _atom_site_fract_z
 _atom_site_occupancy
  Se  Se0  1  0.96799111  0.92338487  0.86706195  1
  Se  Se1  1  0.96416661  0.40822693  0.12073574  1
  Se  Se2  1  0.96079987  0.90142616  0.36608218  1
  Se  Se3  1  0.41385216  0.06634377  0.10455769  1
  Se  Se4  1  0.98460920  0.43221500  0.60685132  1
  Se  Se5  1  0.47164056  0.58530052  0.84781779  1
  Se  Se6  1  0.47158863  0.09249819  0.61291433  1
  Se  Se7  1  0.48905662  0.55738745  0.36846083  1
  Ga  Ga8  1  0.03589843  0.06324484  0.11811442  1
  Ga  Ga9  1  0.37077366  0.91996104  0.84946324  1
  Ga  Ga10  1  0.85901219  0.56617688  0.36252827  1
  Ga  Ga11  1  0.35168638  0.42422004  0.61065730  1
  Li  Li12  1  0.85763671  0.57971288  0.86822529  1
  Li  Li13  1  0.85842149  0.09305170  0.61643315  1
  Li  Li14  1  0.34967660  0.42756325  0.10676932  1
  Li  Li15  1  0.35008334  0.89259976  0.37331388  1
