# generated using pymatgen
data_LiGaSe2
_symmetry_space_group_name_H-M   'P 1'
_cell_length_a   7.04303243
_cell_length_b   8.48877231
_cell_length_c   6.65464105
_cell_angle_alpha   90.61126241
_cell_angle_beta   89.93320195
_cell_angle_gamma   89.88324176
_symmetry_Int_Tables_number   1
_chemical_formula_structural   LiGaSe2
_chemical_formula_sum   'Li4 Ga4 Se8'
_cell_volume   397.83527116
_cell_formula_units_Z   4
loop_
 _symmetry_equiv_pos_site_id
 _symmetry_equiv_pos_as_xyz
  1  'x, y, z'
loop_
 _atom_site_type_symbol
 _atom_site_label
 _atom_site_symmetry_multiplicity
 _atom_site_fract_x
 _atom_site_fract_y
 _atom_site_fract_z
 _atom_site_occupancy
  Se  Se0  1  -0.92765510  0.87449036  -0.89579037  1
  Se  Se1  1  -0.40811206  0.12191636  -0.96435694  1
  Se  Se2  1  -0.90109657  0.36500549  -0.96095633  1
  Se  Se3  1  -0.06584142  0.10329041  -0.39728183  1
  Se  Se4  1  -0.43249135  0.60627403  -0.98423493  1
  Se  Se5  1  -0.57979009  0.84913178  -0.46775158  1
  Se  Se6  1  -0.09376231  0.60829726  -0.46670641  1
  Se  Se7  1  -0.55764666  0.36840394  -0.48883755  1
  Ga  Ga8  1  -0.06004737  0.11309916  -0.02283770  1
  Ga  Ga9  1  -0.92546858  0.85537926  -0.48424826  1
  Ga  Ga10  1  -0.56667012  0.36233730  -0.85914507  1
  Ga  Ga11  1  -0.42640049  0.60971343  -0.35062167  1
  Li  Li12  1  -0.57469073  0.86883648  -0.85737198  1
  Li  Li13  1  -0.09467467  0.61248586  -0.85914747  1
  Li  Li14  1  -0.42816465  0.10809050  -0.34867879  1
  Li  Li15  1  -0.89080109  0.37323505  -0.34892665  1
