# generated using pymatgen
data_LiGaSe2
_symmetry_space_group_name_H-M   'P 1'
_cell_length_a   6.65463653
_cell_length_b   6.95286990
_cell_length_c   8.38658818
_cell_angle_alpha   89.99999386
_cell_angle_beta   89.99999323
_cell_angle_gamma   89.99994275
_symmetry_Int_Tables_number   1
_chemical_formula_structural   LiGaSe2
_chemical_formula_sum   'Li4 Ga4 Se8'
_cell_volume   388.03755583
_cell_formula_units_Z   4
loop_
 _symmetry_equiv_pos_site_id
 _symmetry_equiv_pos_as_xyz
  1  'x, y, z'
loop_
 _atom_site_type_symbol
 _atom_site_label
 _atom_site_symmetry_multiplicity
 _atom_site_fract_x
 _atom_site_fract_y
 _atom_site_fract_z
 _atom_site_occupancy
  Se  Se0  1  0.99379388  0.93013405  0.86855543  1
  Se  Se1  1  0.97850927  0.40336407  0.12170896  1
  Se  Se2  1  0.97850848  0.90336465  0.35329206  1
  Se  Se3  1  0.49379539  0.06153283  0.10644505  1
  Se  Se4  1  0.99379350  0.43013383  0.60644496  1
  Se  Se5  1  0.47850812  0.58830209  0.85329193  1
  Se  Se6  1  0.47850819  0.08830196  0.62170761  1
  Se  Se7  1  0.49379590  0.56153294  0.36855448  1
  Ga  Ga8  1  0.86200181  0.06927579  0.11351897  1
  Ga  Ga9  1  0.36200085  0.92239002  0.86148060  1
  Ga  Ga10  1  0.86200092  0.56927735  0.36148173  1
  Ga  Ga11  1  0.36200395  0.42238826  0.61351804  1
  Li  Li12  1  0.86569289  0.58406270  0.86593556  1
  Li  Li13  1  0.86569419  0.08406309  0.60906486  1
  Li  Li14  1  0.36569408  0.40760459  0.10906427  1
  Li  Li15  1  0.36569276  0.90760511  0.36593548  1
