# generated using pymatgen
data_LiGaSe2
_symmetry_space_group_name_H-M   'P 1'
_cell_length_a   6.65464715
_cell_length_b   7.03710870
_cell_length_c   8.48344666
_cell_angle_alpha   89.87918627
_cell_angle_beta   89.27098391
_cell_angle_gamma   90.10232216
_symmetry_Int_Tables_number   1
_chemical_formula_structural   LiGaSe2
_chemical_formula_sum   'Li4 Ga4 Se8'
_cell_volume   397.24166268
_cell_formula_units_Z   4
loop_
 _symmetry_equiv_pos_site_id
 _symmetry_equiv_pos_as_xyz
  1  'x, y, z'
loop_
 _atom_site_type_symbol
 _atom_site_label
 _atom_site_symmetry_multiplicity
 _atom_site_fract_x
 _atom_site_fract_y
 _atom_site_fract_z
 _atom_site_occupancy
  Se  Se0  1  0.86105321  0.93233902  0.86824941  1
  Se  Se1  1  0.88337291  0.40178657  0.10926678  1
  Se  Se2  1  0.88026608  0.90778046  0.35331277  1
  Se  Se3  1  0.35524901  0.05713872  0.10636527  1
  Se  Se4  1  0.91279689  0.42540097  0.60361798  1
  Se  Se5  1  0.37469523  0.59413406  0.86579685  1
  Se  Se6  1  0.37442422  0.08104000  0.62630553  1
  Se  Se7  1  0.43706911  0.56717825  0.37025471  1
  Ga  Ga8  1  0.98410212  0.06715507  0.11292005  1
  Ga  Ga9  1  0.49556616  0.92642577  0.86545568  1
  Ga  Ga10  1  0.81694502  0.55992846  0.36143845  1
  Ga  Ga11  1  0.41820713  0.42222800  0.62363324  1
  Li  Li12  1  0.98450934  0.59325421  0.85901926  1
  Li  Li13  1  0.98598744  0.07847926  0.60544171  1
  Li  Li14  1  0.49606457  0.39066339  0.10200375  1
  Li  Li15  1  0.49658508  0.92838107  0.36690523  1
