# generated using pymatgen
data_LiGaSe2
_symmetry_space_group_name_H-M   'P 1'
_cell_length_a   6.65464139
_cell_length_b   6.99023575
_cell_length_c   8.40363899
_cell_angle_alpha   89.91099489
_cell_angle_beta   89.04882277
_cell_angle_gamma   89.93074425
_symmetry_Int_Tables_number   1
_chemical_formula_structural   LiGaSe2
_chemical_formula_sum   'Li4 Ga4 Se8'
_cell_volume   390.86176639
_cell_formula_units_Z   4
loop_
 _symmetry_equiv_pos_site_id
 _symmetry_equiv_pos_as_xyz
  1  'x, y, z'
loop_
 _atom_site_type_symbol
 _atom_site_label
 _atom_site_symmetry_multiplicity
 _atom_site_fract_x
 _atom_site_fract_y
 _atom_site_fract_z
 _atom_site_occupancy
  Se  Se0  1  0.97857249  0.92421791  0.87144666  1
  Se  Se1  1  0.98217213  0.41719818  0.11977408  1
  Se  Se2  1  0.97325983  0.90091974  0.37288809  1
  Se  Se3  1  0.46479526  0.05969542  0.10044933  1
  Se  Se4  1  0.98645792  0.43176850  0.60689250  1
  Se  Se5  1  0.46781070  0.58937546  0.84390445  1
  Se  Se6  1  0.46478128  0.08573566  0.61533106  1
  Se  Se7  1  0.48849697  0.55769499  0.36270120  1
  Ga  Ga8  1  0.96188427  0.07307063  0.12682865  1
  Ga  Ga9  1  0.34980606  0.92320067  0.85963270  1
  Ga  Ga10  1  0.85372070  0.56621587  0.36436929  1
  Ga  Ga11  1  0.35664271  0.41905319  0.60926925  1
  Li  Li12  1  0.84767480  0.58084581  0.86444668  1
  Li  Li13  1  0.84564719  0.09509403  0.62153397  1
  Li  Li14  1  0.37196740  0.40674510  0.09960346  1
  Li  Li15  1  0.36320383  0.90248211  0.36091530  1
