# generated using pymatgen
data_LiGaSe2
_symmetry_space_group_name_H-M   'P 1'
_cell_length_a   7.03710870
_cell_length_b   8.48344666
_cell_length_c   6.65464715
_cell_angle_alpha   90.72901609
_cell_angle_beta   90.10232216
_cell_angle_gamma   90.12081373
_symmetry_Int_Tables_number   1
_chemical_formula_structural   LiGaSe2
_chemical_formula_sum   'Li4 Ga4 Se8'
_cell_volume   397.24166268
_cell_formula_units_Z   4
loop_
 _symmetry_equiv_pos_site_id
 _symmetry_equiv_pos_as_xyz
  1  'x, y, z'
loop_
 _atom_site_type_symbol
 _atom_site_label
 _atom_site_symmetry_multiplicity
 _atom_site_fract_x
 _atom_site_fract_y
 _atom_site_fract_z
 _atom_site_occupancy
  Se  Se0  1  -0.93233902  0.86824941  -0.86105321  1
  Se  Se1  1  -0.40178657  0.10926678  -0.88337291  1
  Se  Se2  1  -0.90778046  0.35331277  -0.88026608  1
  Se  Se3  1  -0.05713872  0.10636527  -0.35524901  1
  Se  Se4  1  -0.42540097  0.60361798  -0.91279689  1
  Se  Se5  1  -0.59413406  0.86579685  -0.37469523  1
  Se  Se6  1  -0.08104000  0.62630553  -0.37442422  1
  Se  Se7  1  -0.56717825  0.37025471  -0.43706911  1
  Ga  Ga8  1  -0.06715507  0.11292005  -0.98410212  1
  Ga  Ga9  1  -0.92642577  0.86545568  -0.49556616  1
  Ga  Ga10  1  -0.55992846  0.36143845  -0.81694502  1
  Ga  Ga11  1  -0.42222800  0.62363324  -0.41820713  1
  Li  Li12  1  -0.59325421  0.85901926  -0.98450934  1
  Li  Li13  1  -0.07847926  0.60544171  -0.98598744  1
  Li  Li14  1  -0.39066339  0.10200375  -0.49606457  1
  Li  Li15  1  -0.92838107  0.36690523  -0.49658508  1
