# generated using pymatgen
data_LiGaSe2
_symmetry_space_group_name_H-M   'P 1'
_cell_length_a   6.65472996
_cell_length_b   7.02658912
_cell_length_c   8.53470815
_cell_angle_alpha   90.05342825
_cell_angle_beta   90.50457906
_cell_angle_gamma   90.30357627
_symmetry_Int_Tables_number   1
_chemical_formula_structural   LiGaSe2
_chemical_formula_sum   'Li4 Ga4 Se8'
_cell_volume   399.06213812
_cell_formula_units_Z   4
loop_
 _symmetry_equiv_pos_site_id
 _symmetry_equiv_pos_as_xyz
  1  'x, y, z'
loop_
 _atom_site_type_symbol
 _atom_site_label
 _atom_site_symmetry_multiplicity
 _atom_site_fract_x
 _atom_site_fract_y
 _atom_site_fract_z
 _atom_site_occupancy
  Se  Se0  1  0.89199424  0.92648892  0.87158504  1
  Se  Se1  1  0.95924502  0.40614678  0.12189940  1
  Se  Se2  1  0.96674982  0.89698966  0.36151381  1
  Se  Se3  1  0.39198884  0.06722580  0.10203934  1
  Se  Se4  1  0.98647390  0.43046614  0.60402899  1
  Se  Se5  1  0.45999881  0.58509685  0.85518867  1
  Se  Se6  1  0.45786723  0.09344572  0.61568502  1
  Se  Se7  1  0.48680561  0.55980117  0.37198546  1
  Ga  Ga8  1  0.01910205  0.05940622  0.11300150  1
  Ga  Ga9  1  0.52123440  0.93243069  0.86396805  1
  Ga  Ga10  1  0.85576356  0.56271514  0.36170830  1
  Ga  Ga11  1  0.35550490  0.42883424  0.61416015  1
  Li  Li12  1  0.84646501  0.56193099  0.86362791  1
  Li  Li13  1  0.84757473  0.09492351  0.59711076  1
  Li  Li14  1  0.34585613  0.42884193  0.11110060  1
  Li  Li15  1  0.36426929  0.89856952  0.37138369  1
