# generated using pymatgen
data_LiGaSe2
_symmetry_space_group_name_H-M   'P 1'
_cell_length_a   7.00519096
_cell_length_b   8.58963819
_cell_length_c   6.65463880
_cell_angle_alpha   90.06464394
_cell_angle_beta   89.95268025
_cell_angle_gamma   89.95454013
_symmetry_Int_Tables_number   1
_chemical_formula_structural   LiGaSe2
_chemical_formula_sum   'Li4 Ga4 Se8'
_cell_volume   400.42277940
_cell_formula_units_Z   4
loop_
 _symmetry_equiv_pos_site_id
 _symmetry_equiv_pos_as_xyz
  1  'x, y, z'
loop_
 _atom_site_type_symbol
 _atom_site_label
 _atom_site_symmetry_multiplicity
 _atom_site_fract_x
 _atom_site_fract_y
 _atom_site_fract_z
 _atom_site_occupancy
  Se  Se0  1  -0.93615006  0.87238390  -0.86843311  1
  Se  Se1  1  -0.40961732  0.11857042  -0.92880794  1
  Se  Se2  1  -0.91093397  0.35408893  -0.88892725  1
  Se  Se3  1  -0.05150051  0.10498976  -0.36582251  1
  Se  Se4  1  -0.43325532  0.60254102  -0.96564901  1
  Se  Se5  1  -0.58612743  0.85274510  -0.43940902  1
  Se  Se6  1  -0.08291927  0.62226837  -0.38694730  1
  Se  Se7  1  -0.56302103  0.37456952  -0.46501921  1
  Ga  Ga8  1  -0.06492672  0.11513190  -0.99567441  1
  Ga  Ga9  1  -0.93403806  0.86107409  -0.49983895  1
  Ga  Ga10  1  -0.56095136  0.36156815  -0.83604005  1
  Ga  Ga11  1  -0.43224849  0.61419829  -0.33523662  1
  Li  Li12  1  -0.57098408  0.85966036  -0.83105694  1
  Li  Li13  1  -0.06705793  0.61127620  -0.00008427  1
  Li  Li14  1  -0.40221929  0.10881850  -0.44688638  1
  Li  Li15  1  -0.92736241  0.36610216  -0.50306055  1
