# generated using pymatgen
data_LiGaSe2
_symmetry_space_group_name_H-M   'P 1'
_cell_length_a   6.98959851
_cell_length_b   8.40479268
_cell_length_c   6.65464043
_cell_angle_alpha   91.02052860
_cell_angle_beta   90.06205098
_cell_angle_gamma   89.90332881
_symmetry_Int_Tables_number   1
_chemical_formula_structural   LiGaSe2
_chemical_formula_sum   'Li4 Ga4 Se8'
_cell_volume   390.87156466
_cell_formula_units_Z   4
loop_
 _symmetry_equiv_pos_site_id
 _symmetry_equiv_pos_as_xyz
  1  'x, y, z'
loop_
 _atom_site_type_symbol
 _atom_site_label
 _atom_site_symmetry_multiplicity
 _atom_site_fract_x
 _atom_site_fract_y
 _atom_site_fract_z
 _atom_site_occupancy
  Se  Se0  1  -0.93185945  0.86801598  -0.85831309  1
  Se  Se1  1  -0.40105637  0.10201914  -0.87134400  1
  Se  Se2  1  -0.91721223  0.35513627  -0.86216218  1
  Se  Se3  1  -0.05765192  0.11241655  -0.35600379  1
  Se  Se4  1  -0.42422281  0.60334768  -0.86586247  1
  Se  Se5  1  -0.58570893  0.85992627  -0.37993118  1
  Se  Se6  1  -0.08929359  0.63133347  -0.37686291  1
  Se  Se7  1  -0.55961691  0.37480914  -0.37915304  1
  Ga  Ga8  1  -0.06630167  0.11052639  -0.99078833  1
  Ga  Ga9  1  -0.91903322  0.86583906  -0.48814429  1
  Ga  Ga10  1  -0.57310695  0.34807460  -0.88372123  1
  Ga  Ga11  1  -0.42319799  0.61544411  -0.49463692  1
  Li  Li12  1  -0.59511648  0.85308201  -0.99914785  1
  Li  Li13  1  -0.08081527  0.61027003  -0.99706613  1
  Li  Li14  1  -0.40241973  0.11430611  -0.48138588  1
  Li  Li15  1  -0.90669975  0.37543987  -0.47237025  1
