# generated using pymatgen
data_LiGaSe2
_symmetry_space_group_name_H-M   'P 1'
_cell_length_a   6.65463671
_cell_length_b   7.03989646
_cell_length_c   8.50823580
_cell_angle_alpha   89.95872401
_cell_angle_beta   90.01620273
_cell_angle_gamma   90.01327935
_symmetry_Int_Tables_number   1
_chemical_formula_structural   LiGaSe2
_chemical_formula_sum   'Li4 Ga4 Se8'
_cell_volume   398.59330408
_cell_formula_units_Z   4
loop_
 _symmetry_equiv_pos_site_id
 _symmetry_equiv_pos_as_xyz
  1  'x, y, z'
loop_
 _atom_site_type_symbol
 _atom_site_label
 _atom_site_symmetry_multiplicity
 _atom_site_fract_x
 _atom_site_fract_y
 _atom_site_fract_z
 _atom_site_occupancy
  Se  Se0  1  0.85754337  0.93150134  0.87044359  1
  Se  Se1  1  0.88308837  0.39841720  0.11298549  1
  Se  Se2  1  0.88206562  0.90752509  0.35319245  1
  Se  Se3  1  0.35762332  0.06025056  0.10455808  1
  Se  Se4  1  0.95351368  0.42673050  0.60258292  1
  Se  Se5  1  0.38292218  0.59329070  0.86205825  1
  Se  Se6  1  0.38214004  0.08415633  0.62176341  1
  Se  Se7  1  0.45353544  0.56481071  0.37241995  1
  Ga  Ga8  1  0.98874483  0.06394179  0.11292907  1
  Ga  Ga9  1  0.48865552  0.92776315  0.86209743  1
  Ga  Ga10  1  0.82597067  0.56049291  0.36206641  1
  Ga  Ga11  1  0.32592186  0.43115813  0.61293941  1
  Li  Li12  1  0.99225681  0.59641494  0.87385066  1
  Li  Li13  1  0.99528640  0.06463512  0.61001475  1
  Li  Li14  1  0.49246376  0.39535279  0.10110229  1
  Li  Li15  1  0.49516165  0.92687201  0.36498251  1
