# generated using pymatgen
data_LiGaSe2
_symmetry_space_group_name_H-M   'P 1'
_cell_length_a   7.03332451
_cell_length_b   8.56171531
_cell_length_c   6.65464879
_cell_angle_alpha   89.99214840
_cell_angle_beta   90.10992103
_cell_angle_gamma   89.92640167
_symmetry_Int_Tables_number   1
_chemical_formula_structural   LiGaSe2
_chemical_formula_sum   'Li4 Ga4 Se8'
_cell_volume   400.72405782
_cell_formula_units_Z   4
loop_
 _symmetry_equiv_pos_site_id
 _symmetry_equiv_pos_as_xyz
  1  'x, y, z'
loop_
 _atom_site_type_symbol
 _atom_site_label
 _atom_site_symmetry_multiplicity
 _atom_site_fract_x
 _atom_site_fract_y
 _atom_site_fract_z
 _atom_site_occupancy
  Se  Se0  1  -0.93875715  0.86992233  -0.85970935  1
  Se  Se1  1  -0.39913106  0.11740660  -0.89256697  1
  Se  Se2  1  -0.90909714  0.35255350  -0.88361024  1
  Se  Se3  1  -0.05892554  0.10439792  -0.36148595  1
  Se  Se4  1  -0.42640300  0.59968453  -0.95933780  1
  Se  Se5  1  -0.59238583  0.86263050  -0.39056018  1
  Se  Se6  1  -0.08479699  0.62230772  -0.38522911  1
  Se  Se7  1  -0.56394267  0.37415645  -0.45687766  1
  Ga  Ga8  1  -0.06283848  0.11359965  -0.99333121  1
  Ga  Ga9  1  -0.92844614  0.86142467  -0.49024499  1
  Ga  Ga10  1  -0.56200492  0.36312159  -0.82835732  1
  Ga  Ga11  1  -0.43297610  0.61553487  -0.33201810  1
  Li  Li12  1  -0.58781101  0.86589439  -0.92960978  1
  Li  Li13  1  -0.06426218  0.60864541  -0.99943691  1
  Li  Li14  1  -0.39458297  0.10347228  -0.49845259  1
  Li  Li15  1  -0.92695208  0.36523427  -0.49606538  1
