# generated using pymatgen
data_LiGaSe2
_symmetry_space_group_name_H-M   'P 1'
_cell_length_a   6.97800145
_cell_length_b   8.38903207
_cell_length_c   6.65463655
_cell_angle_alpha   90.86846310
_cell_angle_beta   90.00414293
_cell_angle_gamma   89.90605101
_symmetry_Int_Tables_number   1
_chemical_formula_structural   LiGaSe2
_chemical_formula_sum   'Li4 Ga4 Se8'
_cell_volume   389.50835209
_cell_formula_units_Z   4
loop_
 _symmetry_equiv_pos_site_id
 _symmetry_equiv_pos_as_xyz
  1  'x, y, z'
loop_
 _atom_site_type_symbol
 _atom_site_label
 _atom_site_symmetry_multiplicity
 _atom_site_fract_x
 _atom_site_fract_y
 _atom_site_fract_z
 _atom_site_occupancy
  Se  Se0  1  -0.93141029  0.86778378  -0.85793387  1
  Se  Se1  1  -0.40265543  0.10666406  -0.86942209  1
  Se  Se2  1  -0.91246740  0.35418437  -0.86145738  1
  Se  Se3  1  -0.05851166  0.11217219  -0.35544601  1
  Se  Se4  1  -0.42577229  0.60246129  -0.85691026  1
  Se  Se5  1  -0.58635795  0.85912661  -0.37792911  1
  Se  Se6  1  -0.08887648  0.62971128  -0.37483111  1
  Se  Se7  1  -0.56006292  0.37304982  -0.34985458  1
  Ga  Ga8  1  -0.06814274  0.11140640  -0.98894859  1
  Ga  Ga9  1  -0.91993453  0.86585407  -0.48873284  1
  Ga  Ga10  1  -0.57213274  0.35128588  -0.94358311  1
  Ga  Ga11  1  -0.42394761  0.61370304  -0.48807050  1
  Li  Li12  1  -0.59274060  0.85410320  -0.99613240  1
  Li  Li13  1  -0.08167647  0.60939791  -0.99414180  1
  Li  Li14  1  -0.40397337  0.11518857  -0.48098264  1
  Li  Li15  1  -0.90465078  0.37389421  -0.47251726  1
