# generated using pymatgen
data_LiGaSe2
_symmetry_space_group_name_H-M   'P 1'
_cell_length_a   6.65464027
_cell_length_b   7.03109850
_cell_length_c   8.56903122
_cell_angle_alpha   89.90183713
_cell_angle_beta   89.97429288
_cell_angle_gamma   90.06075360
_symmetry_Int_Tables_number   1
_chemical_formula_structural   LiGaSe2
_chemical_formula_sum   'Li4 Ga4 Se8'
_cell_volume   400.93924250
_cell_formula_units_Z   4
loop_
 _symmetry_equiv_pos_site_id
 _symmetry_equiv_pos_as_xyz
  1  'x, y, z'
loop_
 _atom_site_type_symbol
 _atom_site_label
 _atom_site_symmetry_multiplicity
 _atom_site_fract_x
 _atom_site_fract_y
 _atom_site_fract_z
 _atom_site_occupancy
  Se  Se0  1  0.88590226  0.92836676  0.87408488  1
  Se  Se1  1  0.95912446  0.40696048  0.12210181  1
  Se  Se2  1  0.91921884  0.90376337  0.35829683  1
  Se  Se3  1  0.38165930  0.06174223  0.10173926  1
  Se  Se4  1  0.98144596  0.43414300  0.60452066  1
  Se  Se5  1  0.46010814  0.58164177  0.85283470  1
  Se  Se6  1  0.44323535  0.08972219  0.61883835  1
  Se  Se7  1  0.48120187  0.55066429  0.37032349  1
  Ga  Ga8  1  0.01040255  0.05804738  0.11591206  1
  Ga  Ga9  1  0.51443312  0.92929352  0.86395827  1
  Ga  Ga10  1  0.85100061  0.56017121  0.36105279  1
  Ga  Ga11  1  0.34992115  0.42799824  0.61425132  1
  Li  Li12  1  0.84755067  0.56525340  0.86526933  1
  Li  Li13  1  0.84404859  0.09918301  0.60677566  1
  Li  Li14  1  0.34492158  0.42572923  0.10880207  1
  Li  Li15  1  0.48271908  0.91063318  0.36122519  1
