# generated using pymatgen
data_LiGaSe2
_symmetry_space_group_name_H-M   'P 1'
_cell_length_a   6.65464889
_cell_length_b   7.02805986
_cell_length_c   8.47451585
_cell_angle_alpha   89.88714354
_cell_angle_beta   89.22717035
_cell_angle_gamma   90.11041994
_symmetry_Int_Tables_number   1
_chemical_formula_structural   LiGaSe2
_chemical_formula_sum   'Li4 Ga4 Se8'
_cell_volume   396.30934653
_cell_formula_units_Z   4
loop_
 _symmetry_equiv_pos_site_id
 _symmetry_equiv_pos_as_xyz
  1  'x, y, z'
loop_
 _atom_site_type_symbol
 _atom_site_label
 _atom_site_symmetry_multiplicity
 _atom_site_fract_x
 _atom_site_fract_y
 _atom_site_fract_z
 _atom_site_occupancy
  Se  Se0  1  0.85997615  0.93221204  0.86814616  1
  Se  Se1  1  0.88378642  0.40140603  0.10893386  1
  Se  Se2  1  0.88047674  0.90820706  0.35429970  1
  Se  Se3  1  0.35553428  0.05744324  0.10648967  1
  Se  Se4  1  0.87636667  0.42333071  0.60799180  1
  Se  Se5  1  0.37298628  0.59247399  0.86207067  1
  Se  Se6  1  0.37303145  0.08532671  0.62713186  1
  Se  Se7  1  0.43068944  0.56635880  0.37049903  1
  Ga  Ga8  1  0.98559049  0.06614983  0.11247492  1
  Ga  Ga9  1  0.49287651  0.92419268  0.86429863  1
  Ga  Ga10  1  0.80861049  0.56325716  0.35686724  1
  Ga  Ga11  1  0.47422996  0.41993470  0.62557988  1
  Li  Li12  1  0.98619610  0.59305921  0.85855051  1
  Li  Li13  1  0.98711423  0.07970321  0.60678948  1
  Li  Li14  1  0.49447049  0.39268016  0.10174815  1
  Li  Li15  1  0.49495783  0.92757775  0.36811511  1
