# generated using pymatgen
data_Gd2Al7N9
_symmetry_space_group_name_H-M   'P 1'
_cell_length_a   10.05195189
_cell_length_b   9.85351378
_cell_length_c   10.35538913
_cell_angle_alpha   90.12176582
_cell_angle_beta   90.15886785
_cell_angle_gamma   60.46254090
_symmetry_Int_Tables_number   1
_chemical_formula_structural   Gd2Al7N9
_chemical_formula_sum   'Gd8 Al28 N36'
_cell_volume   892.36417913
_cell_formula_units_Z   4
loop_
 _symmetry_equiv_pos_site_id
 _symmetry_equiv_pos_as_xyz
  1  'x, y, z'
loop_
 _atom_site_type_symbol
 _atom_site_label
 _atom_site_symmetry_multiplicity
 _atom_site_fract_x
 _atom_site_fract_y
 _atom_site_fract_z
 _atom_site_occupancy
  Al  Al0  1  0.11233489  0.09510479  0.30248598  1
  Al  Al1  1  0.22099738  0.21017728  0.05974140  1
  Al  Al2  1  0.53950619  0.21560600  0.13558233  1
  Al  Al3  1  0.12227103  0.08675992  0.81621359  1
  Al  Al4  1  0.21963785  0.20485382  0.56837758  1
  Al  Al5  1  0.79145552  0.08982184  0.28404651  1
  Al  Al6  1  0.90976032  0.20136252  0.06419162  1
  Al  Al7  1  0.41680161  0.10892259  0.80504925  1
  Al  Al8  1  0.53780247  0.22158868  0.62653508  1
  Al  Al9  1  0.11024449  0.42706608  0.30121730  1
  Al  Al10  1  0.21418900  0.53984289  0.06463472  1
  Al  Al11  1  0.43971048  0.43217669  0.32707858  1
  Al  Al12  1  0.12411870  0.42516551  0.81580459  1
  Al  Al13  1  0.23193615  0.53557344  0.55680202  1
  Al  Al14  1  0.78902020  0.42603433  0.29101704  1
  Al  Al15  1  0.91105281  0.53112395  0.05740487  1
  Al  Al16  1  0.41291539  0.44920178  0.81615193  1
  Al  Al17  1  0.55019230  0.54371239  0.54320575  1
  Al  Al18  1  0.11538352  0.76080451  0.30291053  1
  Al  Al19  1  0.21173073  0.87809598  0.05937975  1
  Al  Al20  1  0.79709147  0.75112525  0.81748270  1
  Al  Al21  1  0.44127061  0.76338383  0.30943645  1
  Al  Al22  1  0.12010188  0.75504482  0.81372903  1
  Al  Al23  1  0.23430824  0.86585753  0.56224353  1
  Al  Al24  1  0.79169993  0.75075468  0.28569507  1
  Al  Al25  1  0.90822873  0.85581431  0.05883043  1
  Al  Al26  1  0.42194691  0.76131058  0.80436903  1
  Al  Al27  1  0.54999684  0.86924132  0.63404044  1
  Gd  Gd28  1  0.75945536  0.10039523  0.85197941  1
  Gd  Gd29  1  0.89404084  0.19751442  0.54905229  1
  Gd  Gd30  1  0.45006093  0.08741577  0.35622783  1
  Gd  Gd31  1  0.76885607  0.43704844  0.82041255  1
  Gd  Gd32  1  0.90172539  0.53429288  0.55245105  1
  Gd  Gd33  1  0.54316906  0.53759723  0.08075196  1
  Gd  Gd34  1  0.88997812  0.87248647  0.55971425  1
  Gd  Gd35  1  0.55216808  0.87696645  0.06728890  1
  N  N36  1  0.18215794  0.22545960  0.38382962  1
  N  N37  1  0.11908434  0.09289255  0.11706334  1
  N  N38  1  0.92129348  0.19111019  0.87845163  1
  N  N39  1  0.74933249  0.10955271  0.62618861  1
  N  N40  1  0.58184371  0.21213374  0.31877086  1
  N  N41  1  0.42183928  0.12135371  0.12108450  1
  N  N42  1  0.21786534  0.20642590  0.87255909  1
  N  N43  1  0.14180031  0.07589660  0.63261852  1
  N  N44  1  0.89339143  0.20225153  0.32790415  1
  N  N45  1  0.77792225  0.09274904  0.09384508  1
  N  N46  1  0.50225096  0.23675318  0.81264045  1
  N  N47  1  0.43838132  0.09178195  0.60377512  1
  N  N48  1  0.21221861  0.54318331  0.36867404  1
  N  N49  1  0.11586682  0.42369140  0.11573345  1
  N  N50  1  0.91377061  0.54197599  0.86898372  1
  N  N51  1  0.75245798  0.44085035  0.60302412  1
  N  N52  1  0.55811641  0.54045094  0.35010755  1
  N  N53  1  0.41001615  0.42931623  0.13632501  1
  N  N54  1  0.21434176  0.54499225  0.87828000  1
  N  N55  1  0.14879477  0.41212918  0.63288297  1
  N  N56  1  0.89495881  0.53743269  0.33627863  1
  N  N57  1  0.80562200  0.41922373  0.10315476  1
  N  N58  1  0.51400953  0.55549045  0.86261468  1
  N  N59  1  0.44364839  0.43310825  0.58099847  1
  N  N60  1  0.22037177  0.87579674  0.37320602  1
  N  N61  1  0.11452437  0.76130051  0.11677391  1
  N  N62  1  0.91193173  0.84486411  0.86950437  1
  N  N63  1  0.76042398  0.76680898  0.63818556  1
  N  N64  1  0.58298059  0.83631947  0.32148351  1
  N  N65  1  0.40385970  0.78245172  0.13067416  1
  N  N66  1  0.21946968  0.87226311  0.87253612  1
  N  N67  1  0.14319875  0.74503141  0.62823580  1
  N  N68  1  0.89392074  0.87248232  0.33686991  1
  N  N69  1  0.81155865  0.74359336  0.10358087  1
  N  N70  1  0.54150419  0.87857749  0.83177565  1
  N  N71  1  0.44386511  0.75570944  0.61496994  1
