# generated using pymatgen
data_Gd2Al7N9
_symmetry_space_group_name_H-M   'P 1'
_cell_length_a   9.90026292
_cell_length_b   9.83422683
_cell_length_c   10.74008943
_cell_angle_alpha   90.22323366
_cell_angle_beta   89.17668568
_cell_angle_gamma   60.18364754
_symmetry_Int_Tables_number   1
_chemical_formula_structural   Gd2Al7N9
_chemical_formula_sum   'Gd8 Al28 N36'
_cell_volume   907.08123142
_cell_formula_units_Z   4
loop_
 _symmetry_equiv_pos_site_id
 _symmetry_equiv_pos_as_xyz
  1  'x, y, z'
loop_
 _atom_site_type_symbol
 _atom_site_label
 _atom_site_symmetry_multiplicity
 _atom_site_fract_x
 _atom_site_fract_y
 _atom_site_fract_z
 _atom_site_occupancy
  Al  Al0  1  0.11671160  0.08690606  0.29422641  1
  Al  Al1  1  0.21539318  0.21233315  0.08977720  1
  Al  Al2  1  0.53903328  0.21945273  0.11714154  1
  Al  Al3  1  0.11214828  0.08659459  0.81480199  1
  Al  Al4  1  0.23591717  0.19739385  0.64856441  1
  Al  Al5  1  0.78656778  0.09279599  0.27710188  1
  Al  Al6  1  0.90586031  0.19898965  0.06238100  1
  Al  Al7  1  0.42497654  0.11127796  0.87559161  1
  Al  Al8  1  0.53312433  0.21855197  0.63904321  1
  Al  Al9  1  0.11514421  0.43035893  0.29524343  1
  Al  Al10  1  0.21006294  0.54434751  0.05196562  1
  Al  Al11  1  0.46199246  0.42420115  0.38104034  1
  Al  Al12  1  0.11434422  0.43731725  0.81495710  1
  Al  Al13  1  0.22959242  0.53407478  0.55773606  1
  Al  Al14  1  0.79891538  0.42070096  0.29111093  1
  Al  Al15  1  0.90985733  0.53405485  0.05609894  1
  Al  Al16  1  0.41887616  0.43962235  0.87153797  1
  Al  Al17  1  0.53218033  0.54746524  0.62912719  1
  Al  Al18  1  0.11988486  0.75961454  0.30259847  1
  Al  Al19  1  0.20397672  0.87813678  0.04694374  1
  Al  Al20  1  0.78706402  0.75631717  0.81876841  1
  Al  Al21  1  0.46761081  0.74854871  0.38874549  1
  Al  Al22  1  0.11774340  0.75397893  0.80591992  1
  Al  Al23  1  0.22965281  0.86986151  0.56184011  1
  Al  Al24  1  0.79676118  0.74920572  0.28836706  1
  Al  Al25  1  0.90882076  0.85588622  0.05624055  1
  Al  Al26  1  0.42092028  0.76897881  0.86988264  1
  Al  Al27  1  0.54248645  0.87568599  0.64935114  1
  Gd  Gd28  1  0.76484099  0.09634183  0.84392564  1
  Gd  Gd29  1  0.88973515  0.20215634  0.54620144  1
  Gd  Gd30  1  0.44607725  0.09580768  0.38148362  1
  Gd  Gd31  1  0.76349984  0.44021915  0.83612682  1
  Gd  Gd32  1  0.89379504  0.53419448  0.55587409  1
  Gd  Gd33  1  0.53863732  0.54104850  0.12726641  1
  Gd  Gd34  1  0.88825119  0.87059010  0.55382605  1
  Gd  Gd35  1  0.55572439  0.87342091  0.09742479  1
  N  N36  1  0.20188514  0.21556910  0.32167731  1
  N  N37  1  0.11915472  0.08497643  0.11250204  1
  N  N38  1  0.91552597  0.19491761  0.88695547  1
  N  N39  1  0.75202203  0.10650900  0.62702000  1
  N  N40  1  0.56319998  0.22699470  0.29334761  1
  N  N41  1  0.42805678  0.12528902  0.05471773  1
  N  N42  1  0.21173190  0.20988402  0.83976795  1
  N  N43  1  0.13494642  0.07631064  0.63481148  1
  N  N44  1  0.89311504  0.20040433  0.32816880  1
  N  N45  1  0.78179837  0.08834482  0.09339175  1
  N  N46  1  0.50207536  0.23657827  0.81171502  1
  N  N47  1  0.44510601  0.08857092  0.59531532  1
  N  N48  1  0.21964238  0.54158747  0.36856049  1
  N  N49  1  0.11636076  0.43053953  0.11324393  1
  N  N50  1  0.90505886  0.54938714  0.87632038  1
  N  N51  1  0.75336135  0.43666620  0.62537980  1
  N  N52  1  0.56848777  0.53425026  0.33752899  1
  N  N53  1  0.43040708  0.41680965  0.04871338  1
  N  N54  1  0.20283000  0.55300440  0.87453789  1
  N  N55  1  0.14161672  0.41906138  0.63526706  1
  N  N56  1  0.89769433  0.53686910  0.34217667  1
  N  N57  1  0.80574201  0.41919431  0.10578943  1
  N  N58  1  0.49788793  0.56482567  0.80695105  1
  N  N59  1  0.45171497  0.41894637  0.55924105  1
  N  N60  1  0.22181797  0.87402024  0.37275743  1
  N  N61  1  0.12027732  0.75755519  0.11982007  1
  N  N62  1  0.90726887  0.84331054  0.87467829  1
  N  N63  1  0.76040066  0.76710058  0.64394651  1
  N  N64  1  0.57435866  0.84306153  0.31398502  1
  N  N65  1  0.41806358  0.76830089  0.04475877  1
  N  N66  1  0.20013342  0.87935695  0.86732081  1
  N  N67  1  0.14309153  0.74400810  0.62573942  1
  N  N68  1  0.88916490  0.87709572  0.33715767  1
  N  N69  1  0.81744616  0.74136762  0.11203152  1
  N  N70  1  0.54131754  0.87876715  0.83535534  1
  N  N71  1  0.45277376  0.76062038  0.57031259  1
