# generated using pymatgen
data_Gd2Al7N9
_symmetry_space_group_name_H-M   'P 1'
_cell_length_a   10.05254329
_cell_length_b   9.86732177
_cell_length_c   10.33373531
_cell_angle_alpha   90.13758052
_cell_angle_beta   90.76388643
_cell_angle_gamma   60.74595558
_symmetry_Int_Tables_number   1
_chemical_formula_structural   Gd2Al7N9
_chemical_formula_sum   'Gd8 Al28 N36'
_cell_volume   894.20156586
_cell_formula_units_Z   4
loop_
 _symmetry_equiv_pos_site_id
 _symmetry_equiv_pos_as_xyz
  1  'x, y, z'
loop_
 _atom_site_type_symbol
 _atom_site_label
 _atom_site_symmetry_multiplicity
 _atom_site_fract_x
 _atom_site_fract_y
 _atom_site_fract_z
 _atom_site_occupancy
  Al  Al0  1  0.12689057  0.08724902  0.39943172  1
  Al  Al1  1  0.21234953  0.21502190  0.15108141  1
  Al  Al2  1  0.53282084  0.22408965  0.14989031  1
  Al  Al3  1  0.11376957  0.09209323  0.90240108  1
  Al  Al4  1  0.22892169  0.19898403  0.65905161  1
  Al  Al5  1  0.78559438  0.08840952  0.31821653  1
  Al  Al6  1  0.91051750  0.19728460  0.15137818  1
  Al  Al7  1  0.41728947  0.11684525  0.90720676  1
  Al  Al8  1  0.52564947  0.22137138  0.67235860  1
  Al  Al9  1  0.12564663  0.41881006  0.40398991  1
  Al  Al10  1  0.21762666  0.53573964  0.16102652  1
  Al  Al11  1  0.45686705  0.42613798  0.41256226  1
  Al  Al12  1  0.11873605  0.42680023  0.90303045  1
  Al  Al13  1  0.23187426  0.53133996  0.64438040  1
  Al  Al14  1  0.79434574  0.42822878  0.33370084  1
  Al  Al15  1  0.91045220  0.53395973  0.08896653  1
  Al  Al16  1  0.40722225  0.44455155  0.90482249  1
  Al  Al17  1  0.52527865  0.55334492  0.66573323  1
  Al  Al18  1  0.12627698  0.75519490  0.37129454  1
  Al  Al19  1  0.21609849  0.87951139  0.15972941  1
  Al  Al20  1  0.78417904  0.75877271  0.85444507  1
  Al  Al21  1  0.46360357  0.75092191  0.41717760  1
  Al  Al22  1  0.11438613  0.75871500  0.85732875  1
  Al  Al23  1  0.23043172  0.87259005  0.64379521  1
  Al  Al24  1  0.80096391  0.74304292  0.32461135  1
  Al  Al25  1  0.91583610  0.85198544  0.09552858  1
  Al  Al26  1  0.41168094  0.77505716  0.90178662  1
  Al  Al27  1  0.53760024  0.88078167  0.68157011  1
  Gd  Gd28  1  0.76290439  0.09827850  0.88384076  1
  Gd  Gd29  1  0.87850540  0.20933121  0.61365282  1
  Gd  Gd30  1  0.45226417  0.08855342  0.40639255  1
  Gd  Gd31  1  0.76099698  0.43360867  0.88142408  1
  Gd  Gd32  1  0.88486944  0.53999947  0.61201074  1
  Gd  Gd33  1  0.53874342  0.54535581  0.14876315  1
  Gd  Gd34  1  0.87857350  0.87694641  0.59074328  1
  Gd  Gd35  1  0.56003735  0.87280505  0.11976162  1
  N  N36  1  0.20309226  0.21557074  0.33333878  1
  N  N37  1  0.11378843  0.09305747  0.09371726  1
  N  N38  1  0.91696128  0.18909377  0.84232415  1
  N  N39  1  0.73420226  0.11049465  0.65578655  1
  N  N40  1  0.56989072  0.22256788  0.33207090  1
  N  N41  1  0.42075409  0.12668380  0.09747477  1
  N  N42  1  0.21110530  0.20989954  0.84781540  1
  N  N43  1  0.14388457  0.08090951  0.58260184  1
  N  N44  1  0.90337122  0.19604156  0.34845788  1
  N  N45  1  0.78401603  0.09090805  0.12671006  1
  N  N46  1  0.50187829  0.23783652  0.85350920  1
  N  N47  1  0.44116710  0.09066325  0.62564817  1
  N  N48  1  0.23656608  0.52686325  0.34846652  1
  N  N49  1  0.12242125  0.42389220  0.09177851  1
  N  N50  1  0.90180675  0.54750354  0.89592976  1
  N  N51  1  0.73497626  0.45140028  0.66079001  1
  N  N52  1  0.56791413  0.53382263  0.36789574  1
  N  N53  1  0.41478812  0.42643537  0.08783227  1
  N  N54  1  0.20766179  0.54345553  0.83386964  1
  N  N55  1  0.14978312  0.40318060  0.58927367  1
  N  N56  1  0.90301050  0.53304808  0.38534253  1
  N  N57  1  0.80631568  0.41993865  0.13674543  1
  N  N58  1  0.49717632  0.56529316  0.85411977  1
  N  N59  1  0.44142902  0.42722204  0.59704982  1
  N  N60  1  0.24094553  0.86924701  0.34785014  1
  N  N61  1  0.12008325  0.75718634  0.14280697  1
  N  N62  1  0.91103315  0.84258094  0.90496713  1
  N  N63  1  0.74800875  0.77774875  0.67624626  1
  N  N64  1  0.58354146  0.83607184  0.34776250  1
  N  N65  1  0.40227055  0.78344420  0.08066906  1
  N  N66  1  0.21097836  0.88223884  0.83427937  1
  N  N67  1  0.14058481  0.74686348  0.59766924  1
  N  N68  1  0.89318527  0.87284224  0.36932043  1
  N  N69  1  0.82020064  0.73814984  0.14197595  1
  N  N70  1  0.53997237  0.88195556  0.87459293  1
  N  N71  1  0.44394979  0.76600340  0.60532062  1
