# generated using pymatgen
data_Gd2Al7N9
_symmetry_space_group_name_H-M   'P 1'
_cell_length_a   10.05419752
_cell_length_b   9.82440734
_cell_length_c   10.46556888
_cell_angle_alpha   90.07400441
_cell_angle_beta   90.02146104
_cell_angle_gamma   60.17962304
_symmetry_Int_Tables_number   1
_chemical_formula_structural   Gd2Al7N9
_chemical_formula_sum   'Gd8 Al28 N36'
_cell_volume   896.87123320
_cell_formula_units_Z   4
loop_
 _symmetry_equiv_pos_site_id
 _symmetry_equiv_pos_as_xyz
  1  'x, y, z'
loop_
 _atom_site_type_symbol
 _atom_site_label
 _atom_site_symmetry_multiplicity
 _atom_site_fract_x
 _atom_site_fract_y
 _atom_site_fract_z
 _atom_site_occupancy
  Al  Al0  1  0.11188066  0.09467596  0.30236743  1
  Al  Al1  1  0.21521777  0.21060984  0.05982173  1
  Al  Al2  1  0.54019356  0.21203731  0.12110042  1
  Al  Al3  1  0.12277757  0.08862660  0.81457063  1
  Al  Al4  1  0.22612262  0.20241013  0.56698872  1
  Al  Al5  1  0.78904124  0.09424931  0.27849154  1
  Al  Al6  1  0.91023453  0.20111460  0.06118404  1
  Al  Al7  1  0.42277980  0.10976458  0.85747649  1
  Al  Al8  1  0.52986767  0.22354103  0.63181974  1
  Al  Al9  1  0.11169651  0.42749205  0.30266407  1
  Al  Al10  1  0.20426068  0.54257538  0.05860611  1
  Al  Al11  1  0.45060463  0.42465579  0.37082152  1
  Al  Al12  1  0.12294295  0.42675675  0.81154026  1
  Al  Al13  1  0.23159939  0.53678556  0.55882659  1
  Al  Al14  1  0.79387231  0.42611194  0.29241114  1
  Al  Al15  1  0.91282491  0.52982977  0.05631862  1
  Al  Al16  1  0.41649212  0.43699750  0.88076931  1
  Al  Al17  1  0.55174006  0.54826507  0.54799228  1
  Al  Al18  1  0.11587624  0.76036933  0.30201114  1
  Al  Al19  1  0.21104326  0.87574033  0.05809236  1
  Al  Al20  1  0.79687101  0.75308309  0.81777959  1
  Al  Al21  1  0.43811883  0.76473627  0.30996372  1
  Al  Al22  1  0.11918901  0.75590628  0.81002489  1
  Al  Al23  1  0.23407012  0.86765660  0.56325068  1
  Al  Al24  1  0.79365951  0.75140069  0.28432648  1
  Al  Al25  1  0.90783707  0.85758938  0.05624676  1
  Al  Al26  1  0.42210651  0.75845639  0.80780255  1
  Al  Al27  1  0.54386745  0.88122843  0.64214928  1
  Gd  Gd28  1  0.76137887  0.10223523  0.84755701  1
  Gd  Gd29  1  0.89405405  0.19830217  0.54946559  1
  Gd  Gd30  1  0.45314419  0.08709881  0.35544591  1
  Gd  Gd31  1  0.76580693  0.44064541  0.82191006  1
  Gd  Gd32  1  0.89958899  0.53734058  0.55432272  1
  Gd  Gd33  1  0.54566538  0.52860859  0.09681949  1
  Gd  Gd34  1  0.88484468  0.87604447  0.55761314  1
  Gd  Gd35  1  0.55836090  0.85837716  0.07084651  1
  N  N36  1  0.18618068  0.22250615  0.38001222  1
  N  N37  1  0.11813617  0.09145861  0.11816094  1
  N  N38  1  0.92164519  0.19309913  0.87835930  1
  N  N39  1  0.74606289  0.11383378  0.62595104  1
  N  N40  1  0.57236994  0.22381314  0.29844905  1
  N  N41  1  0.42904625  0.11189407  0.08785904  1
  N  N42  1  0.21107565  0.21178909  0.87481558  1
  N  N43  1  0.14250816  0.07858379  0.63252348  1
  N  N44  1  0.89171471  0.20337332  0.32997443  1
  N  N45  1  0.78082072  0.09226985  0.09059367  1
  N  N46  1  0.49969129  0.23781783  0.81122567  1
  N  N47  1  0.44523656  0.09118123  0.58242424  1
  N  N48  1  0.21660863  0.54148493  0.36554318  1
  N  N49  1  0.11652314  0.42208599  0.11950487  1
  N  N50  1  0.91248985  0.54339658  0.87012228  1
  N  N51  1  0.75256018  0.44208903  0.60589250  1
  N  N52  1  0.55983709  0.54163208  0.35172132  1
  N  N53  1  0.41658331  0.41069464  0.06273184  1
  N  N54  1  0.20381804  0.55098088  0.87394558  1
  N  N55  1  0.14883049  0.41273062  0.63009982  1
  N  N56  1  0.89634315  0.53900748  0.33995194  1
  N  N57  1  0.80874509  0.41879657  0.10580724  1
  N  N58  1  0.51614415  0.55663202  0.87395305  1
  N  N59  1  0.44921290  0.42576820  0.55471834  1
  N  N60  1  0.21971539  0.87627822  0.37512570  1
  N  N61  1  0.11374441  0.76001714  0.11715982  1
  N  N62  1  0.91071339  0.84722384  0.86923311  1
  N  N63  1  0.75713602  0.77038515  0.64117293  1
  N  N64  1  0.58191327  0.83644421  0.31158246  1
  N  N65  1  0.39922989  0.77726450  0.13420325  1
  N  N66  1  0.21805926  0.87317576  0.87234340  1
  N  N67  1  0.14063279  0.74782500  0.62586300  1
  N  N68  1  0.89038168  0.87673894  0.33620307  1
  N  N69  1  0.81673534  0.74161323  0.10466835  1
  N  N70  1  0.54028616  0.88122809  0.83593587  1
  N  N71  1  0.44335244  0.75825036  0.62012052  1
