# generated using pymatgen
data_Gd2Al7N9
_symmetry_space_group_name_H-M   'P 1'
_cell_length_a   9.92754797
_cell_length_b   9.82973732
_cell_length_c   10.33674064
_cell_angle_alpha   90.13157616
_cell_angle_beta   89.91099462
_cell_angle_gamma   60.58227424
_symmetry_Int_Tables_number   1
_chemical_formula_structural   Gd2Al7N9
_chemical_formula_sum   'Gd8 Al28 N36'
_cell_volume   878.64479364
_cell_formula_units_Z   4
loop_
 _symmetry_equiv_pos_site_id
 _symmetry_equiv_pos_as_xyz
  1  'x, y, z'
loop_
 _atom_site_type_symbol
 _atom_site_label
 _atom_site_symmetry_multiplicity
 _atom_site_fract_x
 _atom_site_fract_y
 _atom_site_fract_z
 _atom_site_occupancy
  Al  Al0  1  0.12169260  0.08952440  0.39643815  1
  Al  Al1  1  0.21242585  0.21460355  0.14563468  1
  Al  Al2  1  0.53482448  0.22260641  0.15502323  1
  Al  Al3  1  0.11484095  0.08985758  0.90653795  1
  Al  Al4  1  0.23199792  0.19840657  0.66198605  1
  Al  Al5  1  0.76645171  0.10413774  0.38141755  1
  Al  Al6  1  0.90022453  0.20276601  0.17385257  1
  Al  Al7  1  0.43088622  0.11007953  0.89287727  1
  Al  Al8  1  0.54077439  0.21669619  0.65859836  1
  Al  Al9  1  0.12141782  0.42280933  0.39647782  1
  Al  Al10  1  0.21733395  0.53901304  0.15042549  1
  Al  Al11  1  0.43959385  0.43361009  0.41337178  1
  Al  Al12  1  0.11505848  0.43022160  0.90933177  1
  Al  Al13  1  0.23437033  0.53297688  0.65110473  1
  Al  Al14  1  0.77000127  0.43542573  0.40504314  1
  Al  Al15  1  0.90560759  0.53202856  0.16585653  1
  Al  Al16  1  0.42379625  0.43785759  0.89674775  1
  Al  Al17  1  0.53900391  0.54696277  0.64920860  1
  Al  Al18  1  0.12604543  0.75336124  0.39830742  1
  Al  Al19  1  0.21278919  0.87722602  0.15078285  1
  Al  Al20  1  0.80064539  0.74881628  0.91403893  1
  Al  Al21  1  0.44407903  0.76102316  0.41726754  1
  Al  Al22  1  0.11435149  0.75703165  0.90477061  1
  Al  Al23  1  0.23341543  0.86762581  0.65024059  1
  Al  Al24  1  0.77161365  0.75853575  0.39919475  1
  Al  Al25  1  0.90205971  0.86202549  0.16813471  1
  Al  Al26  1  0.42535119  0.76658849  0.89351584  1
  Al  Al27  1  0.55177322  0.87132291  0.66958473  1
  Gd  Gd28  1  0.77139912  0.09085564  0.92107199  1
  Gd  Gd29  1  0.89412388  0.19729863  0.62634104  1
  Gd  Gd30  1  0.44118862  0.09564729  0.41680751  1
  Gd  Gd31  1  0.77267802  0.43294205  0.90624748  1
  Gd  Gd32  1  0.90242138  0.53801707  0.63839703  1
  Gd  Gd33  1  0.54302477  0.54273671  0.16153852  1
  Gd  Gd34  1  0.88944200  0.87477045  0.63264681  1
  Gd  Gd35  1  0.55387992  0.87641697  0.12842315  1
  N  N36  1  0.19987242  0.21686593  0.32805677  1
  N  N37  1  0.10745027  0.09429050  0.09692824  1
  N  N38  1  0.91190352  0.18854373  0.84436831  1
  N  N39  1  0.73056457  0.11554905  0.56914072  1
  N  N40  1  0.55131582  0.23267316  0.33472519  1
  N  N41  1  0.42296033  0.12894811  0.08417907  1
  N  N42  1  0.21267176  0.21038903  0.84972936  1
  N  N43  1  0.15445084  0.07515917  0.57912615  1
  N  N44  1  0.89553633  0.20427637  0.36375192  1
  N  N45  1  0.77848444  0.09361878  0.14126719  1
  N  N46  1  0.52873124  0.22699239  0.84065724  1
  N  N47  1  0.44596895  0.08888821  0.63662951  1
  N  N48  1  0.22680311  0.53774508  0.33814659  1
  N  N49  1  0.11081247  0.43025324  0.09668742  1
  N  N50  1  0.90778198  0.54428446  0.85491818  1
  N  N51  1  0.74776657  0.44607940  0.59273628  1
  N  N52  1  0.54756667  0.54447159  0.37616822  1
  N  N53  1  0.42255268  0.42383737  0.08082420  1
  N  N54  1  0.21439493  0.54276851  0.84069618  1
  N  N55  1  0.15803126  0.39973414  0.57962284  1
  N  N56  1  0.89650889  0.53732600  0.35949006  1
  N  N57  1  0.80280973  0.41640306  0.12675435  1
  N  N58  1  0.52019069  0.55477613  0.83725312  1
  N  N59  1  0.44128485  0.42763989  0.59742842  1
  N  N60  1  0.22787128  0.86989446  0.33946898  1
  N  N61  1  0.11069555  0.76168411  0.09774112  1
  N  N62  1  0.90498200  0.84890051  0.85222234  1
  N  N63  1  0.74170699  0.77867793  0.58083949  1
  N  N64  1  0.56303852  0.84578218  0.34537378  1
  N  N65  1  0.40701411  0.77588543  0.07323879  1
  N  N66  1  0.21325160  0.87742910  0.83811215  1
  N  N67  1  0.14835621  0.74216853  0.58156506  1
  N  N68  1  0.89519849  0.86540136  0.35703764  1
  N  N69  1  0.81427958  0.74191399  0.10030832  1
  N  N70  1  0.56342169  0.86636272  0.86237672  1
  N  N71  1  0.44434061  0.76561312  0.60494018  1
