# generated using pymatgen
data_Gd2Al7N9
_symmetry_space_group_name_H-M   'P 1'
_cell_length_a   10.10026632
_cell_length_b   9.86291239
_cell_length_c   10.25843778
_cell_angle_alpha   89.86527441
_cell_angle_beta   90.71240156
_cell_angle_gamma   60.79178477
_symmetry_Int_Tables_number   1
_chemical_formula_structural   Gd2Al7N9
_chemical_formula_sum   'Gd8 Al28 N36'
_cell_volume   891.87937945
_cell_formula_units_Z   4
loop_
 _symmetry_equiv_pos_site_id
 _symmetry_equiv_pos_as_xyz
  1  'x, y, z'
loop_
 _atom_site_type_symbol
 _atom_site_label
 _atom_site_symmetry_multiplicity
 _atom_site_fract_x
 _atom_site_fract_y
 _atom_site_fract_z
 _atom_site_occupancy
  Al  Al0  1  0.12680149  0.08671650  0.39908243  1
  Al  Al1  1  0.21254457  0.21507265  0.15043092  1
  Al  Al2  1  0.53017025  0.22527866  0.15162608  1
  Al  Al3  1  0.11420849  0.09071768  0.90182888  1
  Al  Al4  1  0.22825339  0.20005296  0.65783421  1
  Al  Al5  1  0.78162962  0.09823588  0.32884982  1
  Al  Al6  1  0.91162569  0.19864415  0.15331645  1
  Al  Al7  1  0.41754303  0.11672970  0.90449272  1
  Al  Al8  1  0.52608138  0.22134359  0.67089644  1
  Al  Al9  1  0.12527078  0.42119972  0.40314330  1
  Al  Al10  1  0.21650281  0.53867563  0.15469703  1
  Al  Al11  1  0.45451232  0.42891080  0.41304151  1
  Al  Al12  1  0.11862051  0.42828580  0.90167408  1
  Al  Al13  1  0.23097244  0.53500556  0.64988626  1
  Al  Al14  1  0.79325138  0.42943704  0.33572858  1
  Al  Al15  1  0.91105317  0.53632716  0.08806855  1
  Al  Al16  1  0.40948827  0.44236207  0.90363999  1
  Al  Al17  1  0.52611112  0.55227553  0.66546909  1
  Al  Al18  1  0.13796970  0.75042703  0.40097246  1
  Al  Al19  1  0.21598084  0.87839321  0.15383415  1
  Al  Al20  1  0.78169337  0.75913482  0.84357699  1
  Al  Al21  1  0.46229624  0.75053379  0.41604086  1
  Al  Al22  1  0.11147185  0.75862340  0.90023737  1
  Al  Al23  1  0.22882374  0.87029438  0.64882961  1
  Al  Al24  1  0.79725368  0.73984356  0.33060631  1
  Al  Al25  1  0.91599851  0.85935813  0.15569375  1
  Al  Al26  1  0.41180474  0.77435092  0.90058353  1
  Al  Al27  1  0.53244996  0.88136874  0.67719694  1
  Gd  Gd28  1  0.76727339  0.09008096  0.89053605  1
  Gd  Gd29  1  0.88069695  0.20630323  0.61647515  1
  Gd  Gd30  1  0.45098548  0.08845546  0.40578463  1
  Gd  Gd31  1  0.76176005  0.43164691  0.88255768  1
  Gd  Gd32  1  0.88704218  0.53489821  0.61434891  1
  Gd  Gd33  1  0.54075563  0.54400647  0.14683550  1
  Gd  Gd34  1  0.88307490  0.87190758  0.61018264  1
  Gd  Gd35  1  0.56397155  0.87131067  0.11605111  1
  N  N36  1  0.20253430  0.21665066  0.33394249  1
  N  N37  1  0.11358861  0.09399421  0.09464611  1
  N  N38  1  0.91633983  0.18651699  0.84511395  1
  N  N39  1  0.73093466  0.11193195  0.64550883  1
  N  N40  1  0.56710586  0.22517162  0.33445896  1
  N  N41  1  0.42123347  0.12562087  0.09809976  1
  N  N42  1  0.21052206  0.21057850  0.84779421  1
  N  N43  1  0.14557198  0.07853563  0.58303510  1
  N  N44  1  0.90268853  0.19945886  0.35202483  1
  N  N45  1  0.78628828  0.09125716  0.13362597  1
  N  N46  1  0.50617665  0.23486352  0.85348056  1
  N  N47  1  0.43824135  0.09272289  0.62538328  1
  N  N48  1  0.23285364  0.53431751  0.34264184  1
  N  N49  1  0.12190957  0.42451679  0.09139106  1
  N  N50  1  0.90081960  0.54925476  0.89408987  1
  N  N51  1  0.73474955  0.44847417  0.65986663  1
  N  N52  1  0.56717437  0.53424641  0.36760553  1
  N  N53  1  0.41507094  0.42650657  0.08819911  1
  N  N54  1  0.20861391  0.54617975  0.83892884  1
  N  N55  1  0.15124794  0.40581351  0.58947164  1
  N  N56  1  0.90330643  0.53115736  0.38732168  1
  N  N57  1  0.80722674  0.42123438  0.13724958  1
  N  N58  1  0.50018075  0.56354414  0.85567101  1
  N  N59  1  0.43875594  0.42947723  0.59830528  1
  N  N60  1  0.23655799  0.86759648  0.34217711  1
  N  N61  1  0.11784457  0.75969681  0.09634232  1
  N  N62  1  0.90861324  0.84470474  0.85057282  1
  N  N63  1  0.73868129  0.77407974  0.66238822  1
  N  N64  1  0.58195761  0.83603989  0.34722676  1
  N  N65  1  0.40480137  0.78325888  0.08154007  1
  N  N66  1  0.20995247  0.87947332  0.83824015  1
  N  N67  1  0.14772444  0.74366281  0.58454226  1
  N  N68  1  0.90399283  0.86971619  0.35613172  1
  N  N69  1  0.82270034  0.73829295  0.14614242  1
  N  N70  1  0.54042111  0.88141098  0.87160966  1
  N  N71  1  0.43988782  0.76593572  0.60483113  1
