# generated using pymatgen
data_Gd2Al7N9
_symmetry_space_group_name_H-M   'P 1'
_cell_length_a   9.97403909
_cell_length_b   9.86443648
_cell_length_c   10.29179037
_cell_angle_alpha   90.05112122
_cell_angle_beta   89.87332693
_cell_angle_gamma   60.51233196
_symmetry_Int_Tables_number   1
_chemical_formula_structural   Gd2Al7N9
_chemical_formula_sum   'Gd8 Al28 N36'
_cell_volume   881.41764557
_cell_formula_units_Z   4
loop_
 _symmetry_equiv_pos_site_id
 _symmetry_equiv_pos_as_xyz
  1  'x, y, z'
loop_
 _atom_site_type_symbol
 _atom_site_label
 _atom_site_symmetry_multiplicity
 _atom_site_fract_x
 _atom_site_fract_y
 _atom_site_fract_z
 _atom_site_occupancy
  Al  Al0  1  0.12260990  0.08952767  0.39692190  1
  Al  Al1  1  0.21479124  0.21258769  0.14515665  1
  Al  Al2  1  0.53392010  0.22340611  0.15457434  1
  Al  Al3  1  0.11377976  0.09091041  0.90702296  1
  Al  Al4  1  0.23050274  0.19949127  0.66109078  1
  Al  Al5  1  0.76639624  0.10736229  0.38090613  1
  Al  Al6  1  0.90179137  0.20216768  0.17305509  1
  Al  Al7  1  0.42725769  0.11445731  0.89330280  1
  Al  Al8  1  0.53817483  0.21763443  0.65812660  1
  Al  Al9  1  0.12666188  0.41920535  0.39789709  1
  Al  Al10  1  0.21587118  0.53987083  0.14952316  1
  Al  Al11  1  0.43951270  0.43396503  0.41361130  1
  Al  Al12  1  0.11169196  0.43352939  0.90766554  1
  Al  Al13  1  0.23394274  0.53337181  0.65161714  1
  Al  Al14  1  0.76897526  0.43233922  0.40608462  1
  Al  Al15  1  0.91141058  0.52405280  0.17151312  1
  Al  Al16  1  0.42202651  0.43864646  0.89691522  1
  Al  Al17  1  0.53697851  0.54723575  0.64930389  1
  Al  Al18  1  0.13130921  0.75260049  0.39976198  1
  Al  Al19  1  0.21525700  0.87680148  0.15052714  1
  Al  Al20  1  0.78533415  0.75799229  0.86802615  1
  Al  Al21  1  0.44547720  0.76110560  0.41644077  1
  Al  Al22  1  0.11098539  0.75841285  0.90330452  1
  Al  Al23  1  0.23188571  0.86796440  0.65019718  1
  Al  Al24  1  0.78041965  0.75381646  0.36711318  1
  Al  Al25  1  0.90778098  0.86367228  0.17379759  1
  Al  Al26  1  0.42178197  0.76552348  0.89413250  1
  Al  Al27  1  0.54525232  0.87389969  0.66550403  1
  Gd  Gd28  1  0.77017450  0.09140094  0.92079952  1
  Gd  Gd29  1  0.89250722  0.19559061  0.62828954  1
  Gd  Gd30  1  0.44505769  0.09369800  0.41446437  1
  Gd  Gd31  1  0.77242986  0.43542081  0.90491319  1
  Gd  Gd32  1  0.90145345  0.53448105  0.62643594  1
  Gd  Gd33  1  0.54424112  0.54078763  0.16074495  1
  Gd  Gd34  1  0.88825516  0.87527832  0.61915342  1
  Gd  Gd35  1  0.56184400  0.87176837  0.12321860  1
  N  N36  1  0.20278059  0.21495823  0.32843647  1
  N  N37  1  0.10915742  0.09374258  0.09752801  1
  N  N38  1  0.91041506  0.19016446  0.84747893  1
  N  N39  1  0.72648305  0.11897099  0.56870662  1
  N  N40  1  0.55204575  0.23420957  0.33403220  1
  N  N41  1  0.42540296  0.12660152  0.08510796  1
  N  N42  1  0.21061191  0.21212844  0.84997802  1
  N  N43  1  0.15192923  0.07634963  0.58054384  1
  N  N44  1  0.89638506  0.20420828  0.36385168  1
  N  N45  1  0.78057180  0.09290866  0.14228593  1
  N  N46  1  0.52693102  0.22775828  0.84111523  1
  N  N47  1  0.44308159  0.09035898  0.63543586  1
  N  N48  1  0.22698372  0.53795019  0.33787251  1
  N  N49  1  0.11165395  0.42856627  0.09550002  1
  N  N50  1  0.90557735  0.54756304  0.84951411  1
  N  N51  1  0.74469484  0.44307949  0.59438067  1
  N  N52  1  0.54741306  0.54446044  0.37604273  1
  N  N53  1  0.42129586  0.42421653  0.08112775  1
  N  N54  1  0.21285419  0.54416235  0.84159201  1
  N  N55  1  0.16121426  0.39932060  0.58065660  1
  N  N56  1  0.90172609  0.52742581  0.36746793  1
  N  N57  1  0.80421022  0.41573646  0.12689217  1
  N  N58  1  0.51913461  0.55476934  0.83851764  1
  N  N59  1  0.44023526  0.42831063  0.59819310  1
  N  N60  1  0.22997241  0.86985398  0.33967047  1
  N  N61  1  0.11116215  0.76305900  0.09640712  1
  N  N62  1  0.90242932  0.85201686  0.84710002  1
  N  N63  1  0.74033575  0.77776364  0.59307440  1
  N  N64  1  0.56374806  0.84522644  0.34587315  1
  N  N65  1  0.40956536  0.77469767  0.07436430  1
  N  N66  1  0.21134429  0.87845823  0.83885412  1
  N  N67  1  0.15161177  0.74039312  0.58286153  1
  N  N68  1  0.90199200  0.86958228  0.36447901  1
  N  N69  1  0.81806732  0.73931452  0.15020767  1
  N  N70  1  0.55901083  0.86849269  0.86081954  1
  N  N71  1  0.44182492  0.76590539  0.60477061  1
