# generated using pymatgen
data_Gd2Al7N9
_symmetry_space_group_name_H-M   'P 1'
_cell_length_a   10.03770112
_cell_length_b   9.85537895
_cell_length_c   10.49355378
_cell_angle_alpha   90.01657063
_cell_angle_beta   90.03624368
_cell_angle_gamma   60.23225265
_symmetry_Int_Tables_number   1
_chemical_formula_structural   Gd2Al7N9
_chemical_formula_sum   'Gd8 Al28 N36'
_cell_volume   901.09871116
_cell_formula_units_Z   4
loop_
 _symmetry_equiv_pos_site_id
 _symmetry_equiv_pos_as_xyz
  1  'x, y, z'
loop_
 _atom_site_type_symbol
 _atom_site_label
 _atom_site_symmetry_multiplicity
 _atom_site_fract_x
 _atom_site_fract_y
 _atom_site_fract_z
 _atom_site_occupancy
  Al  Al0  1  0.11521646  0.09269298  0.30316873  1
  Al  Al1  1  0.21132298  0.21247801  0.05873189  1
  Al  Al2  1  0.53890845  0.21681115  0.12026120  1
  Al  Al3  1  0.11879627  0.09060544  0.80965979  1
  Al  Al4  1  0.22073454  0.20461452  0.56472513  1
  Al  Al5  1  0.78962515  0.09296776  0.27811553  1
  Al  Al6  1  0.91299969  0.19547229  0.06216876  1
  Al  Al7  1  0.42200174  0.11333242  0.87766008  1
  Al  Al8  1  0.52509951  0.22007879  0.63400640  1
  Al  Al9  1  0.11434494  0.42696993  0.30452835  1
  Al  Al10  1  0.20750104  0.54257715  0.05640904  1
  Al  Al11  1  0.46162793  0.42728227  0.37743895  1
  Al  Al12  1  0.12213193  0.42664834  0.80851745  1
  Al  Al13  1  0.22758418  0.53700140  0.55580341  1
  Al  Al14  1  0.79587239  0.42382021  0.28658050  1
  Al  Al15  1  0.91955189  0.52936121  0.05582299  1
  Al  Al16  1  0.41388766  0.43468067  0.87438232  1
  Al  Al17  1  0.53011397  0.54601387  0.63974377  1
  Al  Al18  1  0.12092188  0.75739005  0.30192109  1
  Al  Al19  1  0.20869557  0.87907038  0.05084854  1
  Al  Al20  1  0.79430343  0.75539957  0.81792083  1
  Al  Al21  1  0.45238392  0.75409769  0.32457578  1
  Al  Al22  1  0.11766106  0.75572708  0.80660040  1
  Al  Al23  1  0.23359118  0.86872646  0.56551872  1
  Al  Al24  1  0.80038336  0.74694231  0.28546857  1
  Al  Al25  1  0.91283845  0.85604741  0.05547978  1
  Al  Al26  1  0.41869438  0.77058934  0.83150055  1
  Al  Al27  1  0.53798563  0.88578523  0.65053855  1
  Gd  Gd28  1  0.75922637  0.10110734  0.84614287  1
  Gd  Gd29  1  0.87956663  0.20834066  0.55009582  1
  Gd  Gd30  1  0.45568459  0.08667583  0.36179187  1
  Gd  Gd31  1  0.77410775  0.43527195  0.83933998  1
  Gd  Gd32  1  0.88496394  0.54070497  0.55866994  1
  Gd  Gd33  1  0.54919045  0.52779182  0.10006685  1
  Gd  Gd34  1  0.88403612  0.87555568  0.55746244  1
  Gd  Gd35  1  0.56853395  0.86308186  0.07623205  1
  N  N36  1  0.19069534  0.22047544  0.37660313  1
  N  N37  1  0.12116889  0.08889792  0.11973998  1
  N  N38  1  0.92241127  0.18654220  0.88056860  1
  N  N39  1  0.74175165  0.11232250  0.62525398  1
  N  N40  1  0.57094031  0.22445619  0.29842504  1
  N  N41  1  0.42919899  0.11904461  0.06966389  1
  N  N42  1  0.20643352  0.21295582  0.87334755  1
  N  N43  1  0.13206548  0.08399783  0.62680906  1
  N  N44  1  0.89337023  0.20223601  0.32854714  1
  N  N45  1  0.78210124  0.09029072  0.09147680  1
  N  N46  1  0.49655759  0.23490946  0.81087475  1
  N  N47  1  0.44118094  0.09101955  0.58009147  1
  N  N48  1  0.22070763  0.54050576  0.36610236  1
  N  N49  1  0.12154398  0.42104416  0.12101786  1
  N  N50  1  0.91391492  0.54674112  0.87007500  1
  N  N51  1  0.74487079  0.44356304  0.62502054  1
  N  N52  1  0.56558661  0.53439798  0.32180841  1
  N  N53  1  0.42080686  0.41302319  0.05459020  1
  N  N54  1  0.20145374  0.55147033  0.87200903  1
  N  N55  1  0.14109114  0.41546068  0.62640163  1
  N  N56  1  0.89719075  0.53570946  0.34174623  1
  N  N57  1  0.81447071  0.41619454  0.09816009  1
  N  N58  1  0.51029267  0.54972759  0.83002496  1
  N  N59  1  0.44742387  0.42661832  0.56139826  1
  N  N60  1  0.23153338  0.86971928  0.37118634  1
  N  N61  1  0.11945767  0.75919306  0.11742999  1
  N  N62  1  0.90986781  0.84754930  0.86940154  1
  N  N63  1  0.75238308  0.77479548  0.64208105  1
  N  N64  1  0.58316446  0.83642391  0.30688789  1
  N  N65  1  0.41260253  0.77332953  0.08129228  1
  N  N66  1  0.20703139  0.87891848  0.86738606  1
  N  N67  1  0.13965236  0.74693911  0.62295249  1
  N  N68  1  0.89332977  0.87556139  0.33683653  1
  N  N69  1  0.82764829  0.73657150  0.10761391  1
  N  N70  1  0.54345582  0.88402844  0.84200822  1
  N  N71  1  0.43585525  0.76870885  0.62986630  1
