# generated using pymatgen
data_Gd2Al7N9
_symmetry_space_group_name_H-M   'P 1'
_cell_length_a   9.95619144
_cell_length_b   9.85490090
_cell_length_c   10.60898278
_cell_angle_alpha   90.27435418
_cell_angle_beta   90.22549265
_cell_angle_gamma   60.44680893
_symmetry_Int_Tables_number   1
_chemical_formula_structural   Gd2Al7N9
_chemical_formula_sum   'Gd8 Al28 N36'
_cell_volume   905.48648891
_cell_formula_units_Z   4
loop_
 _symmetry_equiv_pos_site_id
 _symmetry_equiv_pos_as_xyz
  1  'x, y, z'
loop_
 _atom_site_type_symbol
 _atom_site_label
 _atom_site_symmetry_multiplicity
 _atom_site_fract_x
 _atom_site_fract_y
 _atom_site_fract_z
 _atom_site_occupancy
  Al  Al0  1  0.12729392  0.08459079  0.38554764  1
  Al  Al1  1  0.21554042  0.21314658  0.14481003  1
  Al  Al2  1  0.53982702  0.21932336  0.13787723  1
  Al  Al3  1  0.11923944  0.09223898  0.90033126  1
  Al  Al4  1  0.22569715  0.19957242  0.64765975  1
  Al  Al5  1  0.79428932  0.08930664  0.29715394  1
  Al  Al6  1  0.90382876  0.20008531  0.08395183  1
  Al  Al7  1  0.41606742  0.11766603  0.89557201  1
  Al  Al8  1  0.52788940  0.21824092  0.66087333  1
  Al  Al9  1  0.12767787  0.41948234  0.38944184  1
  Al  Al10  1  0.21543954  0.53855574  0.09602610  1
  Al  Al11  1  0.45999551  0.42543407  0.40070405  1
  Al  Al12  1  0.11264444  0.42463504  0.89390130  1
  Al  Al13  1  0.23295586  0.53065380  0.60316874  1
  Al  Al14  1  0.80445997  0.41796622  0.31347363  1
  Al  Al15  1  0.90491626  0.53444871  0.07697993  1
  Al  Al16  1  0.41246611  0.44196163  0.89053734  1
  Al  Al17  1  0.52378640  0.55471506  0.65252362  1
  Al  Al18  1  0.12316365  0.75044231  0.31871060  1
  Al  Al19  1  0.22075390  0.88141186  0.14618388  1
  Al  Al20  1  0.78594515  0.75917821  0.83930026  1
  Al  Al21  1  0.46297237  0.75064679  0.40575219  1
  Al  Al22  1  0.11462405  0.75436069  0.82129648  1
  Al  Al23  1  0.22844755  0.87787115  0.64230017  1
  Al  Al24  1  0.80288145  0.74264430  0.30837644  1
  Al  Al25  1  0.91468201  0.85256566  0.07518438  1
  Al  Al26  1  0.40886648  0.77695739  0.89045889  1
  Al  Al27  1  0.53736241  0.88171848  0.67090682  1
  Gd  Gd28  1  0.76279760  0.09478394  0.86509457  1
  Gd  Gd29  1  0.86639227  0.21645362  0.57127755  1
  Gd  Gd30  1  0.45842954  0.08744878  0.39643802  1
  Gd  Gd31  1  0.75047293  0.44524832  0.86430183  1
  Gd  Gd32  1  0.87779222  0.54347294  0.58758490  1
  Gd  Gd33  1  0.53644612  0.54590423  0.14918019  1
  Gd  Gd34  1  0.88405373  0.87398459  0.57198185  1
  Gd  Gd35  1  0.56079864  0.87260733  0.10723882  1
  N  N36  1  0.20910349  0.21240900  0.32389808  1
  N  N37  1  0.12464685  0.08969292  0.08765504  1
  N  N38  1  0.90715789  0.19931030  0.90225134  1
  N  N39  1  0.74350770  0.10663610  0.64714005  1
  N  N40  1  0.57261215  0.22288984  0.31652719  1
  N  N41  1  0.42329146  0.12730814  0.08121972  1
  N  N42  1  0.20767155  0.21099172  0.83270014  1
  N  N43  1  0.13608008  0.08265627  0.57128044  1
  N  N44  1  0.90253138  0.19615203  0.35039939  1
  N  N45  1  0.78390773  0.08691998  0.11294921  1
  N  N46  1  0.50137943  0.23612097  0.83617397  1
  N  N47  1  0.44154074  0.09014336  0.61160585  1
  N  N48  1  0.23680581  0.53334188  0.35970200  1
  N  N49  1  0.11896197  0.41776916  0.08048518  1
  N  N50  1  0.89499364  0.55230554  0.89116898  1
  N  N51  1  0.73943860  0.44634377  0.65376300  1
  N  N52  1  0.57358675  0.53122963  0.36178391  1
  N  N53  1  0.42815774  0.41925074  0.07053202  1
  N  N54  1  0.20419055  0.54478320  0.86209065  1
  N  N55  1  0.14468253  0.40357842  0.57659370  1
  N  N56  1  0.90456708  0.53196762  0.36879124  1
  N  N57  1  0.80242632  0.42034017  0.12758084  1
  N  N58  1  0.48818759  0.57176054  0.83197636  1
  N  N59  1  0.44832230  0.42171687  0.58327498  1
  N  N60  1  0.24135446  0.86552702  0.33171420  1
  N  N61  1  0.12075543  0.75587678  0.13501596  1
  N  N62  1  0.91207163  0.84150576  0.89371466  1
  N  N63  1  0.75171121  0.77844588  0.66458654  1
  N  N64  1  0.58205689  0.83623444  0.33192656  1
  N  N65  1  0.40745722  0.77682490  0.06486264  1
  N  N66  1  0.20749917  0.89214208  0.82565260  1
  N  N67  1  0.13539399  0.74550245  0.63726895  1
  N  N68  1  0.89698639  0.87189372  0.35497523  1
  N  N69  1  0.82240326  0.73827936  0.13135582  1
  N  N70  1  0.53896652  0.88318724  0.86012972  1
  N  N71  1  0.44249533  0.76728448  0.59101804  1
