# generated using pymatgen
data_Gd2Al7N9
_symmetry_space_group_name_H-M   'P 1'
_cell_length_a   9.95710359
_cell_length_b   9.85433870
_cell_length_c   10.61095227
_cell_angle_alpha   90.27550412
_cell_angle_beta   90.22758495
_cell_angle_gamma   60.44567131
_symmetry_Int_Tables_number   1
_chemical_formula_structural   Gd2Al7N9
_chemical_formula_sum   'Gd8 Al28 N36'
_cell_volume   905.67555519
_cell_formula_units_Z   4
loop_
 _symmetry_equiv_pos_site_id
 _symmetry_equiv_pos_as_xyz
  1  'x, y, z'
loop_
 _atom_site_type_symbol
 _atom_site_label
 _atom_site_symmetry_multiplicity
 _atom_site_fract_x
 _atom_site_fract_y
 _atom_site_fract_z
 _atom_site_occupancy
  Al  Al0  1  0.12729957  0.08451707  0.38557699  1
  Al  Al1  1  0.21552584  0.21319687  0.14484737  1
  Al  Al2  1  0.53977246  0.21936990  0.13795426  1
  Al  Al3  1  0.11923910  0.09219625  0.90037794  1
  Al  Al4  1  0.22568816  0.19956937  0.64768259  1
  Al  Al5  1  0.79435055  0.08924604  0.29715692  1
  Al  Al6  1  0.90383926  0.20008118  0.08395515  1
  Al  Al7  1  0.41606245  0.11765533  0.89561535  1
  Al  Al8  1  0.52781530  0.21830226  0.66085962  1
  Al  Al9  1  0.12735218  0.41926002  0.38943228  1
  Al  Al10  1  0.21463231  0.53977494  0.08979398  1
  Al  Al11  1  0.46077450  0.42507149  0.40083570  1
  Al  Al12  1  0.11239753  0.42436127  0.89402157  1
  Al  Al13  1  0.23293139  0.53151033  0.59658675  1
  Al  Al14  1  0.80445835  0.41795031  0.31342916  1
  Al  Al15  1  0.90494074  0.53437812  0.07710043  1
  Al  Al16  1  0.41310435  0.44171563  0.89051620  1
  Al  Al17  1  0.52380726  0.55465276  0.65257247  1
  Al  Al18  1  0.12326429  0.75012906  0.31862678  1
  Al  Al19  1  0.22072832  0.88134961  0.14622036  1
  Al  Al20  1  0.78589682  0.75925532  0.83929356  1
  Al  Al21  1  0.46295350  0.75066087  0.40575349  1
  Al  Al22  1  0.11483070  0.75400085  0.82142385  1
  Al  Al23  1  0.22846433  0.87775357  0.64241635  1
  Al  Al24  1  0.80287129  0.74266977  0.30836157  1
  Al  Al25  1  0.91462014  0.85264326  0.07527229  1
  Al  Al26  1  0.40883674  0.77698486  0.89044966  1
  Al  Al27  1  0.53734472  0.88172254  0.67090524  1
  Gd  Gd28  1  0.76274449  0.09484922  0.86512305  1
  Gd  Gd29  1  0.86636105  0.21645917  0.57128797  1
  Gd  Gd30  1  0.45845568  0.08740164  0.39648150  1
  Gd  Gd31  1  0.75047010  0.44525892  0.86432644  1
  Gd  Gd32  1  0.87777812  0.54348379  0.58763298  1
  Gd  Gd33  1  0.53639735  0.54595012  0.14920001  1
  Gd  Gd34  1  0.88412903  0.87393668  0.57209795  1
  Gd  Gd35  1  0.56075724  0.87258193  0.10725558  1
  N  N36  1  0.20916196  0.21233219  0.32393540  1
  N  N37  1  0.12464897  0.08963574  0.08767308  1
  N  N38  1  0.90717398  0.19930855  0.90226476  1
  N  N39  1  0.74353464  0.10657633  0.64719193  1
  N  N40  1  0.57262803  0.22283779  0.31656650  1
  N  N41  1  0.42331896  0.12727813  0.08120843  1
  N  N42  1  0.20769527  0.21097756  0.83269231  1
  N  N43  1  0.13606557  0.08253850  0.57130196  1
  N  N44  1  0.90253134  0.19615269  0.35042608  1
  N  N45  1  0.78397482  0.08686685  0.11299668  1
  N  N46  1  0.50120629  0.23620920  0.83605172  1
  N  N47  1  0.44152027  0.09013470  0.61159862  1
  N  N48  1  0.23636904  0.53422818  0.36417667  1
  N  N49  1  0.11880156  0.41754385  0.08077848  1
  N  N50  1  0.89496666  0.55233371  0.89108835  1
  N  N51  1  0.73948129  0.44633864  0.65381855  1
  N  N52  1  0.57367038  0.53122741  0.36177085  1
  N  N53  1  0.42863173  0.41902614  0.07072411  1
  N  N54  1  0.20376864  0.54603463  0.86776409  1
  N  N55  1  0.14451514  0.40343488  0.57685015  1
  N  N56  1  0.90450926  0.53197426  0.36877980  1
  N  N57  1  0.80237567  0.42033433  0.12758193  1
  N  N58  1  0.48819158  0.57177978  0.83187468  1
  N  N59  1  0.44893618  0.42137515  0.58335399  1
  N  N60  1  0.24137374  0.86546762  0.33171297  1
  N  N61  1  0.12086945  0.75552308  0.13529110  1
  N  N62  1  0.91196045  0.84163367  0.89368656  1
  N  N63  1  0.75166724  0.77851718  0.66458828  1
  N  N64  1  0.58205225  0.83622160  0.33192755  1
  N  N65  1  0.40737074  0.77684776  0.06479687  1
  N  N66  1  0.20748027  0.89212927  0.82564931  1
  N  N67  1  0.13570140  0.74472780  0.63778868  1
  N  N68  1  0.89699727  0.87185974  0.35504714  1
  N  N69  1  0.82233782  0.73830975  0.13133795  1
  N  N70  1  0.53894745  0.88318997  0.86011470  1
  N  N71  1  0.44246923  0.76723957  0.59101200  1
