# generated using pymatgen
data_Gd2Al7N9
_symmetry_space_group_name_H-M   'P 1'
_cell_length_a   9.87587666
_cell_length_b   9.83362313
_cell_length_c   10.79853487
_cell_angle_alpha   90.18634812
_cell_angle_beta   89.36817937
_cell_angle_gamma   60.13813344
_symmetry_Int_Tables_number   1
_chemical_formula_structural   Gd2Al7N9
_chemical_formula_sum   'Gd8 Al28 N36'
_cell_volume   909.36666144
_cell_formula_units_Z   4
loop_
 _symmetry_equiv_pos_site_id
 _symmetry_equiv_pos_as_xyz
  1  'x, y, z'
loop_
 _atom_site_type_symbol
 _atom_site_label
 _atom_site_symmetry_multiplicity
 _atom_site_fract_x
 _atom_site_fract_y
 _atom_site_fract_z
 _atom_site_occupancy
  Al  Al0  1  0.11599603  0.08205619  0.30432234  1
  Al  Al1  1  0.21962097  0.21044229  0.13208497  1
  Al  Al2  1  0.54009128  0.21897131  0.12578157  1
  Al  Al3  1  0.11110422  0.08750552  0.82008587  1
  Al  Al4  1  0.23417523  0.19829519  0.65537240  1
  Al  Al5  1  0.78853956  0.09235309  0.28537037  1
  Al  Al6  1  0.90879535  0.19764401  0.06949688  1
  Al  Al7  1  0.41624062  0.11692458  0.88872720  1
  Al  Al8  1  0.53002332  0.21896904  0.64896552  1
  Al  Al9  1  0.11467056  0.43657290  0.30541706  1
  Al  Al10  1  0.21100872  0.54316360  0.05956858  1
  Al  Al11  1  0.46398157  0.42368446  0.39109547  1
  Al  Al12  1  0.11369966  0.43679873  0.82025178  1
  Al  Al13  1  0.22875913  0.53541494  0.56557460  1
  Al  Al14  1  0.80151020  0.41926247  0.29984994  1
  Al  Al15  1  0.91297137  0.53219444  0.06444953  1
  Al  Al16  1  0.41846735  0.43960693  0.87993927  1
  Al  Al17  1  0.53022130  0.54900900  0.63963079  1
  Al  Al18  1  0.12112491  0.75904462  0.31018239  1
  Al  Al19  1  0.20447232  0.87818404  0.05493806  1
  Al  Al20  1  0.78614980  0.75726242  0.82844798  1
  Al  Al21  1  0.46940783  0.74755126  0.39806615  1
  Al  Al22  1  0.11749811  0.75415508  0.81455654  1
  Al  Al23  1  0.22896833  0.86983349  0.56931281  1
  Al  Al24  1  0.79825382  0.74827331  0.29600566  1
  Al  Al25  1  0.90993433  0.85516258  0.06498014  1
  Al  Al26  1  0.42025068  0.76964904  0.87859832  1
  Al  Al27  1  0.53981754  0.87895689  0.65964370  1
  Gd  Gd28  1  0.76290289  0.09643214  0.85306257  1
  Gd  Gd29  1  0.88356226  0.20517567  0.55692435  1
  Gd  Gd30  1  0.45014649  0.09339684  0.38865450  1
  Gd  Gd31  1  0.76203055  0.44090097  0.84702062  1
  Gd  Gd32  1  0.88768726  0.53836970  0.56594316  1
  Gd  Gd33  1  0.53929415  0.54044192  0.13745582  1
  Gd  Gd34  1  0.88709080  0.87147329  0.56266747  1
  Gd  Gd35  1  0.55683308  0.87260170  0.10381145  1
  N  N36  1  0.20727538  0.21313574  0.31427267  1
  N  N37  1  0.11943994  0.08174207  0.12437408  1
  N  N38  1  0.91546821  0.19427853  0.89520099  1
  N  N39  1  0.74952697  0.10591862  0.63773045  1
  N  N40  1  0.56447440  0.22709083  0.30208434  1
  N  N41  1  0.42426834  0.12701502  0.06717763  1
  N  N42  1  0.21082672  0.21022203  0.83521495  1
  N  N43  1  0.13176426  0.07675944  0.63888910  1
  N  N44  1  0.89458556  0.19991662  0.34028794  1
  N  N45  1  0.78267164  0.08799323  0.10279914  1
  N  N46  1  0.49888565  0.23656683  0.82106410  1
  N  N47  1  0.44319337  0.08977666  0.59988600  1
  N  N48  1  0.22153275  0.54228483  0.37772579  1
  N  N49  1  0.11763226  0.43259580  0.12531104  1
  N  N50  1  0.90506828  0.54938105  0.88517274  1
  N  N51  1  0.75146109  0.43811004  0.63806595  1
  N  N52  1  0.57107824  0.53307985  0.34727954  1
  N  N53  1  0.43268622  0.41597712  0.05605353  1
  N  N54  1  0.20190416  0.55236675  0.88251185  1
  N  N55  1  0.13828923  0.42182229  0.63935676  1
  N  N56  1  0.89911190  0.53615555  0.35294361  1
  N  N57  1  0.80797381  0.41762482  0.11549318  1
  N  N58  1  0.49558824  0.56619098  0.81541841  1
  N  N59  1  0.45177530  0.41916094  0.56838692  1
  N  N60  1  0.22398973  0.87188197  0.38139649  1
  N  N61  1  0.12220186  0.75624990  0.12807141  1
  N  N62  1  0.90703736  0.84354540  0.88461833  1
  N  N63  1  0.75828585  0.77040911  0.65476603  1
  N  N64  1  0.57556817  0.84203015  0.32127449  1
  N  N65  1  0.41948990  0.76628968  0.05244032  1
  N  N66  1  0.19921387  0.88076982  0.87546436  1
  N  N67  1  0.14252789  0.74451152  0.63453077  1
  N  N68  1  0.89032148  0.87653031  0.34580379  1
  N  N69  1  0.81905873  0.73998876  0.12085094  1
  N  N70  1  0.53865271  0.88165964  0.84526342  1
  N  N71  1  0.45298702  0.76128149  0.57882046  1
