# generated using pymatgen
data_Gd2Al7N9
_symmetry_space_group_name_H-M   'P 1'
_cell_length_a   9.87587581
_cell_length_b   9.83362296
_cell_length_c   10.79853935
_cell_angle_alpha   90.18641544
_cell_angle_beta   89.36816606
_cell_angle_gamma   60.13812952
_symmetry_Int_Tables_number   1
_chemical_formula_structural   Gd2Al7N9
_chemical_formula_sum   'Gd8 Al28 N36'
_cell_volume   909.36689290
_cell_formula_units_Z   4
loop_
 _symmetry_equiv_pos_site_id
 _symmetry_equiv_pos_as_xyz
  1  'x, y, z'
loop_
 _atom_site_type_symbol
 _atom_site_label
 _atom_site_symmetry_multiplicity
 _atom_site_fract_x
 _atom_site_fract_y
 _atom_site_fract_z
 _atom_site_occupancy
  Al  Al0  1  0.11587376  0.08216566  0.31167768  1
  Al  Al1  1  0.21949887  0.21055169  0.13944103  1
  Al  Al2  1  0.53996972  0.21908062  0.13313746  1
  Al  Al3  1  0.11098250  0.08761459  0.82744163  1
  Al  Al4  1  0.23405344  0.19840431  0.66272846  1
  Al  Al5  1  0.78841771  0.09246250  0.29272553  1
  Al  Al6  1  0.90867330  0.19775345  0.07685232  1
  Al  Al7  1  0.41611873  0.11703412  0.89608346  1
  Al  Al8  1  0.52990163  0.21907807  0.65632092  1
  Al  Al9  1  0.11454818  0.43668270  0.31277256  1
  Al  Al10  1  0.21088695  0.54327295  0.06692466  1
  Al  Al11  1  0.46385962  0.42379390  0.39845129  1
  Al  Al12  1  0.11357788  0.43690809  0.82760766  1
  Al  Al13  1  0.22863707  0.53552425  0.57293039  1
  Al  Al14  1  0.80138822  0.41937191  0.30720498  1
  Al  Al15  1  0.91284966  0.53230355  0.07180519  1
  Al  Al16  1  0.41834588  0.43971587  0.88729516  1
  Al  Al17  1  0.53009967  0.54911804  0.64698644  1
  Al  Al18  1  0.12100281  0.75915416  0.31753819  1
  Al  Al19  1  0.20435046  0.87829335  0.06229355  1
  Al  Al20  1  0.78602866  0.75737123  0.83580372  1
  Al  Al21  1  0.46928575  0.74766069  0.40542186  1
  Al  Al22  1  0.11737605  0.75426424  0.82191239  1
  Al  Al23  1  0.22884636  0.86994276  0.57666890  1
  Al  Al24  1  0.79813168  0.74838276  0.30336081  1
  Al  Al25  1  0.90981255  0.85527210  0.07233608  1
  Al  Al26  1  0.42012908  0.76975808  0.88595400  1
  Al  Al27  1  0.53969611  0.87906611  0.66699949  1
  Gd  Gd28  1  0.76278183  0.09654074  0.86041765  1
  Gd  Gd29  1  0.88344142  0.20528399  0.56427941  1
  Gd  Gd30  1  0.45002428  0.09350622  0.39600988  1
  Gd  Gd31  1  0.76191001  0.44100948  0.85437519  1
  Gd  Gd32  1  0.88756625  0.53847849  0.57329863  1
  Gd  Gd33  1  0.53917223  0.54055160  0.14481152  1
  Gd  Gd34  1  0.88696927  0.87158204  0.57002293  1
  Gd  Gd35  1  0.55671173  0.87271083  0.11116677  1
  N  N36  1  0.20715266  0.21324559  0.32162864  1
  N  N37  1  0.11931783  0.08185147  0.13172958  1
  N  N38  1  0.91534645  0.19438758  0.90255659  1
  N  N39  1  0.74940518  0.10602773  0.64508506  1
  N  N40  1  0.56435254  0.22720021  0.30944008  1
  N  N41  1  0.42414645  0.12712439  0.07453384  1
  N  N42  1  0.21070483  0.21033142  0.84257093  1
  N  N43  1  0.13164217  0.07686881  0.64624522  1
  N  N44  1  0.89446338  0.20002626  0.34764259  1
  N  N45  1  0.78254964  0.08810272  0.11015440  1
  N  N46  1  0.49876450  0.23667558  0.82841969  1
  N  N47  1  0.44307145  0.08988576  0.60724120  1
  N  N48  1  0.22141035  0.54239451  0.38508179  1
  N  N49  1  0.11751041  0.43270514  0.13266682  1
  N  N50  1  0.90494673  0.54949020  0.89252855  1
  N  N51  1  0.75133942  0.43821895  0.64541984  1
  N  N52  1  0.57095563  0.53318960  0.35463460  1
  N  N53  1  0.43256439  0.41608641  0.06340945  1
  N  N54  1  0.20178258  0.55247599  0.88986784  1
  N  N55  1  0.13816737  0.42193144  0.64671283  1
  N  N56  1  0.89898943  0.53626535  0.36029867  1
  N  N57  1  0.80785216  0.41773408  0.12284846  1
  N  N58  1  0.49546765  0.56629940  0.82277423  1
  N  N59  1  0.45165313  0.41927037  0.57574274  1
  N  N60  1  0.22386725  0.87199176  0.38875265  1
  N  N61  1  0.12208010  0.75635931  0.13542720  1
  N  N62  1  0.90691577  0.84365444  0.89197435  1
  N  N63  1  0.75816455  0.77051787  0.66212192  1
  N  N64  1  0.57544582  0.84213941  0.32862940  1
  N  N65  1  0.41936794  0.76639921  0.05979588  1
  N  N66  1  0.19909199  0.88087888  0.88281988  1
  N  N67  1  0.14240550  0.74462096  0.64188664  1
  N  N68  1  0.89019933  0.87663986  0.35315877  1
  N  N69  1  0.81893730  0.74009792  0.12820624  1
  N  N70  1  0.53853122  0.88176895  0.85261926  1
  N  N71  1  0.45286509  0.76139071  0.58617634  1
