# generated using pymatgen
data_Gd2Al7N9
_symmetry_space_group_name_H-M   'P 1'
_cell_length_a   10.03997816
_cell_length_b   9.87114721
_cell_length_c   10.37941798
_cell_angle_alpha   90.15413598
_cell_angle_beta   90.70508355
_cell_angle_gamma   60.73933571
_symmetry_Int_Tables_number   1
_chemical_formula_structural   Gd2Al7N9
_chemical_formula_sum   'Gd8 Al28 N36'
_cell_volume   897.33690219
_cell_formula_units_Z   4
loop_
 _symmetry_equiv_pos_site_id
 _symmetry_equiv_pos_as_xyz
  1  'x, y, z'
loop_
 _atom_site_type_symbol
 _atom_site_label
 _atom_site_symmetry_multiplicity
 _atom_site_fract_x
 _atom_site_fract_y
 _atom_site_fract_z
 _atom_site_occupancy
  Al  Al0  1  0.12649589  0.08715986  0.39967843  1
  Al  Al1  1  0.21248981  0.21486469  0.15171267  1
  Al  Al2  1  0.53370299  0.22327065  0.14988230  1
  Al  Al3  1  0.11426222  0.09252535  0.90271060  1
  Al  Al4  1  0.22886554  0.19902875  0.65970070  1
  Al  Al5  1  0.78546634  0.08860179  0.31747220  1
  Al  Al6  1  0.91010774  0.19766310  0.15147524  1
  Al  Al7  1  0.41767393  0.11685756  0.90721251  1
  Al  Al8  1  0.52606992  0.22109724  0.67299281  1
  Al  Al9  1  0.12534877  0.41911783  0.40428255  1
  Al  Al10  1  0.21920826  0.53206263  0.15982241  1
  Al  Al11  1  0.45596225  0.42695755  0.41275819  1
  Al  Al12  1  0.11891146  0.42623155  0.90406153  1
  Al  Al13  1  0.23247416  0.52732483  0.64923951  1
  Al  Al14  1  0.79438224  0.42811652  0.33379830  1
  Al  Al15  1  0.90988833  0.53409450  0.08856093  1
  Al  Al16  1  0.40723096  0.44404599  0.90552878  1
  Al  Al17  1  0.52428208  0.55395455  0.66656179  1
  Al  Al18  1  0.11985707  0.75836837  0.34184322  1
  Al  Al19  1  0.21717222  0.88183409  0.15817121  1
  Al  Al20  1  0.78619413  0.75862285  0.85417157  1
  Al  Al21  1  0.46283524  0.75097340  0.41709033  1
  Al  Al22  1  0.11380692  0.75895569  0.82930245  1
  Al  Al23  1  0.23111010  0.87573036  0.64828375  1
  Al  Al24  1  0.80077041  0.74277485  0.32394478  1
  Al  Al25  1  0.91810117  0.84985072  0.09084794  1
  Al  Al26  1  0.41142793  0.77540987  0.90285855  1
  Al  Al27  1  0.53773681  0.88072406  0.68246358  1
  Gd  Gd28  1  0.76483212  0.09643157  0.88334711  1
  Gd  Gd29  1  0.87853840  0.20957098  0.61454424  1
  Gd  Gd30  1  0.45220469  0.08845366  0.40709755  1
  Gd  Gd31  1  0.76035266  0.43386197  0.88115153  1
  Gd  Gd32  1  0.88429468  0.54018724  0.61180273  1
  Gd  Gd33  1  0.53911997  0.54511354  0.14950265  1
  Gd  Gd34  1  0.87838476  0.87685394  0.58867580  1
  Gd  Gd35  1  0.56088252  0.87296864  0.11913913  1
  N  N36  1  0.20314951  0.21553253  0.33343655  1
  N  N37  1  0.11347561  0.09385450  0.09382800  1
  N  N38  1  0.91711399  0.18954416  0.84198627  1
  N  N39  1  0.73473556  0.10976987  0.65538593  1
  N  N40  1  0.56942856  0.22270839  0.33184383  1
  N  N41  1  0.42079431  0.12673327  0.09720069  1
  N  N42  1  0.21123097  0.21031377  0.84787841  1
  N  N43  1  0.14382488  0.08124092  0.58209584  1
  N  N44  1  0.90315811  0.19609602  0.34812365  1
  N  N45  1  0.78428726  0.09054486  0.12639722  1
  N  N46  1  0.50358976  0.23687643  0.85366301  1
  N  N47  1  0.44138366  0.09046346  0.62590949  1
  N  N48  1  0.23513068  0.52828403  0.34831356  1
  N  N49  1  0.12195757  0.42324053  0.09233114  1
  N  N50  1  0.90139496  0.54750769  0.89682534  1
  N  N51  1  0.73431779  0.45176934  0.66127123  1
  N  N52  1  0.56757840  0.53392909  0.36777602  1
  N  N53  1  0.41577567  0.42567836  0.08811757  1
  N  N54  1  0.20934474  0.53858320  0.83679750  1
  N  N55  1  0.14951789  0.40265979  0.58873769  1
  N  N56  1  0.90251017  0.53341304  0.38575948  1
  N  N57  1  0.80627446  0.42003263  0.13723607  1
  N  N58  1  0.49639119  0.56579364  0.85408516  1
  N  N59  1  0.44027590  0.42808996  0.59680123  1
  N  N60  1  0.23951022  0.86944588  0.34752252  1
  N  N61  1  0.11879624  0.75801263  0.15219453  1
  N  N62  1  0.91574246  0.84036974  0.90395897  1
  N  N63  1  0.74853320  0.77784126  0.67650233  1
  N  N64  1  0.58312013  0.83630207  0.34717891  1
  N  N65  1  0.40330193  0.78281455  0.08125805  1
  N  N66  1  0.21330524  0.88598743  0.83663192  1
  N  N67  1  0.13368375  0.75018620  0.63569283  1
  N  N68  1  0.89386040  0.87257876  0.36896229  1
  N  N69  1  0.82147459  0.73806275  0.14210295  1
  N  N70  1  0.54097563  0.88186127  0.87499270  1
  N  N71  1  0.44312867  0.76604490  0.60460585  1
