# generated using pymatgen
data_Gd2Al7N9
_symmetry_space_group_name_H-M   'P 1'
_cell_length_a   9.89090701
_cell_length_b   9.82479334
_cell_length_c   10.80814617
_cell_angle_alpha   90.02443295
_cell_angle_beta   89.48995988
_cell_angle_gamma   60.17626175
_symmetry_Int_Tables_number   1
_chemical_formula_structural   Gd2Al7N9
_chemical_formula_sum   'Gd8 Al28 N36'
_cell_volume   911.14187312
_cell_formula_units_Z   4
loop_
 _symmetry_equiv_pos_site_id
 _symmetry_equiv_pos_as_xyz
  1  'x, y, z'
loop_
 _atom_site_type_symbol
 _atom_site_label
 _atom_site_symmetry_multiplicity
 _atom_site_fract_x
 _atom_site_fract_y
 _atom_site_fract_z
 _atom_site_occupancy
  Al  Al0  1  0.12203434  0.08519783  0.36595286  1
  Al  Al1  1  0.22001003  0.20756954  0.14307959  1
  Al  Al2  1  0.53963514  0.21769657  0.13703403  1
  Al  Al3  1  0.11192207  0.10113496  0.90551573  1
  Al  Al4  1  0.22551754  0.19461691  0.66015250  1
  Al  Al5  1  0.79070794  0.08760623  0.29583519  1
  Al  Al6  1  0.89782446  0.20410824  0.08841363  1
  Al  Al7  1  0.41774233  0.11551307  0.89747731  1
  Al  Al8  1  0.52626961  0.21908893  0.66154932  1
  Al  Al9  1  0.11722934  0.43342505  0.31572758  1
  Al  Al10  1  0.21073091  0.54167488  0.06967502  1
  Al  Al11  1  0.46510320  0.42101230  0.40365216  1
  Al  Al12  1  0.11434536  0.43658997  0.82911356  1
  Al  Al13  1  0.22904493  0.53492526  0.57671101  1
  Al  Al14  1  0.80332934  0.41954130  0.30996127  1
  Al  Al15  1  0.91336254  0.53236671  0.07562044  1
  Al  Al16  1  0.41769244  0.44051132  0.89166715  1
  Al  Al17  1  0.52644105  0.55232950  0.65193967  1
  Al  Al18  1  0.12384292  0.75502171  0.31989808  1
  Al  Al19  1  0.20758331  0.87275839  0.06985126  1
  Al  Al20  1  0.78836668  0.75687712  0.83933588  1
  Al  Al21  1  0.47373461  0.74332612  0.40949580  1
  Al  Al22  1  0.11855683  0.75642978  0.82464326  1
  Al  Al23  1  0.22903861  0.87040087  0.57262588  1
  Al  Al24  1  0.80137308  0.74571532  0.30748598  1
  Al  Al25  1  0.91008121  0.85489324  0.07465562  1
  Al  Al26  1  0.41792164  0.77226608  0.88977987  1
  Al  Al27  1  0.54073477  0.87855732  0.67120395  1
  Gd  Gd28  1  0.76284252  0.09767431  0.86168311  1
  Gd  Gd29  1  0.86390979  0.21664223  0.56300560  1
  Gd  Gd30  1  0.45305076  0.08981010  0.40260356  1
  Gd  Gd31  1  0.75565721  0.44878285  0.85958435  1
  Gd  Gd32  1  0.88841135  0.53701809  0.57812785  1
  Gd  Gd33  1  0.53597768  0.54134612  0.15258691  1
  Gd  Gd34  1  0.88833443  0.87109379  0.57463033  1
  Gd  Gd35  1  0.55818087  0.87206456  0.11562415  1
  N  N36  1  0.21198920  0.20750793  0.32112244  1
  N  N37  1  0.12072827  0.09173304  0.09598977  1
  N  N38  1  0.90010336  0.20617348  0.91161050  1
  N  N39  1  0.74554459  0.10437095  0.64875864  1
  N  N40  1  0.56623363  0.22402932  0.31454941  1
  N  N41  1  0.42424169  0.12639671  0.07642633  1
  N  N42  1  0.20997944  0.20615455  0.84126200  1
  N  N43  1  0.12787063  0.09246293  0.58144405  1
  N  N44  1  0.89939172  0.19592419  0.34362352  1
  N  N45  1  0.78117645  0.08641641  0.11546303  1
  N  N46  1  0.49835661  0.23749900  0.83326305  1
  N  N47  1  0.44053882  0.09028034  0.61384702  1
  N  N48  1  0.22425069  0.53818389  0.38822381  1
  N  N49  1  0.11811402  0.43119366  0.13630381  1
  N  N50  1  0.90734308  0.54860483  0.89667204  1
  N  N51  1  0.74665809  0.44418664  0.65215731  1
  N  N52  1  0.57653096  0.52761261  0.36220386  1
  N  N53  1  0.43237249  0.41585168  0.06780924  1
  N  N54  1  0.20159301  0.55281756  0.89288426  1
  N  N55  1  0.13875416  0.42148675  0.65045066  1
  N  N56  1  0.90295657  0.53277619  0.36478424  1
  N  N57  1  0.80262544  0.42385605  0.12906069  1
  N  N58  1  0.49021157  0.57020290  0.82648484  1
  N  N59  1  0.45178304  0.41897992  0.58045971  1
  N  N60  1  0.23468516  0.85803602  0.38478262  1
  N  N61  1  0.12188019  0.75477523  0.13893064  1
  N  N62  1  0.90826955  0.84420252  0.89514036  1
  N  N63  1  0.75913245  0.76974669  0.66585384  1
  N  N64  1  0.57946125  0.83899869  0.33348970  1
  N  N65  1  0.42091784  0.76548156  0.06407764  1
  N  N66  1  0.19753388  0.88394005  0.88643847  1
  N  N67  1  0.14420196  0.74586968  0.64409803  1
  N  N68  1  0.89393822  0.87311980  0.35784484  1
  N  N69  1  0.82026555  0.73970272  0.13230207  1
  N  N70  1  0.54009255  0.88034872  0.85665381  1
  N  N71  1  0.45162405  0.76345405  0.58984876  1
