# generated using pymatgen
data_Gd2Al7N9
_symmetry_space_group_name_H-M   'P 1'
_cell_length_a   9.90064371
_cell_length_b   9.82963090
_cell_length_c   10.73807336
_cell_angle_alpha   90.18873186
_cell_angle_beta   89.78639268
_cell_angle_gamma   60.28139169
_symmetry_Int_Tables_number   1
_chemical_formula_structural   Gd2Al7N9
_chemical_formula_sum   'Gd8 Al28 N36'
_cell_volume   907.55191335
_cell_formula_units_Z   4
loop_
 _symmetry_equiv_pos_site_id
 _symmetry_equiv_pos_as_xyz
  1  'x, y, z'
loop_
 _atom_site_type_symbol
 _atom_site_label
 _atom_site_symmetry_multiplicity
 _atom_site_fract_x
 _atom_site_fract_y
 _atom_site_fract_z
 _atom_site_occupancy
  Al  Al0  1  0.12714792  0.08253771  0.38795757  1
  Al  Al1  1  0.21896608  0.20635219  0.14498539  1
  Al  Al2  1  0.53985071  0.21883173  0.13834563  1
  Al  Al3  1  0.11531583  0.09466551  0.89986928  1
  Al  Al4  1  0.22613871  0.19545897  0.65635987  1
  Al  Al5  1  0.79407103  0.08842099  0.29691868  1
  Al  Al6  1  0.89857118  0.20311261  0.08234778  1
  Al  Al7  1  0.41524268  0.11690408  0.89755538  1
  Al  Al8  1  0.52388691  0.21982170  0.66148604  1
  Al  Al9  1  0.11769849  0.43193520  0.31689677  1
  Al  Al10  1  0.21085121  0.54173741  0.07076572  1
  Al  Al11  1  0.46624068  0.42083079  0.40258942  1
  Al  Al12  1  0.11531059  0.43503339  0.82744618  1
  Al  Al13  1  0.22868633  0.53346429  0.57346861  1
  Al  Al14  1  0.80454144  0.41683299  0.31119537  1
  Al  Al15  1  0.91507594  0.53117391  0.07550284  1
  Al  Al16  1  0.41727257  0.44099921  0.89263668  1
  Al  Al17  1  0.52560040  0.55199737  0.65230580  1
  Al  Al18  1  0.12349289  0.75360238  0.32107939  1
  Al  Al19  1  0.21510680  0.87869219  0.12593785  1
  Al  Al20  1  0.79047813  0.75585707  0.83964221  1
  Al  Al21  1  0.46258182  0.74903628  0.40837897  1
  Al  Al22  1  0.11727559  0.75412324  0.82312571  1
  Al  Al23  1  0.22843137  0.87567676  0.63633804  1
  Al  Al24  1  0.80031332  0.74518106  0.30653159  1
  Al  Al25  1  0.91180680  0.85438800  0.07484404  1
  Al  Al26  1  0.41210825  0.77586590  0.88669080  1
  Al  Al27  1  0.54154843  0.87884511  0.67161840  1
  Gd  Gd28  1  0.75899038  0.09677344  0.86375489  1
  Gd  Gd29  1  0.86045102  0.21756176  0.56860246  1
  Gd  Gd30  1  0.45635203  0.08767117  0.39939731  1
  Gd  Gd31  1  0.75533749  0.44865156  0.86107095  1
  Gd  Gd32  1  0.88643103  0.53811006  0.57768386  1
  Gd  Gd33  1  0.53614031  0.54567958  0.15114467  1
  Gd  Gd34  1  0.88654191  0.87197333  0.57341422  1
  Gd  Gd35  1  0.55902476  0.87160596  0.11049679  1
  N  N36  1  0.21099257  0.20649876  0.32416342  1
  N  N37  1  0.12133715  0.09119348  0.08545713  1
  N  N38  1  0.90155191  0.20252790  0.90398735  1
  N  N39  1  0.74225938  0.10428093  0.64989724  1
  N  N40  1  0.56966384  0.22293676  0.31521262  1
  N  N41  1  0.42370055  0.12681257  0.07870604  1
  N  N42  1  0.20935239  0.20610178  0.83806989  1
  N  N43  1  0.13157051  0.08743566  0.57416418  1
  N  N44  1  0.90160881  0.19555015  0.35082780  1
  N  N45  1  0.78313099  0.08688276  0.11458115  1
  N  N46  1  0.49523079  0.23892352  0.83400285  1
  N  N47  1  0.44042509  0.08938968  0.61200777  1
  N  N48  1  0.22560195  0.53723362  0.38665258  1
  N  N49  1  0.11917768  0.42945123  0.13647748  1
  N  N50  1  0.90901877  0.54737522  0.89524066  1
  N  N51  1  0.74419457  0.44693424  0.65275766  1
  N  N52  1  0.57522611  0.52927553  0.36194292  1
  N  N53  1  0.43258780  0.41739419  0.07043940  1
  N  N54  1  0.20193394  0.55233935  0.89304797  1
  N  N55  1  0.13830953  0.42021035  0.64704225  1
  N  N56  1  0.90324324  0.53263918  0.36378222  1
  N  N57  1  0.80360329  0.42149996  0.12716696  1
  N  N58  1  0.49073616  0.56944389  0.82870364  1
  N  N59  1  0.45127534  0.41870585  0.58043382  1
  N  N60  1  0.24080819  0.86039299  0.34779051  1
  N  N61  1  0.12012710  0.75404455  0.13818208  1
  N  N62  1  0.91114623  0.84374046  0.89481244  1
  N  N63  1  0.75852796  0.77020282  0.66541149  1
  N  N64  1  0.57923791  0.83677866  0.33163853  1
  N  N65  1  0.41011667  0.77266759  0.05971311  1
  N  N66  1  0.20632624  0.89151738  0.82997711  1
  N  N67  1  0.13943278  0.74029732  0.64190184  1
  N  N68  1  0.89440627  0.87263331  0.35675863  1
  N  N69  1  0.82034715  0.73931271  0.13027991  1
  N  N70  1  0.54261737  0.88059462  0.85869214  1
  N  N71  1  0.44617502  0.76534788  0.59244946  1
