# generated using pymatgen
data_Gd2Al7N9
_symmetry_space_group_name_H-M   'P 1'
_cell_length_a   10.01013450
_cell_length_b   9.86624324
_cell_length_c   10.44820767
_cell_angle_alpha   90.19057856
_cell_angle_beta   90.56906825
_cell_angle_gamma   60.67508064
_symmetry_Int_Tables_number   1
_chemical_formula_structural   Gd2Al7N9
_chemical_formula_sum   'Gd8 Al28 N36'
_cell_volume   899.61432658
_cell_formula_units_Z   4
loop_
 _symmetry_equiv_pos_site_id
 _symmetry_equiv_pos_as_xyz
  1  'x, y, z'
loop_
 _atom_site_type_symbol
 _atom_site_label
 _atom_site_symmetry_multiplicity
 _atom_site_fract_x
 _atom_site_fract_y
 _atom_site_fract_z
 _atom_site_occupancy
  Al  Al0  1  0.12628039  0.08667793  0.39789262  1
  Al  Al1  1  0.21317685  0.21449212  0.15075272  1
  Al  Al2  1  0.53535602  0.22214404  0.14848569  1
  Al  Al3  1  0.11395409  0.09410762  0.90170374  1
  Al  Al4  1  0.22873371  0.19918888  0.65828105  1
  Al  Al5  1  0.78582571  0.08809998  0.31535565  1
  Al  Al6  1  0.90941941  0.19817116  0.15021246  1
  Al  Al7  1  0.41838544  0.11682460  0.90553401  1
  Al  Al8  1  0.52685809  0.22065097  0.67166844  1
  Al  Al9  1  0.12542408  0.41936530  0.40256443  1
  Al  Al10  1  0.22001292  0.53022959  0.15658835  1
  Al  Al11  1  0.45474660  0.42729098  0.41173071  1
  Al  Al12  1  0.11810237  0.42561439  0.90353975  1
  Al  Al13  1  0.23176182  0.52667252  0.65087457  1
  Al  Al14  1  0.79404823  0.42778806  0.33238807  1
  Al  Al15  1  0.90890678  0.53404814  0.08716396  1
  Al  Al16  1  0.40781003  0.44342337  0.90448712  1
  Al  Al17  1  0.52239505  0.55490294  0.66519167  1
  Al  Al18  1  0.11895796  0.75878007  0.33419796  1
  Al  Al19  1  0.21770798  0.88282090  0.15474125  1
  Al  Al20  1  0.78661326  0.75830355  0.85168732  1
  Al  Al21  1  0.46159951  0.75157971  0.41584464  1
  Al  Al22  1  0.11478158  0.75833858  0.82922566  1
  Al  Al23  1  0.23070246  0.87661455  0.64968970  1
  Al  Al24  1  0.80106152  0.74251419  0.32206307  1
  Al  Al25  1  0.91860333  0.84898574  0.08751978  1
  Al  Al26  1  0.41215567  0.77598713  0.90191693  1
  Al  Al27  1  0.53822605  0.88068823  0.68128854  1
  Gd  Gd28  1  0.76582985  0.09573943  0.88116445  1
  Gd  Gd29  1  0.87863850  0.21004329  0.61440844  1
  Gd  Gd30  1  0.45248074  0.08814193  0.40694612  1
  Gd  Gd31  1  0.75807808  0.43532460  0.87941892  1
  Gd  Gd32  1  0.88264392  0.54044227  0.60816857  1
  Gd  Gd33  1  0.53765613  0.54625389  0.15084629  1
  Gd  Gd34  1  0.88072338  0.87553367  0.58583468  1
  Gd  Gd35  1  0.56212930  0.87332858  0.11772037  1
  N  N36  1  0.20365242  0.21516355  0.33169703  1
  N  N37  1  0.11318739  0.09488868  0.09174920  1
  N  N38  1  0.91683779  0.19087445  0.84001612  1
  N  N39  1  0.73647315  0.10804406  0.65429282  1
  N  N40  1  0.56887645  0.22267457  0.32988318  1
  N  N41  1  0.42140093  0.12694879  0.09422039  1
  N  N42  1  0.21149947  0.21056868  0.84567312  1
  N  N43  1  0.14429789  0.08069072  0.57972250  1
  N  N44  1  0.90307681  0.19598585  0.34588205  1
  N  N45  1  0.78431766  0.09014806  0.12482521  1
  N  N46  1  0.50459693  0.23653904  0.85120387  1
  N  N47  1  0.44201913  0.09019046  0.62460564  1
  N  N48  1  0.23430287  0.52894652  0.34448931  1
  N  N49  1  0.12177349  0.42216202  0.09059076  1
  N  N50  1  0.89990769  0.54810503  0.89746639  1
  N  N51  1  0.73313905  0.45238339  0.66132927  1
  N  N52  1  0.56701902  0.53397606  0.36755105  1
  N  N53  1  0.41783131  0.42427907  0.08578411  1
  N  N54  1  0.20921348  0.53713108  0.83705372  1
  N  N55  1  0.14894157  0.40294309  0.58663063  1
  N  N56  1  0.90192486  0.53339442  0.38436394  1
  N  N57  1  0.80479758  0.42065575  0.13685530  1
  N  N58  1  0.49374755  0.56742935  0.85111243  1
  N  N59  1  0.43937188  0.42793431  0.59507202  1
  N  N60  1  0.23868384  0.86946735  0.34351215  1
  N  N61  1  0.12040590  0.75718414  0.14742150  1
  N  N62  1  0.91585269  0.83974734  0.90313166  1
  N  N63  1  0.75008826  0.77757661  0.67505631  1
  N  N64  1  0.58235316  0.83648579  0.34476755  1
  N  N65  1  0.40509835  0.78280349  0.07903709  1
  N  N66  1  0.21355154  0.88764089  0.83671783  1
  N  N67  1  0.13361181  0.75018331  0.64089776  1
  N  N68  1  0.89480862  0.87213974  0.36681329  1
  N  N69  1  0.82306883  0.73736495  0.14195842  1
  N  N70  1  0.54221932  0.88171335  0.87306004  1
  N  N71  1  0.44260089  0.76671752  0.60270703  1
