# generated using pymatgen
data_Gd2Al7N9
_symmetry_space_group_name_H-M   'P 1'
_cell_length_a   10.04518869
_cell_length_b   9.87165236
_cell_length_c   10.36228176
_cell_angle_alpha   90.14814940
_cell_angle_beta   90.72594396
_cell_angle_gamma   60.74305507
_symmetry_Int_Tables_number   1
_chemical_formula_structural   Gd2Al7N9
_chemical_formula_sum   'Gd8 Al28 N36'
_cell_volume   896.39358772
_cell_formula_units_Z   4
loop_
 _symmetry_equiv_pos_site_id
 _symmetry_equiv_pos_as_xyz
  1  'x, y, z'
loop_
 _atom_site_type_symbol
 _atom_site_label
 _atom_site_symmetry_multiplicity
 _atom_site_fract_x
 _atom_site_fract_y
 _atom_site_fract_z
 _atom_site_occupancy
  Al  Al0  1  0.12662419  0.08726230  0.39969402  1
  Al  Al1  1  0.21240447  0.21493406  0.15148574  1
  Al  Al2  1  0.53336799  0.22357009  0.14983622  1
  Al  Al3  1  0.11421033  0.09219553  0.90255249  1
  Al  Al4  1  0.22890045  0.19900190  0.65957502  1
  Al  Al5  1  0.78541264  0.08868566  0.31772176  1
  Al  Al6  1  0.91022266  0.19755674  0.15141460  1
  Al  Al7  1  0.41751432  0.11686890  0.90717630  1
  Al  Al8  1  0.52599229  0.22113760  0.67285602  1
  Al  Al9  1  0.12542467  0.41895605  0.40427462  1
  Al  Al10  1  0.21890575  0.53274607  0.16030457  1
  Al  Al11  1  0.45636198  0.42666972  0.41270133  1
  Al  Al12  1  0.11895144  0.42647504  0.90370672  1
  Al  Al13  1  0.23263165  0.52783350  0.64794206  1
  Al  Al14  1  0.79439794  0.42815627  0.33378721  1
  Al  Al15  1  0.91006717  0.53408040  0.08865277  1
  Al  Al16  1  0.40704712  0.44431135  0.90527180  1
  Al  Al17  1  0.52467513  0.55373161  0.66635635  1
  Al  Al18  1  0.12081263  0.75788618  0.34537364  1
  Al  Al19  1  0.21696971  0.88142344  0.15873380  1
  Al  Al20  1  0.78583767  0.75870274  0.85443219  1
  Al  Al21  1  0.46317934  0.75089580  0.41713650  1
  Al  Al22  1  0.11344426  0.75917201  0.83090052  1
  Al  Al23  1  0.23122457  0.87514598  0.64708961  1
  Al  Al24  1  0.80070997  0.74283012  0.32413772  1
  Al  Al25  1  0.91774416  0.85032001  0.09209966  1
  Al  Al26  1  0.41126292  0.77532864  0.90250533  1
  Al  Al27  1  0.53775298  0.88072859  0.68224562  1
  Gd  Gd28  1  0.76440828  0.09675078  0.88356721  1
  Gd  Gd29  1  0.87855917  0.20945164  0.61429543  1
  Gd  Gd30  1  0.45219406  0.08850417  0.40680031  1
  Gd  Gd31  1  0.76062761  0.43371667  0.88124250  1
  Gd  Gd32  1  0.88456466  0.54013351  0.61205646  1
  Gd  Gd33  1  0.53911807  0.54511355  0.14911450  1
  Gd  Gd34  1  0.87818922  0.87699861  0.58904026  1
  Gd  Gd35  1  0.56054111  0.87289223  0.11922088  1
  N  N36  1  0.20311167  0.21555680  0.33340718  1
  N  N37  1  0.11356206  0.09356512  0.09389377  1
  N  N38  1  0.91703585  0.18936732  0.84218659  1
  N  N39  1  0.73454856  0.11001925  0.65548100  1
  N  N40  1  0.56957386  0.22268271  0.33192856  1
  N  N41  1  0.42075930  0.12670150  0.09739735  1
  N  N42  1  0.21114358  0.21021348  0.84794420  1
  N  N43  1  0.14380645  0.08126882  0.58227315  1
  N  N44  1  0.90323911  0.19606204  0.34827994  1
  N  N45  1  0.78424016  0.09065370  0.12652375  1
  N  N46  1  0.50314453  0.23711615  0.85373554  1
  N  N47  1  0.44132035  0.09052020  0.62581614  1
  N  N48  1  0.23566869  0.52773017  0.34881940  1
  N  N49  1  0.12205677  0.42351289  0.09227167  1
  N  N50  1  0.90157561  0.54744775  0.89647966  1
  N  N51  1  0.73458599  0.45162590  0.66100091  1
  N  N52  1  0.56771745  0.53389127  0.36773341  1
  N  N53  1  0.41532802  0.42604432  0.08814683  1
  N  N54  1  0.20909060  0.53943503  0.83604143  1
  N  N55  1  0.14961469  0.40268271  0.58887845  1
  N  N56  1  0.90269590  0.53331633  0.38561678  1
  N  N57  1  0.80636721  0.41996908  0.13705600  1
  N  N58  1  0.49675556  0.56556870  0.85417064  1
  N  N59  1  0.44072502  0.42783010  0.59682637  1
  N  N60  1  0.24008588  0.86940557  0.34808433  1
  N  N61  1  0.11855582  0.75811763  0.15309400  1
  N  N62  1  0.91525426  0.84065081  0.90430067  1
  N  N63  1  0.74837479  0.77784228  0.67649507  1
  N  N64  1  0.58327878  0.83623115  0.34739826  1
  N  N65  1  0.40280281  0.78294681  0.08117680  1
  N  N66  1  0.21286609  0.88527053  0.83600199  1
  N  N67  1  0.13470640  0.74967696  0.63054279  1
  N  N68  1  0.89353015  0.87271318  0.36912419  1
  N  N69  1  0.82103018  0.73817475  0.14196746  1
  N  N70  1  0.54063301  0.88190918  0.87494701  1
  N  N71  1  0.44348104  0.76593992  0.60475128  1
