# generated using pymatgen
data_Gd2Al7N9
_symmetry_space_group_name_H-M   'P 1'
_cell_length_a   9.90839674
_cell_length_b   9.82263030
_cell_length_c   10.71616611
_cell_angle_alpha   90.21615321
_cell_angle_beta   89.22451930
_cell_angle_gamma   60.17542914
_symmetry_Int_Tables_number   1
_chemical_formula_structural   Gd2Al7N9
_chemical_formula_sum   'Gd8 Al28 N36'
_cell_volume   904.67928147
_cell_formula_units_Z   4
loop_
 _symmetry_equiv_pos_site_id
 _symmetry_equiv_pos_as_xyz
  1  'x, y, z'
loop_
 _atom_site_type_symbol
 _atom_site_label
 _atom_site_symmetry_multiplicity
 _atom_site_fract_x
 _atom_site_fract_y
 _atom_site_fract_z
 _atom_site_occupancy
  Al  Al0  1  0.11758093  0.09047627  0.29725189  1
  Al  Al1  1  0.21125048  0.21447853  0.05423793  1
  Al  Al2  1  0.53911607  0.21917334  0.11666914  1
  Al  Al3  1  0.11405268  0.08930723  0.81551490  1
  Al  Al4  1  0.23158428  0.19909193  0.61210048  1
  Al  Al5  1  0.78684862  0.09319264  0.27668175  1
  Al  Al6  1  0.90677356  0.19905494  0.06380294  1
  Al  Al7  1  0.42794181  0.10931048  0.87375172  1
  Al  Al8  1  0.53335933  0.21864953  0.63846696  1
  Al  Al9  1  0.11604584  0.42558076  0.29816854  1
  Al  Al10  1  0.20995538  0.54283907  0.05345231  1
  Al  Al11  1  0.46135515  0.42473904  0.38095230  1
  Al  Al12  1  0.11642890  0.43307630  0.81549059  1
  Al  Al13  1  0.22975547  0.53420991  0.55794024  1
  Al  Al14  1  0.79767103  0.42157954  0.29120841  1
  Al  Al15  1  0.91105202  0.53306170  0.05740743  1
  Al  Al16  1  0.41804770  0.43982116  0.87150046  1
  Al  Al17  1  0.53229700  0.54729443  0.62913396  1
  Al  Al18  1  0.11954040  0.75976777  0.30300361  1
  Al  Al19  1  0.20382965  0.87985836  0.04839938  1
  Al  Al20  1  0.78832838  0.75544148  0.81869171  1
  Al  Al21  1  0.46683293  0.74897170  0.38852181  1
  Al  Al22  1  0.11760400  0.75416915  0.80688860  1
  Al  Al23  1  0.22990634  0.86914029  0.56223800  1
  Al  Al24  1  0.79695448  0.74895057  0.28794891  1
  Al  Al25  1  0.90946288  0.85584457  0.05631801  1
  Al  Al26  1  0.41986034  0.76918116  0.86978269  1
  Al  Al27  1  0.54266843  0.87511793  0.64897253  1
  Gd  Gd28  1  0.76492545  0.09701463  0.84479918  1
  Gd  Gd29  1  0.88965617  0.20240391  0.54558256  1
  Gd  Gd30  1  0.45015331  0.09401665  0.37796171  1
  Gd  Gd31  1  0.76326221  0.44060555  0.83709919  1
  Gd  Gd32  1  0.89362545  0.53392287  0.55525845  1
  Gd  Gd33  1  0.53814237  0.54112445  0.12715677  1
  Gd  Gd34  1  0.88815746  0.87067460  0.55402795  1
  Gd  Gd35  1  0.55672835  0.87242848  0.09597875  1
  N  N36  1  0.19424226  0.21906160  0.35761241  1
  N  N37  1  0.12145056  0.08820058  0.11519961  1
  N  N38  1  0.91619720  0.19498413  0.88716903  1
  N  N39  1  0.75208067  0.10690901  0.62689812  1
  N  N40  1  0.56382486  0.22826658  0.29270648  1
  N  N41  1  0.43050796  0.12363875  0.05566945  1
  N  N42  1  0.20783321  0.21236376  0.86560790  1
  N  N43  1  0.13620052  0.07751042  0.63644412  1
  N  N44  1  0.89240363  0.20105002  0.32748772  1
  N  N45  1  0.78280402  0.08818047  0.09305455  1
  N  N46  1  0.50169157  0.23657782  0.81077086  1
  N  N47  1  0.44712287  0.08755478  0.59283963  1
  N  N48  1  0.21903126  0.54150971  0.36919908  1
  N  N49  1  0.11881409  0.42474782  0.11590260  1
  N  N50  1  0.90615029  0.54844600  0.87637860  1
  N  N51  1  0.75317604  0.43676791  0.62516535  1
  N  N52  1  0.56771173  0.53469255  0.33782391  1
  N  N53  1  0.43015537  0.41673341  0.04853194  1
  N  N54  1  0.20207837  0.55234328  0.87500469  1
  N  N55  1  0.14262527  0.41658482  0.63660307  1
  N  N56  1  0.89673008  0.53738784  0.34165657  1
  N  N57  1  0.80468719  0.42004873  0.10541446  1
  N  N58  1  0.49745861  0.56475869  0.80694925  1
  N  N59  1  0.45136890  0.41918856  0.55941577  1
  N  N60  1  0.22112784  0.87434066  0.37362472  1
  N  N61  1  0.12061535  0.75754042  0.12013320  1
  N  N62  1  0.90724930  0.84368201  0.87435698  1
  N  N63  1  0.76040704  0.76683387  0.64366392  1
  N  N64  1  0.57463774  0.84163304  0.31290056  1
  N  N65  1  0.41751539  0.76857615  0.04468731  1
  N  N66  1  0.19934879  0.88092787  0.86760799  1
  N  N67  1  0.14297746  0.74400936  0.62635563  1
  N  N68  1  0.88853222  0.87752026  0.33731517  1
  N  N69  1  0.81873325  0.74087708  0.11164130  1
  N  N70  1  0.54098375  0.87864447  0.83449393  1
  N  N71  1  0.45248714  0.76082421  0.57054959  1
