# generated using pymatgen
data_Gd2Al7N9
_symmetry_space_group_name_H-M   'P 1'
_cell_length_a   10.05561564
_cell_length_b   9.85237434
_cell_length_c   10.35501910
_cell_angle_alpha   90.10911438
_cell_angle_beta   90.16025514
_cell_angle_gamma   60.46402446
_symmetry_Int_Tables_number   1
_chemical_formula_structural   Gd2Al7N9
_chemical_formula_sum   'Gd8 Al28 N36'
_cell_volume   892.56751715
_cell_formula_units_Z   4
loop_
 _symmetry_equiv_pos_site_id
 _symmetry_equiv_pos_as_xyz
  1  'x, y, z'
loop_
 _atom_site_type_symbol
 _atom_site_label
 _atom_site_symmetry_multiplicity
 _atom_site_fract_x
 _atom_site_fract_y
 _atom_site_fract_z
 _atom_site_occupancy
  Al  Al0  1  0.11232660  0.09511199  0.30250901  1
  Al  Al1  1  0.22096309  0.21016711  0.05978377  1
  Al  Al2  1  0.53922553  0.21598766  0.13593563  1
  Al  Al3  1  0.12232627  0.08670677  0.81612636  1
  Al  Al4  1  0.21969698  0.20481278  0.56827119  1
  Al  Al5  1  0.79162918  0.08965871  0.28381440  1
  Al  Al6  1  0.90984303  0.20120000  0.06408223  1
  Al  Al7  1  0.41659784  0.10901238  0.80441971  1
  Al  Al8  1  0.53734861  0.22303736  0.62572611  1
  Al  Al9  1  0.10999340  0.42728775  0.30124050  1
  Al  Al10  1  0.21335508  0.54032899  0.06599397  1
  Al  Al11  1  0.44082569  0.43119142  0.33195335  1
  Al  Al12  1  0.12377694  0.42512097  0.81572291  1
  Al  Al13  1  0.23220428  0.53530082  0.55608012  1
  Al  Al14  1  0.78940252  0.42597200  0.29096443  1
  Al  Al15  1  0.91103148  0.53107645  0.05735590  1
  Al  Al16  1  0.41264297  0.44817395  0.82545311  1
  Al  Al17  1  0.55082824  0.54363989  0.54210603  1
  Al  Al18  1  0.11517379  0.76078597  0.30289891  1
  Al  Al19  1  0.21161396  0.87820434  0.05939987  1
  Al  Al20  1  0.79707990  0.75113493  0.81735847  1
  Al  Al21  1  0.44123893  0.76385468  0.30936070  1
  Al  Al22  1  0.12004945  0.75508766  0.81362680  1
  Al  Al23  1  0.23446013  0.86564304  0.56222816  1
  Al  Al24  1  0.79172686  0.75083636  0.28572821  1
  Al  Al25  1  0.90813226  0.85599452  0.05875786  1
  Al  Al26  1  0.42182879  0.76115687  0.80441271  1
  Al  Al27  1  0.55006562  0.86917563  0.63396592  1
  Gd  Gd28  1  0.75950176  0.10039893  0.85182936  1
  Gd  Gd29  1  0.89390617  0.19753966  0.54915692  1
  Gd  Gd30  1  0.45008914  0.08757628  0.35619298  1
  Gd  Gd31  1  0.76856897  0.43710486  0.82073183  1
  Gd  Gd32  1  0.90189703  0.53417613  0.55252739  1
  Gd  Gd33  1  0.54350160  0.53786783  0.08293045  1
  Gd  Gd34  1  0.89008661  0.87249718  0.55976136  1
  Gd  Gd35  1  0.55217472  0.87712610  0.06723937  1
  N  N36  1  0.18212449  0.22549392  0.38383103  1
  N  N37  1  0.11900231  0.09294703  0.11700226  1
  N  N38  1  0.92133193  0.19099801  0.87816702  1
  N  N39  1  0.74908400  0.10962760  0.62628779  1
  N  N40  1  0.58234056  0.21146879  0.31812475  1
  N  N41  1  0.42180197  0.12144231  0.12089394  1
  N  N42  1  0.21794905  0.20641997  0.87247996  1
  N  N43  1  0.14186381  0.07577820  0.63256897  1
  N  N44  1  0.89346345  0.20216994  0.32799701  1
  N  N45  1  0.77830438  0.09258248  0.09354201  1
  N  N46  1  0.50173380  0.23762067  0.81167977  1
  N  N47  1  0.43839364  0.09189342  0.60390701  1
  N  N48  1  0.21082645  0.54386651  0.36784047  1
  N  N49  1  0.11558501  0.42356196  0.11583616  1
  N  N50  1  0.91360185  0.54194569  0.86880412  1
  N  N51  1  0.75240716  0.44092101  0.60328057  1
  N  N52  1  0.55923915  0.54084361  0.34888148  1
  N  N53  1  0.41005498  0.42930696  0.13546014  1
  N  N54  1  0.21273189  0.54557311  0.87940721  1
  N  N55  1  0.14913996  0.41213526  0.63293963  1
  N  N56  1  0.89484589  0.53749811  0.33639671  1
  N  N57  1  0.80606192  0.41889871  0.10299137  1
  N  N58  1  0.51380876  0.55540626  0.86360622  1
  N  N59  1  0.44510545  0.43072097  0.57006491  1
  N  N60  1  0.22048259  0.87569636  0.37327793  1
  N  N61  1  0.11422588  0.76172750  0.11682458  1
  N  N62  1  0.91188226  0.84495758  0.86924811  1
  N  N63  1  0.76044554  0.76681964  0.63804509  1
  N  N64  1  0.58300779  0.83664209  0.32144657  1
  N  N65  1  0.40351839  0.78321045  0.13067504  1
  N  N66  1  0.21947609  0.87213143  0.87248385  1
  N  N67  1  0.14375675  0.74438267  0.62830861  1
  N  N68  1  0.89384631  0.87257593  0.33695341  1
  N  N69  1  0.81162863  0.74357485  0.10351233  1
  N  N70  1  0.54148243  0.87859556  0.83165505  1
  N  N71  1  0.44408550  0.75526582  0.61505248  1
