# generated using pymatgen
data_Gd2Al7N9
_symmetry_space_group_name_H-M   'P 1'
_cell_length_a   10.01013408
_cell_length_b   9.86624354
_cell_length_c   10.44822101
_cell_angle_alpha   90.19062068
_cell_angle_beta   90.56898763
_cell_angle_gamma   60.67495921
_symmetry_Int_Tables_number   1
_chemical_formula_structural   Gd2Al7N9
_chemical_formula_sum   'Gd8 Al28 N36'
_cell_volume   899.61440934
_cell_formula_units_Z   4
loop_
 _symmetry_equiv_pos_site_id
 _symmetry_equiv_pos_as_xyz
  1  'x, y, z'
loop_
 _atom_site_type_symbol
 _atom_site_label
 _atom_site_symmetry_multiplicity
 _atom_site_fract_x
 _atom_site_fract_y
 _atom_site_fract_z
 _atom_site_occupancy
  Al  Al0  1  0.12632512  0.08663807  0.39506853  1
  Al  Al1  1  0.21322187  0.21445020  0.14792509  1
  Al  Al2  1  0.53540213  0.22210251  0.14566217  1
  Al  Al3  1  0.11400061  0.09406593  0.89887418  1
  Al  Al4  1  0.22878134  0.19914740  0.65545209  1
  Al  Al5  1  0.78587319  0.08805861  0.31252958  1
  Al  Al6  1  0.90946498  0.19813049  0.14738241  1
  Al  Al7  1  0.41843127  0.11678269  0.90271095  1
  Al  Al8  1  0.52690431  0.22060855  0.66884690  1
  Al  Al9  1  0.12546922  0.41932370  0.39973489  1
  Al  Al10  1  0.22005868  0.53018833  0.15376351  1
  Al  Al11  1  0.45479378  0.42724826  0.40890521  1
  Al  Al12  1  0.11814926  0.42557306  0.90071250  1
  Al  Al13  1  0.23180879  0.52662993  0.64804283  1
  Al  Al14  1  0.79409436  0.42774610  0.32956340  1
  Al  Al15  1  0.90895215  0.53400778  0.08433355  1
  Al  Al16  1  0.40785443  0.44338336  0.90166207  1
  Al  Al17  1  0.52244096  0.55486115  0.66236253  1
  Al  Al18  1  0.11900324  0.75873891  0.33137230  1
  Al  Al19  1  0.21775439  0.88277995  0.15191723  1
  Al  Al20  1  0.78665827  0.75826323  0.84885720  1
  Al  Al21  1  0.46164489  0.75153869  0.41301537  1
  Al  Al22  1  0.11482769  0.75829662  0.82639339  1
  Al  Al23  1  0.23074910  0.87657254  0.64685920  1
  Al  Al24  1  0.80110738  0.74247252  0.31923863  1
  Al  Al25  1  0.91865072  0.84894257  0.08469267  1
  Al  Al26  1  0.41220061  0.77594634  0.89908720  1
  Al  Al27  1  0.53827193  0.88064649  0.67845759  1
  Gd  Gd28  1  0.76587581  0.09569837  0.87834114  1
  Gd  Gd29  1  0.87868416  0.21000116  0.61158522  1
  Gd  Gd30  1  0.45252590  0.08810153  0.40411874  1
  Gd  Gd31  1  0.75812137  0.43528580  0.87659232  1
  Gd  Gd32  1  0.88269286  0.54039812  0.60534340  1
  Gd  Gd33  1  0.53770159  0.54621325  0.14802066  1
  Gd  Gd34  1  0.88076821  0.87549348  0.58300821  1
  Gd  Gd35  1  0.56217655  0.87328511  0.11489365  1
  N  N36  1  0.20369747  0.21512184  0.32886908  1
  N  N37  1  0.11323393  0.09484658  0.08892093  1
  N  N38  1  0.91688223  0.19083512  0.83719169  1
  N  N39  1  0.73651947  0.10800218  0.65147124  1
  N  N40  1  0.56892358  0.22263251  0.32705842  1
  N  N41  1  0.42144780  0.12690617  0.09139647  1
  N  N42  1  0.21154645  0.21052702  0.84284523  1
  N  N43  1  0.14434355  0.08065042  0.57689697  1
  N  N44  1  0.90312317  0.19594461  0.34305511  1
  N  N45  1  0.78436398  0.09010645  0.12199933  1
  N  N46  1  0.50464223  0.23649743  0.84838133  1
  N  N47  1  0.44206663  0.09014893  0.62177774  1
  N  N48  1  0.23434894  0.52890483  0.34166346  1
  N  N49  1  0.12181952  0.42212093  0.08776365  1
  N  N50  1  0.89995353  0.54806430  0.89463743  1
  N  N51  1  0.73318516  0.45234203  0.65850282  1
  N  N52  1  0.56706480  0.53393426  0.36472487  1
  N  N53  1  0.41787737  0.42423761  0.08295926  1
  N  N54  1  0.20925956  0.53708919  0.83422339  1
  N  N55  1  0.14898967  0.40289999  0.58380068  1
  N  N56  1  0.90196999  0.53335305  0.38153931  1
  N  N57  1  0.80484312  0.42061561  0.13402834  1
  N  N58  1  0.49379163  0.56738837  0.84828340  1
  N  N59  1  0.43941997  0.42789047  0.59224575  1
  N  N60  1  0.23872949  0.86942647  0.34068709  1
  N  N61  1  0.12045224  0.75714288  0.14459671  1
  N  N62  1  0.91589927  0.83970499  0.90030366  1
  N  N63  1  0.75013425  0.77753423  0.67222649  1
  N  N64  1  0.58239834  0.83644477  0.34194021  1
  N  N65  1  0.40514348  0.78276234  0.07620830  1
  N  N66  1  0.21359682  0.88759957  0.83388684  1
  N  N67  1  0.13365850  0.75014114  0.63806623  1
  N  N68  1  0.89485396  0.87209889  0.36398777  1
  N  N69  1  0.82311642  0.73732265  0.13913368  1
  N  N70  1  0.54226563  0.88167162  0.87023133  1
  N  N71  1  0.44264731  0.76667568  0.59987744  1
