# generated using pymatgen
data_Gd2Al7N9
_symmetry_space_group_name_H-M   'P 1'
_cell_length_a   9.95659098
_cell_length_b   9.85185058
_cell_length_c   10.29157895
_cell_angle_alpha   90.05317716
_cell_angle_beta   89.86877660
_cell_angle_gamma   60.51397670
_symmetry_Int_Tables_number   1
_chemical_formula_structural   Gd2Al7N9
_chemical_formula_sum   'Gd8 Al28 N36'
_cell_volume   878.74899424
_cell_formula_units_Z   4
loop_
 _symmetry_equiv_pos_site_id
 _symmetry_equiv_pos_as_xyz
  1  'x, y, z'
loop_
 _atom_site_type_symbol
 _atom_site_label
 _atom_site_symmetry_multiplicity
 _atom_site_fract_x
 _atom_site_fract_y
 _atom_site_fract_z
 _atom_site_occupancy
  Al  Al0  1  0.12259471  0.08947979  0.39675687  1
  Al  Al1  1  0.21403198  0.21359766  0.14522390  1
  Al  Al2  1  0.53421620  0.22325997  0.15448171  1
  Al  Al3  1  0.11426583  0.09057898  0.90691255  1
  Al  Al4  1  0.23125512  0.19878088  0.66140979  1
  Al  Al5  1  0.76663109  0.10588006  0.38002916  1
  Al  Al6  1  0.90162940  0.20242027  0.17304500  1
  Al  Al7  1  0.42923678  0.11199514  0.89249131  1
  Al  Al8  1  0.53914289  0.21735613  0.65816564  1
  Al  Al9  1  0.12457680  0.42090057  0.39702233  1
  Al  Al10  1  0.21666221  0.53953568  0.14951597  1
  Al  Al11  1  0.43947705  0.43387553  0.41324857  1
  Al  Al12  1  0.11278116  0.43223187  0.90801490  1
  Al  Al13  1  0.23359143  0.53354789  0.65160713  1
  Al  Al14  1  0.76966313  0.43339381  0.40526611  1
  Al  Al15  1  0.90788571  0.52940670  0.16791474  1
  Al  Al16  1  0.42248891  0.43846820  0.89675250  1
  Al  Al17  1  0.53766776  0.54694636  0.64915913  1
  Al  Al18  1  0.12910842  0.75268024  0.39881524  1
  Al  Al19  1  0.21434760  0.87674266  0.15041375  1
  Al  Al20  1  0.79697497  0.75149958  0.90836996  1
  Al  Al21  1  0.44473391  0.76077798  0.41631014  1
  Al  Al22  1  0.11183529  0.75845462  0.90345417  1
  Al  Al23  1  0.23267037  0.86802693  0.65025676  1
  Al  Al24  1  0.77291495  0.75704079  0.39364474  1
  Al  Al25  1  0.90447053  0.86200191  0.17022285  1
  Al  Al26  1  0.42378910  0.76608538  0.89320608  1
  Al  Al27  1  0.55068198  0.87133570  0.66693745  1
  Gd  Gd28  1  0.77047666  0.09107667  0.92081431  1
  Gd  Gd29  1  0.89342352  0.19591490  0.62779281  1
  Gd  Gd30  1  0.44425029  0.09395445  0.41499772  1
  Gd  Gd31  1  0.77249054  0.43497032  0.90493218  1
  Gd  Gd32  1  0.90094112  0.53769365  0.63261824  1
  Gd  Gd33  1  0.54408121  0.54131804  0.16055722  1
  Gd  Gd34  1  0.88781509  0.87438557  0.62599109  1
  Gd  Gd35  1  0.55636843  0.87460173  0.12591509  1
  N  N36  1  0.20219195  0.21559638  0.32862383  1
  N  N37  1  0.10905606  0.09384436  0.09754479  1
  N  N38  1  0.91078927  0.18969243  0.84686275  1
  N  N39  1  0.72861000  0.11708922  0.56874075  1
  N  N40  1  0.55171425  0.23372658  0.33432472  1
  N  N41  1  0.42438462  0.12796140  0.08450417  1
  N  N42  1  0.21145376  0.21141774  0.84986196  1
  N  N43  1  0.15295872  0.07588633  0.58015110  1
  N  N44  1  0.89650003  0.20408076  0.36391354  1
  N  N45  1  0.77996506  0.09326176  0.14247712  1
  N  N46  1  0.52739042  0.22773819  0.84083022  1
  N  N47  1  0.44486976  0.08919631  0.63578164  1
  N  N48  1  0.22716580  0.53777997  0.33800517  1
  N  N49  1  0.11140489  0.42930568  0.09630671  1
  N  N50  1  0.90651210  0.54677040  0.85115691  1
  N  N51  1  0.74646831  0.44423462  0.59398577  1
  N  N52  1  0.54769671  0.54419613  0.37608894  1
  N  N53  1  0.42175385  0.42418997  0.08105743  1
  N  N54  1  0.21324082  0.54387247  0.84131257  1
  N  N55  1  0.15872336  0.39998721  0.58050919  1
  N  N56  1  0.89893175  0.53373933  0.36223412  1
  N  N57  1  0.80397410  0.41610763  0.12684056  1
  N  N58  1  0.51931702  0.55460672  0.83789328  1
  N  N59  1  0.44014704  0.42824237  0.59776346  1
  N  N60  1  0.22919891  0.86976668  0.33970453  1
  N  N61  1  0.11106211  0.76258426  0.09719148  1
  N  N62  1  0.90298487  0.85052037  0.84863252  1
  N  N63  1  0.73957502  0.77880851  0.57691750  1
  N  N64  1  0.56333144  0.84476787  0.34342034  1
  N  N65  1  0.40840901  0.77481322  0.07353564  1
  N  N66  1  0.21203770  0.87823814  0.83854004  1
  N  N67  1  0.14930787  0.74204556  0.58240510  1
  N  N68  1  0.89821963  0.86574512  0.35972208  1
  N  N69  1  0.81645883  0.74090494  0.10711795  1
  N  N70  1  0.56322953  0.86602218  0.86093520  1
  N  N71  1  0.44338809  0.76570344  0.60469264  1
