# generated using pymatgen
data_Gd2Al7N9
_symmetry_space_group_name_H-M   'P 1'
_cell_length_a   9.97597386
_cell_length_b   9.84494850
_cell_length_c   10.33841925
_cell_angle_alpha   90.06895441
_cell_angle_beta   89.95189123
_cell_angle_gamma   60.25483990
_symmetry_Int_Tables_number   1
_chemical_formula_structural   Gd2Al7N9
_chemical_formula_sum   'Gd8 Al28 N36'
_cell_volume   881.58082646
_cell_formula_units_Z   4
loop_
 _symmetry_equiv_pos_site_id
 _symmetry_equiv_pos_as_xyz
  1  'x, y, z'
loop_
 _atom_site_type_symbol
 _atom_site_label
 _atom_site_symmetry_multiplicity
 _atom_site_fract_x
 _atom_site_fract_y
 _atom_site_fract_z
 _atom_site_occupancy
  Al  Al0  1  0.10711584  0.09531286  0.30049967  1
  Al  Al1  1  0.21790470  0.20958910  0.05569916  1
  Al  Al2  1  0.52621265  0.21760144  0.05849946  1
  Al  Al3  1  0.12743287  0.08558770  0.81768725  1
  Al  Al4  1  0.22427686  0.20549541  0.57104970  1
  Al  Al5  1  0.77132371  0.09942503  0.28594196  1
  Al  Al6  1  0.90344088  0.20201170  0.06935009  1
  Al  Al7  1  0.42881310  0.11125015  0.80281961  1
  Al  Al8  1  0.55559746  0.21594287  0.55973813  1
  Al  Al9  1  0.10648765  0.42878291  0.30137990  1
  Al  Al10  1  0.21636492  0.53636334  0.06135054  1
  Al  Al11  1  0.43715972  0.42793986  0.31713764  1
  Al  Al12  1  0.12547410  0.42664130  0.81668450  1
  Al  Al13  1  0.23422870  0.53438157  0.56325216  1
  Al  Al14  1  0.78088508  0.42996460  0.29081216  1
  Al  Al15  1  0.90700399  0.53433243  0.05938584  1
  Al  Al16  1  0.42622065  0.43851818  0.80311136  1
  Al  Al17  1  0.54873910  0.54171641  0.54926583  1
  Al  Al18  1  0.11273388  0.76166447  0.30225486  1
  Al  Al19  1  0.21346652  0.87674640  0.06057401  1
  Al  Al20  1  0.79497592  0.75398082  0.81442530  1
  Al  Al21  1  0.43984704  0.76175487  0.31673840  1
  Al  Al22  1  0.12537539  0.75193795  0.81656595  1
  Al  Al23  1  0.23379704  0.86725913  0.56316655  1
  Al  Al24  1  0.78235688  0.75524573  0.29083380  1
  Al  Al25  1  0.90235028  0.85915549  0.06251792  1
  Al  Al26  1  0.42871256  0.76189730  0.79866393  1
  Al  Al27  1  0.55269608  0.87292525  0.61285794  1
  Gd  Gd28  1  0.77091201  0.09560575  0.83872895  1
  Gd  Gd29  1  0.90179033  0.19717110  0.54167401  1
  Gd  Gd30  1  0.43666950  0.09497011  0.33438286  1
  Gd  Gd31  1  0.77603368  0.43305647  0.82017310  1
  Gd  Gd32  1  0.90182618  0.53449710  0.55041695  1
  Gd  Gd33  1  0.53840025  0.53731299  0.07418474  1
  Gd  Gd34  1  0.89630256  0.87017566  0.55468426  1
  Gd  Gd35  1  0.55058346  0.87207651  0.05442591  1
  N  N36  1  0.17416678  0.22741440  0.38652643  1
  N  N37  1  0.11841254  0.09225605  0.11695521  1
  N  N38  1  0.92635586  0.18858582  0.88448459  1
  N  N39  1  0.75605690  0.10952998  0.62194813  1
  N  N40  1  0.57302825  0.21776543  0.37385614  1
  N  N41  1  0.42315925  0.11570778  0.11483045  1
  N  N42  1  0.22286913  0.20607626  0.86939795  1
  N  N43  1  0.14581160  0.07582390  0.63420244  1
  N  N44  1  0.88496195  0.20496578  0.32009225  1
  N  N45  1  0.76415213  0.09876005  0.09592256  1
  N  N46  1  0.51142000  0.23208523  0.87338018  1
  N  N47  1  0.44439458  0.10077842  0.60671725  1
  N  N48  1  0.21361422  0.54173457  0.37283728  1
  N  N49  1  0.11524112  0.42322450  0.11556691  1
  N  N50  1  0.91374046  0.54523645  0.87126195  1
  N  N51  1  0.75486893  0.43788028  0.60179820  1
  N  N52  1  0.55112751  0.53805155  0.35452921  1
  N  N53  1  0.41563111  0.41569158  0.13630444  1
  N  N54  1  0.22402629  0.54011668  0.87549795  1
  N  N55  1  0.14729865  0.41372007  0.63392019  1
  N  N56  1  0.89026628  0.53896128  0.33435137  1
  N  N57  1  0.79912009  0.42350026  0.10274534  1
  N  N58  1  0.51964821  0.55581196  0.85763897  1
  N  N59  1  0.44504254  0.43068810  0.61281942  1
  N  N60  1  0.21253213  0.87898540  0.37457750  1
  N  N61  1  0.11543637  0.75845682  0.11643950  1
  N  N62  1  0.91457322  0.84184881  0.87377854  1
  N  N63  1  0.76460236  0.76807470  0.63468399  1
  N  N64  1  0.57715709  0.83862952  0.35074135  1
  N  N65  1  0.40664326  0.78081614  0.13722373  1
  N  N66  1  0.22596820  0.87040667  0.87391284  1
  N  N67  1  0.14583012  0.74512428  0.63059360  1
  N  N68  1  0.88738002  0.87636085  0.33335470  1
  N  N69  1  0.80363274  0.74698745  0.10856597  1
  N  N70  1  0.54771054  0.87794834  0.82724017  1
  N  N71  1  0.44527641  0.75753485  0.61082776  1
