# generated using pymatgen
data_Gd2Al7N9
_symmetry_space_group_name_H-M   'P 1'
_cell_length_a   10.01266005
_cell_length_b   9.83881719
_cell_length_c   10.52116184
_cell_angle_alpha   90.03348488
_cell_angle_beta   89.96357363
_cell_angle_gamma   60.27627750
_symmetry_Int_Tables_number   1
_chemical_formula_structural   Gd2Al7N9
_chemical_formula_sum   'Gd8 Al28 N36'
_cell_volume   900.09575080
_cell_formula_units_Z   4
loop_
 _symmetry_equiv_pos_site_id
 _symmetry_equiv_pos_as_xyz
  1  'x, y, z'
loop_
 _atom_site_type_symbol
 _atom_site_label
 _atom_site_symmetry_multiplicity
 _atom_site_fract_x
 _atom_site_fract_y
 _atom_site_fract_z
 _atom_site_occupancy
  Al  Al0  1  0.11628594  0.09054209  0.30340153  1
  Al  Al1  1  0.21170687  0.21264564  0.05779631  1
  Al  Al2  1  0.53988936  0.21753684  0.11922989  1
  Al  Al3  1  0.11781483  0.09146917  0.80884844  1
  Al  Al4  1  0.22106696  0.20452996  0.56466215  1
  Al  Al5  1  0.78992532  0.09262672  0.27779695  1
  Al  Al6  1  0.91217914  0.19599370  0.06216146  1
  Al  Al7  1  0.42261837  0.11193746  0.87637041  1
  Al  Al8  1  0.52520075  0.21986725  0.63454369  1
  Al  Al9  1  0.11482472  0.42676685  0.30443313  1
  Al  Al10  1  0.20870881  0.54188164  0.05555895  1
  Al  Al11  1  0.46161135  0.42608735  0.37894468  1
  Al  Al12  1  0.12201865  0.42641318  0.80863218  1
  Al  Al13  1  0.22781893  0.53640325  0.55576769  1
  Al  Al14  1  0.79685567  0.42295085  0.28806875  1
  Al  Al15  1  0.91867669  0.52953923  0.05537782  1
  Al  Al16  1  0.41488156  0.43683283  0.87291023  1
  Al  Al17  1  0.52927002  0.54867022  0.63610553  1
  Al  Al18  1  0.12180279  0.75834330  0.30237149  1
  Al  Al19  1  0.20598557  0.88082157  0.04883110  1
  Al  Al20  1  0.79275655  0.75546393  0.81746802  1
  Al  Al21  1  0.46334873  0.74907278  0.37840592  1
  Al  Al22  1  0.11744208  0.75547366  0.80558058  1
  Al  Al23  1  0.22949462  0.87040900  0.56312979  1
  Al  Al24  1  0.80040014  0.74651197  0.28612297  1
  Al  Al25  1  0.91309480  0.85581943  0.05520704  1
  Al  Al26  1  0.41938737  0.76909436  0.86697639  1
  Al  Al27  1  0.53694736  0.88271429  0.64798147  1
  Gd  Gd28  1  0.76004540  0.10057390  0.84549018  1
  Gd  Gd29  1  0.87988358  0.20819483  0.54962059  1
  Gd  Gd30  1  0.45612365  0.08687452  0.36281985  1
  Gd  Gd31  1  0.77007503  0.43747731  0.83995949  1
  Gd  Gd32  1  0.88555382  0.54019437  0.55900110  1
  Gd  Gd33  1  0.54465827  0.53488272  0.11181635  1
  Gd  Gd34  1  0.88403558  0.87523008  0.55672939  1
  Gd  Gd35  1  0.56703617  0.86425995  0.08313812  1
  N  N36  1  0.19111869  0.22018386  0.37654355  1
  N  N37  1  0.12244519  0.08811336  0.11960766  1
  N  N38  1  0.92126539  0.18863939  0.88130409  1
  N  N39  1  0.74235391  0.11180907  0.62536672  1
  N  N40  1  0.57058348  0.22506713  0.29720497  1
  N  N41  1  0.42994405  0.11956399  0.06834323  1
  N  N42  1  0.20653955  0.21281521  0.87324390  1
  N  N43  1  0.13291621  0.08339632  0.62691742  1
  N  N44  1  0.89363091  0.20205900  0.32817470  1
  N  N45  1  0.78290940  0.08951939  0.09155897  1
  N  N46  1  0.49697512  0.23530624  0.81118102  1
  N  N47  1  0.44162354  0.09056054  0.58011559  1
  N  N48  1  0.22085205  0.54037143  0.36609366  1
  N  N49  1  0.12147885  0.42114318  0.12079272  1
  N  N50  1  0.91300570  0.54640562  0.87018883  1
  N  N51  1  0.74612083  0.44244244  0.62587567  1
  N  N52  1  0.56572048  0.53518994  0.32771798  1
  N  N53  1  0.42418542  0.41466375  0.05317832  1
  N  N54  1  0.20158551  0.55129429  0.87228893  1
  N  N55  1  0.14119279  0.41516839  0.62686353  1
  N  N56  1  0.89763495  0.53543600  0.34203766  1
  N  N57  1  0.81081008  0.41770914  0.09914564  1
  N  N58  1  0.50483500  0.55686724  0.82029498  1
  N  N59  1  0.44754718  0.42522433  0.56129511  1
  N  N60  1  0.22670371  0.87157043  0.37093106  1
  N  N61  1  0.12152128  0.75842686  0.11757527  1
  N  N62  1  0.90913842  0.84684535  0.86995151  1
  N  N63  1  0.75264941  0.77448051  0.64196936  1
  N  N64  1  0.58123557  0.83439661  0.30785564  1
  N  N65  1  0.41582965  0.77111482  0.04753840  1
  N  N66  1  0.20223819  0.88141426  0.86332626  1
  N  N67  1  0.14002625  0.74626836  0.62297593  1
  N  N68  1  0.89263132  0.87544500  0.33643207  1
  N  N69  1  0.82666485  0.73699947  0.10775223  1
  N  N70  1  0.54091703  0.88218946  0.83815425  1
  N  N71  1  0.44704482  0.76285022  0.58154102  1
