# generated using pymatgen
data_Gd2Al7N9
_symmetry_space_group_name_H-M   'P 1'
_cell_length_a   9.88380082
_cell_length_b   9.82679605
_cell_length_c   10.79844785
_cell_angle_alpha   90.02515535
_cell_angle_beta   89.43959778
_cell_angle_gamma   60.12807678
_symmetry_Int_Tables_number   1
_chemical_formula_structural   Gd2Al7N9
_chemical_formula_sum   'Gd8 Al28 N36'
_cell_volume   909.40643856
_cell_formula_units_Z   4
loop_
 _symmetry_equiv_pos_site_id
 _symmetry_equiv_pos_as_xyz
  1  'x, y, z'
loop_
 _atom_site_type_symbol
 _atom_site_label
 _atom_site_symmetry_multiplicity
 _atom_site_fract_x
 _atom_site_fract_y
 _atom_site_fract_z
 _atom_site_occupancy
  Al  Al0  1  0.11818346  0.08012682  0.31413436  1
  Al  Al1  1  0.22086975  0.20948347  0.14207412  1
  Al  Al2  1  0.54019816  0.21782677  0.13710224  1
  Al  Al3  1  0.10757390  0.09307167  0.83862448  1
  Al  Al4  1  0.23081554  0.19861203  0.66530803  1
  Al  Al5  1  0.78890213  0.08955004  0.29640429  1
  Al  Al6  1  0.90519107  0.19980473  0.08575778  1
  Al  Al7  1  0.41767111  0.11606786  0.89904906  1
  Al  Al8  1  0.52838101  0.21934930  0.66078732  1
  Al  Al9  1  0.11659990  0.43403357  0.31637792  1
  Al  Al10  1  0.21075092  0.54269663  0.07017418  1
  Al  Al11  1  0.46484237  0.42152446  0.40344988  1
  Al  Al12  1  0.11376399  0.43770737  0.83089674  1
  Al  Al13  1  0.22881522  0.53583601  0.57673680  1
  Al  Al14  1  0.80211243  0.41946010  0.31052398  1
  Al  Al15  1  0.91291213  0.53236758  0.07556123  1
  Al  Al16  1  0.41817159  0.44031219  0.89146406  1
  Al  Al17  1  0.52793563  0.55120179  0.65134751  1
  Al  Al18  1  0.12270441  0.75651437  0.32080586  1
  Al  Al19  1  0.20452942  0.87786644  0.06743526  1
  Al  Al20  1  0.78683365  0.75788602  0.83928595  1
  Al  Al21  1  0.47149199  0.74536509  0.40939080  1
  Al  Al22  1  0.11827171  0.75560111  0.82488651  1
  Al  Al23  1  0.22738342  0.87319906  0.57721286  1
  Al  Al24  1  0.80066696  0.74613112  0.30749322  1
  Al  Al25  1  0.90998281  0.85519258  0.07530043  1
  Al  Al26  1  0.41882310  0.77176758  0.89040101  1
  Al  Al27  1  0.53975214  0.87891423  0.67097839  1
  Gd  Gd28  1  0.76396803  0.09808576  0.86262285  1
  Gd  Gd29  1  0.87657560  0.20986737  0.56448676  1
  Gd  Gd30  1  0.45125802  0.09070555  0.40124574  1
  Gd  Gd31  1  0.75856299  0.44508632  0.85990325  1
  Gd  Gd32  1  0.88744224  0.53800543  0.57808683  1
  Gd  Gd33  1  0.53659846  0.54123777  0.15121081  1
  Gd  Gd34  1  0.88780347  0.87143009  0.57437787  1
  Gd  Gd35  1  0.55799926  0.87168915  0.11580861  1
  N  N36  1  0.21022028  0.21039044  0.32396253  1
  N  N37  1  0.11928500  0.08243646  0.13403834  1
  N  N38  1  0.91164392  0.19937778  0.91138646  1
  N  N39  1  0.74776104  0.10619395  0.64784817  1
  N  N40  1  0.56492123  0.22489136  0.31429988  1
  N  N41  1  0.42495396  0.12598426  0.07734772  1
  N  N42  1  0.21118413  0.21047213  0.84609150  1
  N  N43  1  0.12544582  0.08250537  0.64386217  1
  N  N44  1  0.89593008  0.19799519  0.34675469  1
  N  N45  1  0.78130227  0.08701019  0.11468798  1
  N  N46  1  0.49982770  0.23686639  0.83297130  1
  N  N47  1  0.44108656  0.09067974  0.61264973  1
  N  N48  1  0.22335892  0.53987948  0.38849466  1
  N  N49  1  0.11775971  0.43179832  0.13599082  1
  N  N50  1  0.90562499  0.54972095  0.89625143  1
  N  N51  1  0.74907388  0.44026028  0.65115708  1
  N  N52  1  0.57380544  0.52995996  0.36100115  1
  N  N53  1  0.43243855  0.41567252  0.06759440  1
  N  N54  1  0.20178560  0.55327430  0.89320296  1
  N  N55  1  0.13807020  0.42279551  0.65072647  1
  N  N56  1  0.90169419  0.53355249  0.36480433  1
  N  N57  1  0.80446874  0.42141099  0.12781223  1
  N  N58  1  0.49227218  0.56928504  0.82661266  1
  N  N59  1  0.45136428  0.41953676  0.58048064  1
  N  N60  1  0.22765016  0.86832242  0.38886529  1
  N  N61  1  0.12228098  0.75529931  0.13892842  1
  N  N62  1  0.90741515  0.84470585  0.89491328  1
  N  N63  1  0.75820631  0.77058453  0.66565678  1
  N  N64  1  0.57836861  0.83940761  0.33299922  1
  N  N65  1  0.41945530  0.76661390  0.06422635  1
  N  N66  1  0.19760105  0.88367954  0.88763777  1
  N  N67  1  0.14360089  0.74567336  0.64463501  1
  N  N68  1  0.89264782  0.87398537  0.35764977  1
  N  N69  1  0.82012897  0.73962531  0.13217912  1
  N  N70  1  0.53932630  0.88114528  0.85640997  1
  N  N71  1  0.45159281  0.76339412  0.58937721  1
