# generated using pymatgen
data_Gd2Al7N9
_symmetry_space_group_name_H-M   'P 1'
_cell_length_a   9.89933198
_cell_length_b   9.83523304
_cell_length_c   10.74401190
_cell_angle_alpha   90.22089913
_cell_angle_beta   89.18196426
_cell_angle_gamma   60.18470810
_symmetry_Int_Tables_number   1
_chemical_formula_structural   Gd2Al7N9
_chemical_formula_sum   'Gd8 Al28 N36'
_cell_volume   907.43199893
_cell_formula_units_Z   4
loop_
 _symmetry_equiv_pos_site_id
 _symmetry_equiv_pos_as_xyz
  1  'x, y, z'
loop_
 _atom_site_type_symbol
 _atom_site_label
 _atom_site_symmetry_multiplicity
 _atom_site_fract_x
 _atom_site_fract_y
 _atom_site_fract_z
 _atom_site_occupancy
  Al  Al0  1  0.11628854  0.08594320  0.29408780  1
  Al  Al1  1  0.21649113  0.21180931  0.09924223  1
  Al  Al2  1  0.53917273  0.21938566  0.11708008  1
  Al  Al3  1  0.11224329  0.08672243  0.81454255  1
  Al  Al4  1  0.23606728  0.19732100  0.64938546  1
  Al  Al5  1  0.78669669  0.09275277  0.27707177  1
  Al  Al6  1  0.90615031  0.19890380  0.06206498  1
  Al  Al7  1  0.42353097  0.11218416  0.87633308  1
  Al  Al8  1  0.53288517  0.21853209  0.63913939  1
  Al  Al9  1  0.11471888  0.43187051  0.29514788  1
  Al  Al10  1  0.21008387  0.54434124  0.05175552  1
  Al  Al11  1  0.46215173  0.42415032  0.38113592  1
  Al  Al12  1  0.11449891  0.43698186  0.81470146  1
  Al  Al13  1  0.22955574  0.53417181  0.55774028  1
  Al  Al14  1  0.79898412  0.42064302  0.29107866  1
  Al  Al15  1  0.91015474  0.53387390  0.05590612  1
  Al  Al16  1  0.41890893  0.43955021  0.87150421  1
  Al  Al17  1  0.53208547  0.54754147  0.62924618  1
  Al  Al18  1  0.11993445  0.75959474  0.30243435  1
  Al  Al19  1  0.20394708  0.87811550  0.04676080  1
  Al  Al20  1  0.78698408  0.75638482  0.81882239  1
  Al  Al21  1  0.46775662  0.74845930  0.38880212  1
  Al  Al22  1  0.11777329  0.75394986  0.80587429  1
  Al  Al23  1  0.22960051  0.86984991  0.56182301  1
  Al  Al24  1  0.79684113  0.74916099  0.28829053  1
  Al  Al25  1  0.90886865  0.85582782  0.05621487  1
  Al  Al26  1  0.42092749  0.76902338  0.86987160  1
  Al  Al27  1  0.54227926  0.87598872  0.64946047  1
  Gd  Gd28  1  0.76471592  0.09629160  0.84389352  1
  Gd  Gd29  1  0.88926613  0.20229632  0.54649268  1
  Gd  Gd30  1  0.44636300  0.09558735  0.38125678  1
  Gd  Gd31  1  0.76350323  0.44018993  0.83617504  1
  Gd  Gd32  1  0.89336166  0.53455615  0.55615370  1
  Gd  Gd33  1  0.53869674  0.54102918  0.12721261  1
  Gd  Gd34  1  0.88824344  0.87060703  0.55387400  1
  Gd  Gd35  1  0.55587574  0.87330585  0.09708245  1
  N  N36  1  0.20324793  0.21495944  0.31559122  1
  N  N37  1  0.11883609  0.08433200  0.11270214  1
  N  N38  1  0.91554536  0.19483215  0.88678385  1
  N  N39  1  0.75181187  0.10641925  0.62711784  1
  N  N40  1  0.56328476  0.22685682  0.29345918  1
  N  N41  1  0.42743014  0.12555255  0.05532255  1
  N  N42  1  0.21203689  0.20970726  0.83665532  1
  N  N43  1  0.13471171  0.07625972  0.63407325  1
  N  N44  1  0.89324376  0.20043700  0.32856084  1
  N  N45  1  0.78176891  0.08838498  0.09345903  1
  N  N46  1  0.50190656  0.23646144  0.81185688  1
  N  N47  1  0.44498804  0.08864771  0.59467986  1
  N  N48  1  0.21976564  0.54164862  0.36858948  1
  N  N49  1  0.11617138  0.43140046  0.11347018  1
  N  N50  1  0.90510357  0.54936596  0.87620721  1
  N  N51  1  0.75322150  0.43675614  0.62556822  1
  N  N52  1  0.56859028  0.53421476  0.33748922  1
  N  N53  1  0.43052532  0.41676842  0.04867893  1
  N  N54  1  0.20284622  0.55291395  0.87436617  1
  N  N55  1  0.14141876  0.41930466  0.63453676  1
  N  N56  1  0.89783242  0.53670662  0.34245844  1
  N  N57  1  0.80595044  0.41905692  0.10588012  1
  N  N58  1  0.49784617  0.56485781  0.80697406  1
  N  N59  1  0.45174718  0.41896088  0.55924426  1
  N  N60  1  0.22195490  0.87392562  0.37272718  1
  N  N61  1  0.12034210  0.75749141  0.11974757  1
  N  N62  1  0.90727746  0.84329137  0.87474024  1
  N  N63  1  0.76021719  0.76737844  0.64406175  1
  N  N64  1  0.57444185  0.84312469  0.31396486  1
  N  N65  1  0.41808817  0.76821156  0.04473013  1
  N  N66  1  0.20014281  0.87940919  0.86716127  1
  N  N67  1  0.14308788  0.74401577  0.62569383  1
  N  N68  1  0.88924995  0.87705082  0.33715647  1
  N  N69  1  0.81751556  0.74126251  0.11205753  1
  N  N70  1  0.54115552  0.87900109  0.83550938  1
  N  N71  1  0.45280538  0.76062234  0.57026323  1
