# generated using pymatgen
data_Gd2Al7N9
_symmetry_space_group_name_H-M   'P 1'
_cell_length_a   9.92636678
_cell_length_b   9.82934768
_cell_length_c   10.33776530
_cell_angle_alpha   90.13789314
_cell_angle_beta   89.91302305
_cell_angle_gamma   60.58876018
_symmetry_Int_Tables_number   1
_chemical_formula_structural   Gd2Al7N9
_chemical_formula_sum   'Gd8 Al28 N36'
_cell_volume   878.64830294
_cell_formula_units_Z   4
loop_
 _symmetry_equiv_pos_site_id
 _symmetry_equiv_pos_as_xyz
  1  'x, y, z'
loop_
 _atom_site_type_symbol
 _atom_site_label
 _atom_site_symmetry_multiplicity
 _atom_site_fract_x
 _atom_site_fract_y
 _atom_site_fract_z
 _atom_site_occupancy
  Al  Al0  1  0.12157535  0.08960238  0.40247906  1
  Al  Al1  1  0.21228623  0.21470690  0.15168048  1
  Al  Al2  1  0.53474275  0.22270354  0.16108970  1
  Al  Al3  1  0.11474645  0.08990342  0.91257950  1
  Al  Al4  1  0.23191735  0.19846903  0.66806308  1
  Al  Al5  1  0.76634093  0.10422281  0.38753362  1
  Al  Al6  1  0.90008341  0.20284409  0.17993108  1
  Al  Al7  1  0.43080019  0.11016473  0.89894947  1
  Al  Al8  1  0.54071600  0.21678700  0.66467719  1
  Al  Al9  1  0.12126481  0.42291711  0.40252709  1
  Al  Al10  1  0.21723443  0.53908887  0.15649421  1
  Al  Al11  1  0.43949964  0.43371153  0.41943346  1
  Al  Al12  1  0.11495487  0.43028124  0.91541388  1
  Al  Al13  1  0.23430900  0.53302517  0.65715280  1
  Al  Al14  1  0.76989986  0.43555751  0.41110879  1
  Al  Al15  1  0.90546655  0.53213179  0.17191697  1
  Al  Al16  1  0.42371905  0.43794272  0.90281672  1
  Al  Al17  1  0.53893742  0.54706524  0.65527399  1
  Al  Al18  1  0.12593094  0.75344672  0.40435897  1
  Al  Al19  1  0.21267022  0.87732381  0.15682787  1
  Al  Al20  1  0.80049057  0.74888103  0.92013832  1
  Al  Al21  1  0.44396958  0.76114590  0.42336057  1
  Al  Al22  1  0.11427998  0.75706264  0.91084659  1
  Al  Al23  1  0.23334630  0.86768822  0.65630136  1
  Al  Al24  1  0.77151804  0.75866905  0.40531797  1
  Al  Al25  1  0.90193375  0.86211369  0.17419767  1
  Al  Al26  1  0.42528907  0.76669268  0.89957531  1
  Al  Al27  1  0.55171578  0.87142800  0.67565283  1
  Gd  Gd28  1  0.77132875  0.09087022  0.92713019  1
  Gd  Gd29  1  0.89404551  0.19744625  0.63236629  1
  Gd  Gd30  1  0.44098835  0.09584200  0.42291558  1
  Gd  Gd31  1  0.77257899  0.43292591  0.91234743  1
  Gd  Gd32  1  0.90236082  0.53813896  0.64455122  1
  Gd  Gd33  1  0.54288816  0.54290385  0.16762678  1
  Gd  Gd34  1  0.88941197  0.87489607  0.63878905  1
  Gd  Gd35  1  0.55373402  0.87658945  0.13458359  1
  N  N36  1  0.19970900  0.21698163  0.33408039  1
  N  N37  1  0.10730671  0.09437275  0.10296087  1
  N  N38  1  0.91182449  0.18855425  0.85036325  1
  N  N39  1  0.73050079  0.11563656  0.57521320  1
  N  N40  1  0.55121660  0.23276710  0.34078750  1
  N  N41  1  0.42282936  0.12907721  0.09021683  1
  N  N42  1  0.21257321  0.21045927  0.85578317  1
  N  N43  1  0.15439943  0.07519634  0.58515176  1
  N  N44  1  0.89541498  0.20437875  0.36981320  1
  N  N45  1  0.77835882  0.09368591  0.14729407  1
  N  N46  1  0.52866721  0.22708498  0.84672082  1
  N  N47  1  0.44589770  0.08897715  0.64271098  1
  N  N48  1  0.22669625  0.53782811  0.34420041  1
  N  N49  1  0.11068591  0.43034478  0.10274378  1
  N  N50  1  0.90764572  0.54432277  0.86105345  1
  N  N51  1  0.74769540  0.44622017  0.59877505  1
  N  N52  1  0.54745913  0.54460048  0.38223732  1
  N  N53  1  0.42247054  0.42393577  0.08688611  1
  N  N54  1  0.21431126  0.54281150  0.84674073  1
  N  N55  1  0.15794901  0.39976815  0.58565673  1
  N  N56  1  0.89637272  0.53746995  0.36553175  1
  N  N57  1  0.80267532  0.41646567  0.13283444  1
  N  N58  1  0.52010960  0.55487958  0.84330271  1
  N  N59  1  0.44122786  0.42770691  0.60347947  1
  N  N60  1  0.22776668  0.86998143  0.34550646  1
  N  N61  1  0.11059290  0.76174294  0.10379963  1
  N  N62  1  0.90490549  0.84889740  0.85831652  1
  N  N63  1  0.74169232  0.77877261  0.58695371  1
  N  N64  1  0.56291137  0.84596604  0.35152098  1
  N  N65  1  0.40691099  0.77602355  0.07928344  1
  N  N66  1  0.21317470  0.87747871  0.84416014  1
  N  N67  1  0.14829393  0.74220257  0.58760249  1
  N  N68  1  0.89509031  0.86551964  0.36308649  1
  N  N69  1  0.81411709  0.74200282  0.10638333  1
  N  N70  1  0.56333044  0.86648072  0.86843486  1
  N  N71  1  0.44427612  0.76569824  0.61101244  1
