# generated using pymatgen
data_Gd2Al7N9
_symmetry_space_group_name_H-M   'P 1'
_cell_length_a   10.02085556
_cell_length_b   9.86330253
_cell_length_c   10.26847867
_cell_angle_alpha   90.04514642
_cell_angle_beta   90.08985353
_cell_angle_gamma   60.75263704
_symmetry_Int_Tables_number   1
_chemical_formula_structural   Gd2Al7N9
_chemical_formula_sum   'Gd8 Al28 N36'
_cell_volume   885.53833971
_cell_formula_units_Z   4
loop_
 _symmetry_equiv_pos_site_id
 _symmetry_equiv_pos_as_xyz
  1  'x, y, z'
loop_
 _atom_site_type_symbol
 _atom_site_label
 _atom_site_symmetry_multiplicity
 _atom_site_fract_x
 _atom_site_fract_y
 _atom_site_fract_z
 _atom_site_occupancy
  Al  Al0  1  0.12514770  0.08779417  0.39889409  1
  Al  Al1  1  0.21493483  0.21174592  0.14612028  1
  Al  Al2  1  0.53353520  0.22354634  0.15454904  1
  Al  Al3  1  0.11278828  0.09083733  0.90541756  1
  Al  Al4  1  0.22837067  0.20177201  0.65987321  1
  Al  Al5  1  0.76674918  0.10631208  0.37996794  1
  Al  Al6  1  0.90461045  0.19641604  0.16876335  1
  Al  Al7  1  0.42299708  0.11647300  0.89666421  1
  Al  Al8  1  0.53565175  0.21830044  0.65702630  1
  Al  Al9  1  0.13060194  0.41812144  0.39994045  1
  Al  Al10  1  0.21661037  0.53897691  0.14985028  1
  Al  Al11  1  0.44520831  0.43289654  0.41420863  1
  Al  Al12  1  0.10948020  0.43464174  0.90432229  1
  Al  Al13  1  0.23196818  0.53404084  0.65207941  1
  Al  Al14  1  0.77904168  0.42668340  0.36779697  1
  Al  Al15  1  0.91690008  0.52236268  0.16363293  1
  Al  Al16  1  0.41841137  0.43873375  0.89757752  1
  Al  Al17  1  0.53233592  0.54989954  0.65828673  1
  Al  Al18  1  0.13551229  0.75088321  0.40058489  1
  Al  Al19  1  0.21592419  0.87799306  0.15253087  1
  Al  Al20  1  0.78086615  0.76033383  0.83439982  1
  Al  Al21  1  0.45417186  0.75632697  0.41638687  1
  Al  Al22  1  0.10959858  0.75916790  0.90205654  1
  Al  Al23  1  0.23058143  0.86892813  0.64985479  1
  Al  Al24  1  0.78943064  0.75053321  0.34002035  1
  Al  Al25  1  0.91252204  0.86381730  0.16956171  1
  Al  Al26  1  0.41615098  0.77080285  0.89800219  1
  Al  Al27  1  0.53225326  0.88191274  0.67315025  1
  Gd  Gd28  1  0.76811992  0.08973902  0.91721161  1
  Gd  Gd29  1  0.88908693  0.19748702  0.62678884  1
  Gd  Gd30  1  0.44817600  0.09032812  0.40919454  1
  Gd  Gd31  1  0.77141772  0.43558741  0.89464666  1
  Gd  Gd32  1  0.89318681  0.53629224  0.61690184  1
  Gd  Gd33  1  0.54008562  0.54296459  0.15381914  1
  Gd  Gd34  1  0.88856932  0.87459848  0.61464626  1
  Gd  Gd35  1  0.56765310  0.86992415  0.11336360  1
  N  N36  1  0.20290607  0.21509735  0.32995474  1
  N  N37  1  0.10923021  0.09384987  0.09726986  1
  N  N38  1  0.91044636  0.18685009  0.84883328  1
  N  N39  1  0.72408129  0.11801258  0.56775067  1
  N  N40  1  0.55469532  0.23367470  0.33361454  1
  N  N41  1  0.42494095  0.12547908  0.08997799  1
  N  N42  1  0.20993242  0.21225988  0.84984951  1
  N  N43  1  0.14952996  0.07760781  0.58227291  1
  N  N44  1  0.89965190  0.19979311  0.36193295  1
  N  N45  1  0.78217279  0.09053036  0.14029195  1
  N  N46  1  0.52270717  0.22840061  0.84088582  1
  N  N47  1  0.43889766  0.09333432  0.62914428  1
  N  N48  1  0.23065807  0.53661585  0.33869695  1
  N  N49  1  0.11429610  0.42651231  0.09397444  1
  N  N50  1  0.90622454  0.54673942  0.84943200  1
  N  N51  1  0.74084015  0.44310352  0.63068545  1
  N  N52  1  0.55700656  0.53967526  0.37310401  1
  N  N53  1  0.41908142  0.42282741  0.08185954  1
  N  N54  1  0.21182072  0.54473843  0.84176970  1
  N  N55  1  0.15651254  0.40275783  0.58343696  1
  N  N56  1  0.90541247  0.52758134  0.36732479  1
  N  N57  1  0.80312151  0.41613219  0.13965633  1
  N  N58  1  0.51175815  0.55981678  0.84790904  1
  N  N59  1  0.43833965  0.43057948  0.59892091  1
  N  N60  1  0.23415921  0.86848108  0.34135632  1
  N  N61  1  0.11437136  0.76186407  0.09707029  1
  N  N62  1  0.90421320  0.85243364  0.84700084  1
  N  N63  1  0.73816825  0.78097056  0.64933883  1
  N  N64  1  0.57497355  0.83950567  0.34695531  1
  N  N65  1  0.40783571  0.78004283  0.07890654  1
  N  N66  1  0.21018755  0.87920821  0.83902667  1
  N  N67  1  0.15107692  0.74081502  0.58380081  1
  N  N68  1  0.90423342  0.86844862  0.36409999  1
  N  N69  1  0.82371909  0.73739882  0.15400061  1
  N  N70  1  0.54560013  0.87777970  0.86719459  1
  N  N71  1  0.44037545  0.76637640  0.60449289  1
