# generated using pymatgen
data_Gd2Al7N9
_symmetry_space_group_name_H-M   'P 1'
_cell_length_a   10.05507264
_cell_length_b   9.86301656
_cell_length_c   10.32787986
_cell_angle_alpha   90.13422135
_cell_angle_beta   90.77772211
_cell_angle_gamma   60.74369311
_symmetry_Int_Tables_number   1
_chemical_formula_structural   Gd2Al7N9
_chemical_formula_sum   'Gd8 Al28 N36'
_cell_volume   893.50617837
_cell_formula_units_Z   4
loop_
 _symmetry_equiv_pos_site_id
 _symmetry_equiv_pos_as_xyz
  1  'x, y, z'
loop_
 _atom_site_type_symbol
 _atom_site_label
 _atom_site_symmetry_multiplicity
 _atom_site_fract_x
 _atom_site_fract_y
 _atom_site_fract_z
 _atom_site_occupancy
  Al  Al0  1  0.12673590  0.08706557  0.39900841  1
  Al  Al1  1  0.21235078  0.21498928  0.15087947  1
  Al  Al2  1  0.53269815  0.22414070  0.14998470  1
  Al  Al3  1  0.11376035  0.09184052  0.90213359  1
  Al  Al4  1  0.22889883  0.19899491  0.65880924  1
  Al  Al5  1  0.78608795  0.08799935  0.31858925  1
  Al  Al6  1  0.91066621  0.19722299  0.15139663  1
  Al  Al7  1  0.41715714  0.11681537  0.90713786  1
  Al  Al8  1  0.52526135  0.22160166  0.67215299  1
  Al  Al9  1  0.12551165  0.41912609  0.40358225  1
  Al  Al10  1  0.21712021  0.53712176  0.15995363  1
  Al  Al11  1  0.45701525  0.42618976  0.41235001  1
  Al  Al12  1  0.11868107  0.42704847  0.90266973  1
  Al  Al13  1  0.23122511  0.53299671  0.64458018  1
  Al  Al14  1  0.79434597  0.42823259  0.33364330  1
  Al  Al15  1  0.91061793  0.53389027  0.08897831  1
  Al  Al16  1  0.40711352  0.44459428  0.90452752  1
  Al  Al17  1  0.52546159  0.55321065  0.66564283  1
  Al  Al18  1  0.13029269  0.75325424  0.38897891  1
  Al  Al19  1  0.21567565  0.87849621  0.15881253  1
  Al  Al20  1  0.78328430  0.75905594  0.85410786  1
  Al  Al21  1  0.46385406  0.75067262  0.41705121  1
  Al  Al22  1  0.11681862  0.75731543  0.87986549  1
  Al  Al23  1  0.22980142  0.87168126  0.64411412  1
  Al  Al24  1  0.80149900  0.74300469  0.32506011  1
  Al  Al25  1  0.91356192  0.85331469  0.09551438  1
  Al  Al26  1  0.41171607  0.77518562  0.90149342  1
  Al  Al27  1  0.53722508  0.88085228  0.68131883  1
  Gd  Gd28  1  0.76222376  0.09916666  0.88392810  1
  Gd  Gd29  1  0.87853635  0.20933790  0.61351415  1
  Gd  Gd30  1  0.45227790  0.08858582  0.40632610  1
  Gd  Gd31  1  0.76114140  0.43355601  0.88152337  1
  Gd  Gd32  1  0.88500448  0.53979038  0.61197878  1
  Gd  Gd33  1  0.53875877  0.54534900  0.14854888  1
  Gd  Gd34  1  0.87879919  0.87692553  0.59301308  1
  Gd  Gd35  1  0.56019002  0.87274453  0.11986617  1
  N  N36  1  0.20313992  0.21552315  0.33328824  1
  N  N37  1  0.11381232  0.09295444  0.09363430  1
  N  N38  1  0.91705142  0.18912078  0.84208384  1
  N  N39  1  0.73376634  0.11087940  0.65550069  1
  N  N40  1  0.57002113  0.22249952  0.33219074  1
  N  N41  1  0.42076100  0.12664718  0.09745279  1
  N  N42  1  0.21104451  0.20986307  0.84762167  1
  N  N43  1  0.14407051  0.08039165  0.58239292  1
  N  N44  1  0.90336462  0.19614272  0.34847072  1
  N  N45  1  0.78400921  0.09085427  0.12698411  1
  N  N46  1  0.50135236  0.23802820  0.85323677  1
  N  N47  1  0.44101009  0.09073593  0.62549642  1
  N  N48  1  0.23553949  0.52888710  0.34696679  1
  N  N49  1  0.12252593  0.42389145  0.09158696  1
  N  N50  1  0.90170535  0.54765668  0.89579606  1
  N  N51  1  0.73500376  0.45136891  0.66067472  1
  N  N52  1  0.56805663  0.53374147  0.36789812  1
  N  N53  1  0.41498938  0.42623598  0.08767938  1
  N  N54  1  0.20663126  0.54566369  0.83361217  1
  N  N55  1  0.15001238  0.40360255  0.58912061  1
  N  N56  1  0.90306841  0.53284000  0.38536881  1
  N  N57  1  0.80631638  0.41993548  0.13665629  1
  N  N58  1  0.49737792  0.56515064  0.85412863  1
  N  N59  1  0.44107834  0.42750656  0.59700266  1
  N  N60  1  0.23968506  0.86830609  0.34639647  1
  N  N61  1  0.12271076  0.75575239  0.12245174  1
  N  N62  1  0.90736553  0.84441802  0.90411399  1
  N  N63  1  0.74749407  0.77765000  0.67565963  1
  N  N64  1  0.58362437  0.83605387  0.34794346  1
  N  N65  1  0.40274171  0.78357206  0.08063141  1
  N  N66  1  0.21004725  0.88095929  0.83412548  1
  N  N67  1  0.14315980  0.74570099  0.58599240  1
  N  N68  1  0.89500554  0.87200247  0.36966494  1
  N  N69  1  0.82032070  0.73792594  0.14257541  1
  N  N70  1  0.53972730  0.88192709  0.87432363  1
  N  N71  1  0.44355840  0.76606889  0.60533594  1
