# generated using pymatgen
data_Gd2Al7N9
_symmetry_space_group_name_H-M   'P 1'
_cell_length_a   9.87586432
_cell_length_b   9.83362542
_cell_length_c   10.79855957
_cell_angle_alpha   90.18638545
_cell_angle_beta   89.36813546
_cell_angle_gamma   60.13806426
_symmetry_Int_Tables_number   1
_chemical_formula_structural   Gd2Al7N9
_chemical_formula_sum   'Gd8 Al28 N36'
_cell_volume   909.36716742
_cell_formula_units_Z   4
loop_
 _symmetry_equiv_pos_site_id
 _symmetry_equiv_pos_as_xyz
  1  'x, y, z'
loop_
 _atom_site_type_symbol
 _atom_site_label
 _atom_site_symmetry_multiplicity
 _atom_site_fract_x
 _atom_site_fract_y
 _atom_site_fract_z
 _atom_site_occupancy
  Al  Al0  1  0.11590865  0.08213412  0.30956728  1
  Al  Al1  1  0.21953395  0.21052095  0.13733203  1
  Al  Al2  1  0.54000567  0.21904881  0.13102792  1
  Al  Al3  1  0.11101704  0.08758424  0.82533314  1
  Al  Al4  1  0.23408854  0.19837318  0.66061804  1
  Al  Al5  1  0.78845129  0.09243175  0.29061903  1
  Al  Al6  1  0.90870749  0.19772236  0.07474633  1
  Al  Al7  1  0.41615375  0.11700359  0.89397463  1
  Al  Al8  1  0.52993720  0.21904685  0.65421008  1
  Al  Al9  1  0.11458296  0.43665167  0.31066449  1
  Al  Al10  1  0.21092173  0.54324163  0.06481388  1
  Al  Al11  1  0.46389196  0.42376360  0.39634081  1
  Al  Al12  1  0.11361233  0.43687650  0.82549967  1
  Al  Al13  1  0.22867208  0.53549353  0.57082390  1
  Al  Al14  1  0.80142167  0.41934121  0.30509867  1
  Al  Al15  1  0.91288425  0.53227182  0.06969938  1
  Al  Al16  1  0.41838189  0.43968411  0.88518645  1
  Al  Al17  1  0.53013509  0.54908659  0.64487641  1
  Al  Al18  1  0.12103751  0.75912243  0.31542743  1
  Al  Al19  1  0.20438609  0.87826178  0.06018336  1
  Al  Al20  1  0.78606366  0.75734006  0.83369793  1
  Al  Al21  1  0.46931970  0.74762973  0.40331061  1
  Al  Al22  1  0.11741025  0.75423359  0.81980524  1
  Al  Al23  1  0.22888159  0.86991138  0.57455819  1
  Al  Al24  1  0.79816557  0.74835173  0.30125052  1
  Al  Al25  1  0.90984666  0.85524229  0.07022971  1
  Al  Al26  1  0.42016374  0.76972686  0.88384197  1
  Al  Al27  1  0.53973181  0.87903498  0.66489100  1
  Gd  Gd28  1  0.76281772  0.09650945  0.85830760  1
  Gd  Gd29  1  0.88347756  0.20525258  0.56217043  1
  Gd  Gd30  1  0.45005896  0.09347427  0.39390024  1
  Gd  Gd31  1  0.76194502  0.44097844  0.85226651  1
  Gd  Gd32  1  0.88760072  0.53844845  0.57119006  1
  Gd  Gd33  1  0.53920704  0.54052044  0.14270252  1
  Gd  Gd34  1  0.88700479  0.87154995  0.56791376  1
  Gd  Gd35  1  0.55674554  0.87267959  0.10905640  1
  N  N36  1  0.20718714  0.21321436  0.31951920  1
  N  N37  1  0.11935382  0.08181956  0.12962025  1
  N  N38  1  0.91538117  0.19435699  0.90045017  1
  N  N39  1  0.74944130  0.10599598  0.64297542  1
  N  N40  1  0.56438580  0.22716946  0.30733088  1
  N  N41  1  0.42418151  0.12709352  0.07242433  1
  N  N42  1  0.21074008  0.21030009  0.84046089  1
  N  N43  1  0.13167786  0.07683714  0.64413615  1
  N  N44  1  0.89449817  0.19999470  0.34553433  1
  N  N45  1  0.78258441  0.08807184  0.10804757  1
  N  N46  1  0.49880011  0.23664419  0.82630925  1
  N  N47  1  0.44310715  0.08985431  0.60513115  1
  N  N48  1  0.22144425  0.54236395  0.38297375  1
  N  N49  1  0.11754587  0.43267441  0.13055875  1
  N  N50  1  0.90498156  0.54945872  0.89042266  1
  N  N51  1  0.75137529  0.43818748  0.64331115  1
  N  N52  1  0.57098937  0.53315843  0.35252538  1
  N  N53  1  0.43260009  0.41605472  0.06130005  1
  N  N54  1  0.20181789  0.55244424  0.88775827  1
  N  N55  1  0.13820176  0.42190067  0.64460465  1
  N  N56  1  0.89902346  0.53623485  0.35819022  1
  N  N57  1  0.80788720  0.41770259  0.12074245  1
  N  N58  1  0.49550258  0.56626788  0.82066366  1
  N  N59  1  0.45168842  0.41923918  0.57363251  1
  N  N60  1  0.22390197  0.87196013  0.38664231  1
  N  N61  1  0.12211571  0.75632772  0.13331760  1
  N  N62  1  0.90695035  0.84362374  0.88986823  1
  N  N63  1  0.75820077  0.77048656  0.66001579  1
  N  N64  1  0.57547942  0.84210814  0.32651828  1
  N  N65  1  0.41940400  0.76636619  0.05768391  1
  N  N66  1  0.19912620  0.88084840  0.88071039  1
  N  N67  1  0.14244032  0.74459046  0.63977893  1
  N  N68  1  0.89023357  0.87660827  0.35104945  1
  N  N69  1  0.81897151  0.74006712  0.12609720  1
  N  N70  1  0.53856548  0.88173847  0.85051024  1
  N  N71  1  0.45290093  0.76135955  0.58406577  1
