# generated using pymatgen
data_Gd2Al7N9
_symmetry_space_group_name_H-M   'P 1'
_cell_length_a   9.90107316
_cell_length_b   9.83299095
_cell_length_c   10.73645127
_cell_angle_alpha   90.22535111
_cell_angle_beta   89.17231289
_cell_angle_gamma   60.18232956
_symmetry_Int_Tables_number   1
_chemical_formula_structural   Gd2Al7N9
_chemical_formula_sum   'Gd8 Al28 N36'
_cell_volume   906.72025171
_cell_formula_units_Z   4
loop_
 _symmetry_equiv_pos_site_id
 _symmetry_equiv_pos_as_xyz
  1  'x, y, z'
loop_
 _atom_site_type_symbol
 _atom_site_label
 _atom_site_symmetry_multiplicity
 _atom_site_fract_x
 _atom_site_fract_y
 _atom_site_fract_z
 _atom_site_occupancy
  Al  Al0  1  0.11709190  0.08781395  0.29433381  1
  Al  Al1  1  0.21425401  0.21289749  0.08015543  1
  Al  Al2  1  0.53885662  0.21948685  0.11717680  1
  Al  Al3  1  0.11206930  0.08648961  0.81506587  1
  Al  Al4  1  0.23574159  0.19747572  0.64717076  1
  Al  Al5  1  0.78645406  0.09284258  0.27710624  1
  Al  Al6  1  0.90568328  0.19904201  0.06270618  1
  Al  Al7  1  0.42642703  0.11039621  0.87496262  1
  Al  Al8  1  0.53335907  0.21858032  0.63895527  1
  Al  Al9  1  0.11552803  0.42895947  0.29530962  1
  Al  Al10  1  0.21003657  0.54428461  0.05219361  1
  Al  Al11  1  0.46185288  0.42424572  0.38095122  1
  Al  Al12  1  0.11420087  0.43762544  0.81521279  1
  Al  Al13  1  0.22964039  0.53399437  0.55772905  1
  Al  Al14  1  0.79883459  0.42076465  0.29112692  1
  Al  Al15  1  0.90966200  0.53416995  0.05632666  1
  Al  Al16  1  0.41883864  0.43969536  0.87157922  1
  Al  Al17  1  0.53226803  0.54739462  0.62902457  1
  Al  Al18  1  0.11983196  0.75963731  0.30273514  1
  Al  Al19  1  0.20398920  0.87822424  0.04715224  1
  Al  Al20  1  0.78715154  0.75624759  0.81872463  1
  Al  Al21  1  0.46747783  0.74863371  0.38869232  1
  Al  Al22  1  0.11771389  0.75401111  0.80598093  1
  Al  Al23  1  0.22971814  0.86984418  0.56185614  1
  Al  Al24  1  0.79668467  0.74925122  0.28841583  1
  Al  Al25  1  0.90878842  0.85593626  0.05627687  1
  Al  Al26  1  0.42089868  0.76893151  0.86990209  1
  Al  Al27  1  0.54268876  0.87538121  0.64925918  1
  Gd  Gd28  1  0.76494332  0.09640124  0.84400016  1
  Gd  Gd29  1  0.89016254  0.20203907  0.54592662  1
  Gd  Gd30  1  0.44583468  0.09600378  0.38164569  1
  Gd  Gd31  1  0.76348118  0.44026085  0.83611611  1
  Gd  Gd32  1  0.89418832  0.53385250  0.55560144  1
  Gd  Gd33  1  0.53857614  0.54106847  0.12731170  1
  Gd  Gd34  1  0.88825209  0.87057901  0.55377955  1
  Gd  Gd35  1  0.55554553  0.87356871  0.09770660  1
  N  N36  1  0.20052762  0.21618013  0.32765098  1
  N  N37  1  0.11952683  0.08563423  0.11235049  1
  N  N38  1  0.91551542  0.19500025  0.88710003  1
  N  N39  1  0.75221514  0.10659378  0.62693842  1
  N  N40  1  0.56312200  0.22712217  0.29325212  1
  N  N41  1  0.42856841  0.12505833  0.05423486  1
  N  N42  1  0.21134406  0.21011255  0.84344384  1
  N  N43  1  0.13520572  0.07639234  0.63554957  1
  N  N44  1  0.89299112  0.20039405  0.32782464  1
  N  N45  1  0.78184460  0.08830549  0.09332557  1
  N  N46  1  0.50219834  0.23669125  0.81155954  1
  N  N47  1  0.44525614  0.08847795  0.59587368  1
  N  N48  1  0.21952439  0.54153151  0.36856351  1
  N  N49  1  0.11664549  0.42954184  0.11305499  1
  N  N50  1  0.90503327  0.54939264  0.87641858  1
  N  N51  1  0.75348691  0.43658831  0.62520786  1
  N  N52  1  0.56838705  0.53428925  0.33757496  1
  N  N53  1  0.43031625  0.41684375  0.04872805  1
  N  N54  1  0.20281205  0.55307822  0.87469254  1
  N  N55  1  0.14182963  0.41876893  0.63599139  1
  N  N56  1  0.89756016  0.53701447  0.34191789  1
  N  N57  1  0.80553131  0.41933036  0.10569688  1
  N  N58  1  0.49791749  0.56479492  0.80691783  1
  N  N59  1  0.45168311  0.41893289  0.55924198  1
  N  N60  1  0.22168685  0.87411324  0.37281735  1
  N  N61  1  0.12023516  0.75759730  0.11988725  1
  N  N62  1  0.90726146  0.84333464  0.87461498  1
  N  N63  1  0.76057140  0.76684279  0.64384026  1
  N  N64  1  0.57427625  0.84301853  0.31401573  1
  N  N65  1  0.41803553  0.76837081  0.04476829  1
  N  N66  1  0.20011951  0.87932637  0.86745929  1
  N  N67  1  0.14309065  0.74400294  0.62579136  1
  N  N68  1  0.88908403  0.87714149  0.33716487  1
  N  N69  1  0.81738673  0.74146285  0.11199900  1
  N  N70  1  0.54145749  0.87855205  0.83519542  1
  N  N71  1  0.45274327  0.76062402  0.57036338  1
