# generated using pymatgen
data_Gd2Al7N9
_symmetry_space_group_name_H-M   'P 1'
_cell_length_a   10.05673970
_cell_length_b   9.86020247
_cell_length_c   10.32512265
_cell_angle_alpha   90.13337545
_cell_angle_beta   90.78744640
_cell_angle_gamma   60.74201383
_symmetry_Int_Tables_number   1
_chemical_formula_structural   Gd2Al7N9
_chemical_formula_sum   'Gd8 Al28 N36'
_cell_volume   893.14359752
_cell_formula_units_Z   4
loop_
 _symmetry_equiv_pos_site_id
 _symmetry_equiv_pos_as_xyz
  1  'x, y, z'
loop_
 _atom_site_type_symbol
 _atom_site_label
 _atom_site_symmetry_multiplicity
 _atom_site_fract_x
 _atom_site_fract_y
 _atom_site_fract_z
 _atom_site_occupancy
  Al  Al0  1  0.12659016  0.08684773  0.39873333  1
  Al  Al1  1  0.21237163  0.21491510  0.15077388  1
  Al  Al2  1  0.53262815  0.22410421  0.15008564  1
  Al  Al3  1  0.11387362  0.09153787  0.90183471  1
  Al  Al4  1  0.22885097  0.19901850  0.65862703  1
  Al  Al5  1  0.78640764  0.08777903  0.31898116  1
  Al  Al6  1  0.91074156  0.19723170  0.15144956  1
  Al  Al7  1  0.41705100  0.11677724  0.90699175  1
  Al  Al8  1  0.52500434  0.22174795  0.67198576  1
  Al  Al9  1  0.12538048  0.41945353  0.40332564  1
  Al  Al10  1  0.21708826  0.53740977  0.15874709  1
  Al  Al11  1  0.45705297  0.42634991  0.41223344  1
  Al  Al12  1  0.11869241  0.42725253  0.90240349  1
  Al  Al13  1  0.23086832  0.53384997  0.64570402  1
  Al  Al14  1  0.79437864  0.42822439  0.33366219  1
  Al  Al15  1  0.91070186  0.53384724  0.08891887  1
  Al  Al16  1  0.40700219  0.44457159  0.90425068  1
  Al  Al17  1  0.52547328  0.55317618  0.66563690  1
  Al  Al18  1  0.13189159  0.75250378  0.39451640  1
  Al  Al19  1  0.21557831  0.87812434  0.15767215  1
  Al  Al20  1  0.78279755  0.75933564  0.85382606  1
  Al  Al21  1  0.46402366  0.75043021  0.41698756  1
  Al  Al22  1  0.11822432  0.75641104  0.89256951  1
  Al  Al23  1  0.22944882  0.87126024  0.64529495  1
  Al  Al24  1  0.80184284  0.74295254  0.32554472  1
  Al  Al25  1  0.91175283  0.85436472  0.09510341  1
  Al  Al26  1  0.41167988  0.77533411  0.90128697  1
  Al  Al27  1  0.53695333  0.88088464  0.68112795  1
  Gd  Gd28  1  0.76189018  0.09968848  0.88387624  1
  Gd  Gd29  1  0.87859564  0.20932176  0.61348584  1
  Gd  Gd30  1  0.45228268  0.08860077  0.40634090  1
  Gd  Gd31  1  0.76123588  0.43352676  0.88151451  1
  Gd  Gd32  1  0.88513762  0.53962766  0.61204061  1
  Gd  Gd33  1  0.53900201  0.54519083  0.14835712  1
  Gd  Gd34  1  0.87943831  0.87668493  0.59470968  1
  Gd  Gd35  1  0.56046007  0.87265145  0.11984304  1
  N  N36  1  0.20315893  0.21548632  0.33326039  1
  N  N37  1  0.11375813  0.09290373  0.09358928  1
  N  N38  1  0.91714601  0.18920158  0.84186130  1
  N  N39  1  0.73346813  0.11113088  0.65518399  1
  N  N40  1  0.57007271  0.22249655  0.33226807  1
  N  N41  1  0.42077178  0.12657748  0.09744619  1
  N  N42  1  0.21096338  0.20990112  0.84747768  1
  N  N43  1  0.14426206  0.07990785  0.58220354  1
  N  N44  1  0.90334385  0.19623156  0.34846179  1
  N  N45  1  0.78413319  0.09070019  0.12728008  1
  N  N46  1  0.50110861  0.23803607  0.85303716  1
  N  N47  1  0.44086424  0.09078864  0.62538167  1
  N  N48  1  0.23462346  0.53060548  0.34564213  1
  N  N49  1  0.12253344  0.42384111  0.09150471  1
  N  N50  1  0.90157170  0.54782223  0.89577957  1
  N  N51  1  0.73495704  0.45139069  0.66053838  1
  N  N52  1  0.56816464  0.53367424  0.36782967  1
  N  N53  1  0.41523486  0.42605198  0.08758453  1
  N  N54  1  0.20604411  0.54684662  0.83438144  1
  N  N55  1  0.15024018  0.40393796  0.58897871  1
  N  N56  1  0.90309522  0.53268426  0.38545327  1
  N  N57  1  0.80638341  0.41991995  0.13662480  1
  N  N58  1  0.49757990  0.56501194  0.85418840  1
  N  N59  1  0.44068639  0.42779419  0.59692188  1
  N  N60  1  0.23853147  0.86759280  0.34508086  1
  N  N61  1  0.12422588  0.75494927  0.10936853  1
  N  N62  1  0.90534756  0.84553103  0.90375493  1
  N  N63  1  0.74713890  0.77760994  0.67518588  1
  N  N64  1  0.58364974  0.83604151  0.34803361  1
  N  N65  1  0.40320894  0.78351068  0.08070418  1
  N  N66  1  0.20962779  0.88038402  0.83487340  1
  N  N67  1  0.14433583  0.74516105  0.58417918  1
  N  N68  1  0.89640075  0.87139362  0.36993336  1
  N  N69  1  0.82069633  0.73769217  0.14323753  1
  N  N70  1  0.53961227  0.88188405  0.87415854  1
  N  N71  1  0.44318494  0.76614656  0.60526293  1
